@<TRIPOS>MOLECULE
tmp/3vrgB00.pdb
 217 208 0 0 0
SMALL
GASTEIGER

@<TRIPOS>ATOM
      1  N         18.7690    2.9400   -8.3400 N.3    28  LEU28      -0.1245
      2  CA        17.7920    2.5830   -9.3800 C.3    28  LEU28       0.1561
      3  C         17.9030    1.1370   -9.7730 C.2    28  LEU28       0.2260
      4  O         16.8730    0.4580   -9.9840 O.2    28  LEU28      -0.2867
      5  CB        17.9700    3.4750  -10.5920 C.3    28  LEU28       0.0270
      6  CG        16.7630    3.3530  -11.5920 C.3    28  LEU28       0.0019
      7  CD1       15.4310    3.8130  -10.9770 C.3    28  LEU28       0.0001
      8  CD2       17.1240    4.2650  -12.8060 C.3    28  LEU28       0.0001
      9  N         16.0520   -0.8620   -7.2490 N.3    31  LEU31      -0.1245
     10  CA        14.6050   -0.7590   -7.3910 C.3    31  LEU31       0.1561
     11  C         14.1300   -1.7560   -8.4390 C.2    31  LEU31       0.2260
     12  O         13.1460   -2.5030   -8.1740 O.2    31  LEU31      -0.2867
     13  CB        14.2400    0.6200   -7.8640 C.3    31  LEU31       0.0270
     14  CG        12.7290    0.8760   -8.0560 C.3    31  LEU31       0.0019
     15  CD1       12.0080    1.0470   -6.6770 C.3    31  LEU31       0.0001
     16  CD2       12.5530    2.1020   -8.9660 C.3    31  LEU31       0.0001
     17  N          8.7720   -2.4620  -11.9000 N.3    38  THR38      -0.1218
     18  CA         9.2220   -1.0950  -12.2030 C.3    38  THR38       0.1862
     19  C         10.0350   -1.0840  -13.4610 C.2    38  THR38       0.2287
     20  O         10.1990    0.0140  -14.0290 O.2    38  THR38      -0.2866
     21  CB        10.0570   -0.4640  -11.0030 C.3    38  THR38       0.1770
     22  OG1       11.1820   -1.2900  -10.7170 O.3    38  THR38      -0.2211
     23  CG2        9.1510   -0.3200   -9.7620 C.3    38  THR38       0.0375
     24  N          8.7110    0.6650  -16.9350 N.3    41  PHE41      -0.1227
     25  CA         8.8490    2.0850  -17.2500 C.3    41  PHE41       0.1736
     26  C         10.1460    2.3630  -17.9850 C.2    41  PHE41       0.2595
     27  O         10.2800    3.4170  -18.6160 O.2    41  PHE41      -0.2718
     28  CB         8.7810    2.9470  -15.9860 C.3    41  PHE41       0.0547
     29  CG         7.4650    2.9000  -15.2990 C.ar   41  PHE41      -0.0202
     30  CD1        7.3110    2.1280  -14.1590 C.ar   41  PHE41      -0.0042
     31  CD2        6.3940    3.6260  -15.8020 C.ar   41  PHE41      -0.0042
     32  CE1        6.0440    2.0420  -13.4900 C.ar   41  PHE41      -0.0003
     33  CE2        5.1460    3.5750  -15.1510 C.ar   41  PHE41      -0.0003
     34  CZ         4.9970    2.7940  -13.9990 C.ar   41  PHE41      -0.0000
     35  N         11.0480    1.3920  -17.9460 N.am   42  PHE42      -0.1976
     36  CA        12.3900    1.5780  -18.4990 C.3    42  PHE42       0.1639
     37  C         12.7240    0.6490  -19.6160 C.2    42  PHE42       0.2290
     38  O         13.8940    0.4080  -19.8890 O.2    42  PHE42      -0.2864
     39  CB        13.4240    1.4300  -17.3580 C.3    42  PHE42       0.0560
     40  CG        13.2660    2.4750  -16.2630 C.ar   42  PHE42      -0.0200
     41  CD1       12.6270    2.1400  -15.0520 C.ar   42  PHE42      -0.0042
     42  CD2       13.6170    3.7960  -16.4600 C.ar   42  PHE42      -0.0042
     43  CE1       12.4750    3.0170  -14.0400 C.ar   42  PHE42      -0.0003
     44  CE2       13.4540    4.7040  -15.4550 C.ar   42  PHE42      -0.0003
     45  CZ        12.8290    4.3360  -14.2390 C.ar   42  PHE42      -0.0000
     46  N         12.6570    0.8050  -22.7080 N.3    44  HIS44      -0.1226
     47  CA        13.3860    1.5120  -23.7620 C.3    44  HIS44       0.1752
     48  C         14.8610    1.6660  -23.4540 C.2    44  HIS44       0.2596
     49  O         15.6320    2.0980  -24.3200 O.2    44  HIS44      -0.2718
     50  CB        12.7510    2.8460  -24.1020 C.3    44  HIS44       0.0759
     51  CG        12.6760    3.7990  -22.9620 C.ar   44  HIS44       0.0818
     52  ND1       11.8710    3.5690  -21.8540 N.ar   44  HIS44      -0.2268
     53  CD2       13.2940    4.9740  -22.7390 C.ar   44  HIS44       0.1154
     54  CE1       11.9780    4.5820  -21.0240 C.ar   44  HIS44       0.1986
     55  NE2       12.8280    5.4600  -21.5500 N.ar   44  HIS44      -0.2212
     56  N         15.2600    1.3350  -22.2190 N.am   45  PHE45      -0.1976
     57  CA        16.6710    1.2930  -21.8850 C.3    45  PHE45       0.1639
     58  C         17.3800   -0.0140  -22.2630 C.2    45  PHE45       0.2290
     59  O         18.5660   -0.2250  -21.9030 O.2    45  PHE45      -0.2864
     60  CB        16.8390    1.4770  -20.3640 C.3    45  PHE45       0.0560
     61  CG        16.5650    2.8500  -19.8350 C.ar   45  PHE45      -0.0200
     62  CD1       16.9090    3.1170  -18.4830 C.ar   45  PHE45      -0.0042
     63  CD2       16.0970    3.8990  -20.6100 C.ar   45  PHE45      -0.0042
     64  CE1       16.6790    4.3660  -17.9160 C.ar   45  PHE45      -0.0003
     65  CE2       15.8910    5.1620  -20.0390 C.ar   45  PHE45      -0.0003
     66  CZ        16.2090    5.4030  -18.6970 C.ar   45  PHE45      -0.0000
     67  N         22.2930    2.4970  -19.1260 N.3    59  LYS59      -0.1245
     68  CA        21.3220    3.5550  -19.1060 C.3    59  LYS59       0.1561
     69  C         20.5940    3.6200  -17.7270 C.2    59  LYS59       0.2260
     70  O         20.2660    4.6930  -17.2610 O.2    59  LYS59      -0.2867
     71  CB        20.3770    3.4090  -20.2800 C.3    59  LYS59       0.0271
     72  CG        19.6110    4.6550  -20.5010 C.3    59  LYS59       0.0035
     73  CD        19.2970    4.6030  -22.0740 C.3    59  LYS59       0.0206
     74  CE        18.1910    5.5770  -22.6350 C.3    59  LYS59       0.1093
     75  NZ        17.4140    4.9540  -23.8360 N.3    59  LYS59      -0.1314
     76  N         20.7720    6.8250  -15.4620 N.3    63  HIS63      -0.1241
     77  CA        19.5650    7.4840  -15.0510 C.3    63  HIS63       0.1621
     78  C         19.4890    7.6180  -13.5300 C.2    63  HIS63       0.2264
     79  O         19.0080    8.6150  -12.9810 O.2    63  HIS63      -0.2867
     80  CB        18.2820    6.7230  -15.5980 C.3    63  HIS63       0.0745
     81  CG        17.0400    7.4340  -15.2440 C.ar   63  HIS63       0.0817
     82  ND1       16.7360    8.6710  -15.7680 N.ar   63  HIS63      -0.2268
     83  CD2       16.0340    7.1110  -14.3880 C.ar   63  HIS63       0.1154
     84  CE1       15.5920    9.0820  -15.2360 C.ar   63  HIS63       0.1986
     85  NE2       15.1280    8.1360  -14.4360 N.ar   63  HIS63      -0.2212
     86  N         21.0400   10.7000  -12.3110 N.3    66  LYS66      -0.1231
     87  CA        20.1340   11.8550  -12.4900 C.3    66  LYS66       0.1693
     88  C         19.0740   11.9060  -11.3860 C.2    66  LYS66       0.2591
     89  O         18.7460   12.9460  -10.8440 O.2    66  LYS66      -0.2718
     90  CB        19.4970   11.8290  -13.8740 C.3    66  LYS66       0.0285
     91  CG        20.5310   12.0630  -15.0010 C.3    66  LYS66       0.0035
     92  CD        22.0110   11.7880  -14.5540 C.3    66  LYS66       0.0206
     93  CE        22.9280   13.0220  -14.2980 C.3    66  LYS66       0.1093
     94  NZ        24.0150   12.9710  -15.3200 N.3    66  LYS66      -0.1314
     95  N         18.5080   10.7180  -11.0520 N.am   67  VAL67      -0.1980
     96  CA        17.5440   10.6830   -9.9970 C.3    67  VAL67       0.1595
     97  C         18.1050   11.1050   -8.6390 C.2    67  VAL67       0.2287
     98  O         17.4680   11.8760   -7.9070 O.2    67  VAL67      -0.2864
     99  CB        16.9550    9.2430   -9.9110 C.3    67  VAL67       0.0276
    100  CG1       15.9560    9.1220   -8.7220 C.3    67  VAL67       0.0022
    101  CG2       16.2600    8.9660  -11.2070 C.3    67  VAL67       0.0022
    102  N         18.5760   14.7370   -8.4130 N.3    70  SER70      -0.1202
    103  CA        17.2900   15.3810   -8.1940 C.3    70  SER70       0.2020
    104  C         16.8540   15.2920   -6.7640 C.2    70  SER70       0.2618
    105  O         16.3610   16.3110   -6.2050 O.2    70  SER70      -0.2717
    106  CB        16.2810   14.7110   -9.1340 C.3    70  SER70       0.2103
    107  OG        15.0140   15.3490   -8.9790 O.3    70  SER70      -0.2182
    108  N         17.0330   14.1500   -6.0950 N.am   71  PHE71      -0.1975
    109  CA        16.7940   14.0230   -4.6430 C.3    71  PHE71       0.1639
    110  C         17.6580   15.0650   -3.9330 C.2    71  PHE71       0.2290
    111  O         17.1800   15.7260   -3.0340 O.2    71  PHE71      -0.2864
    112  CB        17.2020   12.6380   -4.0600 C.3    71  PHE71       0.0560
    113  CG        16.1230   11.6070   -4.0270 C.ar   71  PHE71      -0.0200
    114  CD1       15.9980   10.6830   -5.0520 C.ar   71  PHE71      -0.0042
    115  CD2       15.2460   11.5490   -2.9450 C.ar   71  PHE71      -0.0042
    116  CE1       15.0130    9.6800   -4.9960 C.ar   71  PHE71      -0.0003
    117  CE2       14.2500   10.5330   -2.8560 C.ar   71  PHE71      -0.0003
    118  CZ        14.1100    9.6240   -3.9080 C.ar   71  PHE71      -0.0000
    119  N          9.7830   20.1700   -7.1280 N.3    85  PHE85      -0.1241
    120  CA         9.3870   18.9850   -7.8910 C.3    85  PHE85       0.1605
    121  C          8.1330   19.1050   -8.7590 C.2    85  PHE85       0.2264
    122  O          7.6850   18.1230   -9.3680 O.2    85  PHE85      -0.2867
    123  CB         9.2480   17.7690   -6.9570 C.3    85  PHE85       0.0534
    124  CG        10.5770   17.3230   -6.3860 C.ar   85  PHE85      -0.0203
    125  CD1       10.9240   17.6100   -5.0910 C.ar   85  PHE85      -0.0042
    126  CD2       11.4510   16.5910   -7.1750 C.ar   85  PHE85      -0.0042
    127  CE1       12.2130   17.2670   -4.5310 C.ar   85  PHE85      -0.0003
    128  CE2       12.7360   16.2000   -6.6530 C.ar   85  PHE85      -0.0003
    129  CZ        13.1010   16.5180   -5.3530 C.ar   85  PHE85      -0.0000
    130  N          8.5450   17.8780  -12.4190 N.3    88  LEU88      -0.1245
    131  CA         8.8110   16.4190  -12.4350 C.3    88  LEU88       0.1561
    132  C          7.5370   15.5570  -12.1180 C.2    88  LEU88       0.2260
    133  O          7.3040   14.4980  -12.7480 O.2    88  LEU88      -0.2867
    134  CB         9.9580   16.0940  -11.4470 C.3    88  LEU88       0.0270
    135  CG        11.3570   16.4300  -12.0280 C.3    88  LEU88       0.0019
    136  CD1       12.2900   16.3610  -10.8050 C.3    88  LEU88       0.0001
    137  CD2       11.7490   15.3950  -13.0660 C.3    88  LEU88       0.0001
    138  N          5.5500   15.4410  -15.1510 N.3    91  LEU91      -0.1231
    139  CA         6.1260   14.4550  -16.0320 C.3    91  LEU91       0.1693
    140  C          5.7380   13.0570  -15.5440 C.2    91  LEU91       0.2592
    141  O          5.3130   12.2540  -16.3400 O.2    91  LEU91      -0.2718
    142  CB         7.6690   14.5970  -16.0620 C.3    91  LEU91       0.0284
    143  CG         8.3830   13.5410  -16.8800 C.3    91  LEU91       0.0019
    144  CD1        8.2590   13.8320  -18.3560 C.3    91  LEU91       0.0001
    145  CD2        9.8630   13.5050  -16.3940 C.3    91  LEU91       0.0001
    146  N          5.9890   12.7860  -14.2610 N.am   92  HIS92      -0.1976
    147  CA         5.7180   11.4000  -13.7390 C.3    92  HIS92       0.1656
    148  C          4.2250   11.0390  -13.7700 C.2    92  HIS92       0.2291
    149  O          3.9120    9.8730  -14.0640 O.2    92  HIS92      -0.2864
    150  CB         6.3090   11.2920  -12.3450 C.3    92  HIS92       0.0771
    151  CG         7.8150   11.1360  -12.3670 C.ar   92  HIS92       0.0820
    152  ND1        8.6600   12.2270  -12.5260 N.ar   92  HIS92      -0.2267
    153  CD2        8.6210   10.0370  -12.3100 C.ar   92  HIS92       0.1154
    154  CE1        9.9210   11.8160  -12.5220 C.ar   92  HIS92       0.1986
    155  NE2        9.9360   10.4940  -12.3960 N.ar   92  HIS92      -0.2212
    156  N          4.3650    9.9100  -17.7470 N.3    96  LEU96      -0.1245
    157  CA         4.9610    8.6210  -17.4810 C.3    96  LEU96       0.1561
    158  C          3.9570    7.6890  -16.8090 C.2    96  LEU96       0.2260
    159  O          4.1410    6.4770  -16.9240 O.2    96  LEU96      -0.2867
    160  CB         6.2700    8.7410  -16.6520 C.3    96  LEU96       0.0270
    161  CG         7.4420    9.5840  -17.2200 C.3    96  LEU96       0.0019
    162  CD1        8.5470    9.7000  -16.2260 C.3    96  LEU96       0.0001
    163  CD2        7.9480    9.0740  -18.5160 C.3    96  LEU96       0.0001
    164  N          3.4090    6.9160  -13.6840 N.3    98  VAL98      -0.1245
    165  CA         3.9830    6.0580  -12.6790 C.3    98  VAL98       0.1561
    166  C          3.1070    6.1270  -11.4840 C.2    98  VAL98       0.2260
    167  O          2.8080    7.1970  -10.9350 O.2    98  VAL98      -0.2867
    168  CB         5.4010    6.5730  -12.2720 C.3    98  VAL98       0.0252
    169  CG1        5.9290    5.6430  -11.1750 C.3    98  VAL98       0.0019
    170  CG2        6.3120    6.5000  -13.3960 C.3    98  VAL98       0.0019
    171  N          5.1780    3.8270   -6.0940 N.3   102  ASN102     -0.1225
    172  CA         6.5610    3.5030   -6.4810 C.3   102  ASN102      0.1785
    173  C          7.5660    4.5410   -5.9870 C.2   102  ASN102      0.2597
    174  O          8.7450    4.2430   -5.8580 O.2   102  ASN102     -0.2718
    175  CB         6.6580    3.2690   -7.9480 C.3   102  ASN102      0.1169
    176  CG         5.8200    2.1270   -8.3400 C.2   102  ASN102      0.2627
    177  OD1        6.0920    0.9890   -7.9150 O.2   102  ASN102     -0.2716
    178  ND2        4.7160    2.4160   -9.0400 N.am  102  ASN102     -0.0877
    179  N          7.1270    5.7810   -5.7660 N.am  103  PHE103     -0.1976
    180  CA         8.0740    6.7840   -5.2440 C.3   103  PHE103      0.1639
    181  C          8.4980    6.4380   -3.8320 C.2   103  PHE103      0.2290
    182  O          9.6620    6.5970   -3.4290 O.2   103  PHE103     -0.2864
    183  CB         7.4630    8.2200   -5.2460 C.3   103  PHE103      0.0560
    184  CG         6.8870    8.6450   -6.5610 C.ar  103  PHE103     -0.0200
    185  CD1        7.4600    8.2740   -7.7740 C.ar  103  PHE103     -0.0042
    186  CD2        5.8180    9.5460   -6.6000 C.ar  103  PHE103     -0.0042
    187  CE1        6.9250    8.6640   -9.0360 C.ar  103  PHE103     -0.0003
    188  CE2        5.3270    9.9510   -7.8770 C.ar  103  PHE103     -0.0003
    189  CZ         5.8700    9.5550   -9.0540 C.ar  103  PHE103     -0.0000
    190  N         11.1090    3.6100   -4.1280 N.3   106  LEU106     -0.1245
    191  CA        12.4520    4.1130   -4.4390 C.3   106  LEU106      0.1561
    192  C         13.0930    4.8090   -3.2060 C.2   106  LEU106      0.2260
    193  O         14.2830    4.6610   -2.9350 O.2   106  LEU106     -0.2867
    194  CB        12.3890    5.0500   -5.5910 C.3   106  LEU106      0.0270
    195  CG        13.7640    5.6540   -6.0060 C.3   106  LEU106      0.0019
    196  CD1       14.7850    4.5480   -6.2220 C.3   106  LEU106      0.0001
    197  CD2       13.6320    6.4590   -7.2900 C.3   106  LEU106      0.0001
    198  N          9.9850   14.0990   -0.4460 N.3   137  VAL137     -0.1231
    199  CA        10.1890   14.0700   -1.8690 C.3   137  VAL137      0.1692
    200  C          9.1010   13.2750   -2.6050 C.2   137  VAL137      0.2591
    201  O          8.5880   13.6880   -3.6270 O.2   137  VAL137     -0.2718
    202  CB        11.6180   13.4760   -2.2100 C.3   137  VAL137      0.0266
    203  CG1       11.7780   13.2560   -3.7120 C.3   137  VAL137      0.0020
    204  CG2       12.6900   14.4080   -1.7020 C.3   137  VAL137      0.0020
    205  N          8.7280   12.0880   -2.0820 N.am  138  ALA138     -0.1980
    206  CA         7.6570   11.3270   -2.7010 C.3   138  ALA138      0.1597
    207  C          6.3230   12.0880   -2.7460 C.2   138  ALA138      0.2287
    208  O          5.6500   12.0240   -3.7690 O.2   138  ALA138     -0.2864
    209  CB         7.4950    9.9600   -1.9810 C.3   138  ALA138      0.0319
    210  N          6.6090   14.7830   -5.2840 N.3   141  LEU141     -0.1245
    211  CA         6.5020   14.2450   -6.5850 C.3   141  LEU141      0.1561
    212  C          5.0690   13.7620   -6.9540 C.2   141  LEU141      0.2260
    213  O          4.6900   13.6430   -8.1170 O.2   141  LEU141     -0.2867
    214  CB         7.5530   13.0870   -6.7800 C.3   141  LEU141      0.0270
    215  CG         7.9390   12.7630   -8.1970 C.3   141  LEU141      0.0019
    216  CD1        8.6810   13.8610   -8.9360 C.3   141  LEU141      0.0001
    217  CD2        8.8400   11.5210   -8.1980 C.3   141  LEU141      0.0001
@<TRIPOS>BOND
     1    49    48    2
     2    50    47    1
     3    50    51    1
     4    75    74    1
     5    47    48    1
     6    47    46    1
     7    48    56   am
     8    51    53   ar
     9    51    52   ar
    10    53    55   ar
    11    74    73    1
    12    58    59    2
    13    58    57    1
    14    56    57    1
    15    73    72    1
    16    57    60    1
    17    52    54   ar
    18    55    54   ar
    19    63    65   ar
    20    63    61   ar
    21    72    71    1
    22    60    61    1
    23    71    68    1
    24    65    66   ar
    25    38    37    2
    26    61    62   ar
    27    37    36    1
    28    67    68    1
    29    68    69    1
    30    66    64   ar
    31    27    26    2
    32   163   161    1
    33    36    35    1
    34    36    39    1
    35    62    64   ar
    36   144   143    1
    37    26    35   am
    38    26    25    1
    39   156   157    1
    40    69    70    2
    41   157   158    1
    42   157   160    1
    43    39    40    1
    44    25    24    1
    45    25    28    1
    46   161   160    1
    47   161   162    1
    48   159   158    2
    49   143   145    1
    50   143   142    1
    51    42    40   ar
    52    42    44   ar
    53   141   140    2
    54    40    41   ar
    55   142   139    1
    56   139   140    1
    57   139   138    1
    58    28    29    1
    59    31    29   ar
    60    31    33   ar
    61    82    81   ar
    62    82    84   ar
    63    80    81    1
    64    80    77    1
    65   140   146   am
    66    76    77    1
    67    44    45   ar
    68    94    93    1
    69    29    30   ar
    70    81    83   ar
    71    84    85   ar
    72    33    34   ar
    73    41    43   ar
    74    77    78    1
    75    91    92    1
    76    91    90    1
    77    92    93    1
    78    85    83   ar
    79   146   147    1
    80    45    43   ar
    81    30    32   ar
    82   149   148    2
    83    20    19    2
    84    34    32   ar
    85    90    87    1
    86   148   147    1
    87   147   150    1
    88   164   165    1
    89    78    79    2
    90    19    18    1
    91   170   168    1
    92   137   135    1
    93     8     6    1
    94   133   132    2
    95   165   168    1
    96   165   166    1
    97   152   154   ar
    98   152   151   ar
    99   154   155   ar
   100    87    86    1
   101    87    88    1
   102   131   130    1
   103   131   132    1
   104   131   134    1
   105   155   153   ar
   106   151   150    1
   107   151   153   ar
   108   168   169    1
   109    18    17    1
   110    18    21    1
   111   135   134    1
   112   135   136    1
   113     6     7    1
   114     6     5    1
   115   166   167    2
   116    88    95   am
   117    88    89    2
   118   101    99    1
   119    95    96    1
   120    21    22    1
   121    21    23    1
   122     5     2    1
   123    96    99    1
   124    96    97    1
   125     4     3    2
   126    99   100    1
   127     3     2    1
   128     2     1    1
   129   122   121    2
   130   106   107    1
   131   106   103    1
   132   189   187   ar
   133   189   188   ar
   134   178   176   am
   135   187   185   ar
   136    16    14    1
   137   216   215    1
   138   121   120    1
   139    97    98    2
   140    11    12    2
   141    11    10    1
   142   102   103    1
   143   176   175    1
   144   176   177    2
   145   217   215    1
   146   215   214    1
   147   103   104    1
   148   213   212    2
   149    14    13    1
   150    14    15    1
   151   175   172    1
   152   120   119    1
   153   120   123    1
   154   188   186   ar
   155    13    10    1
   156   185   184   ar
   157    10     9    1
   158   197   195    1
   159   126   128   ar
   160   126   124   ar
   161   123   124    1
   162   212   211    1
   163   214   211    1
   164   104   105    2
   165   104   108   am
   166   128   129   ar
   167   186   184   ar
   168   211   210    1
   169   184   183    1
   170   172   171    1
   171   172   173    1
   172   124   125   ar
   173   196   195    1
   174   108   109    1
   175   195   194    1
   176   173   174    2
   177   173   179   am
   178   179   180    1
   179   194   191    1
   180   129   127   ar
   181   183   180    1
   182   180   181    1
   183   125   127   ar
   184   114   116   ar
   185   114   113   ar
   186   116   118   ar
   187   109   112    1
   188   109   110    1
   189   191   190    1
   190   191   192    1
   191   112   113    1
   192   113   115   ar
   193   110   111    2
   194   118   117   ar
   195   181   182    2
   196   208   207    2
   197   203   202    1
   198   201   200    2
   199   192   193    2
   200   115   117   ar
   201   207   206    1
   202   206   205    1
   203   206   209    1
   204   200   205   am
   205   200   199    1
   206   202   199    1
   207   202   204    1
   208   199   198    1
