@<TRIPOS>MOLECULE
tmp/3vrhA00.pdb
 89 81 0 0 0
SMALL
GASTEIGER

@<TRIPOS>ATOM
      1  N         17.2960   -7.9610    3.9300 N.3    53  ALA53      -0.1245
      2  CA        18.6470   -7.5000    4.2450 C.3    53  ALA53       0.1562
      3  C         19.4920   -8.7220    4.4480 C.2    53  ALA53       0.2260
      4  O         19.3150   -9.4300    5.4290 O.2    53  ALA53      -0.2867
      5  CB        18.6460   -6.6480    5.5220 C.3    53  ALA53       0.0290
      6  N         22.9190  -10.4640    5.2750 N.3    55  SER55      -0.1217
      7  CA        24.2330  -10.2530    5.8870 C.3    55  SER55       0.1889
      8  C         25.2590  -11.2590    5.3820 C.2    55  SER55       0.2288
      9  O         26.4530  -11.1020    5.6130 O.2    55  SER55      -0.2866
     10  CB        24.1150  -10.4410    7.4000 C.3    55  SER55       0.2089
     11  OG        23.6780  -11.7770    7.6600 O.3    55  SER55      -0.2183
     12  N         24.7820  -14.2220    6.6100 N.3    57  GLY57      -0.1225
     13  CA        24.4440  -15.1880    7.6580 C.3    57  GLY57       0.1811
     14  C         23.3410  -16.1340    7.2160 C.2    57  GLY57       0.2280
     15  O         22.6710  -15.8950    6.2040 O.2    57  GLY57      -0.2866
     16  N         20.4190  -16.8270    8.4860 N.3    59  ASP59      -0.1225
     17  CA        19.0330  -16.4880    8.8050 C.3    59  ASP59       0.1805
     18  C         18.3830  -15.6160    7.7310 C.2    59  ASP59       0.2598
     19  O         17.2860  -15.9050    7.2650 O.2    59  ASP59      -0.2718
     20  CB        18.9540  -15.8340   10.1850 C.3    59  ASP59       0.1424
     21  CG        19.5920  -16.7100   11.2720 C.2    59  ASP59       0.3668
     22  OD1       18.9900  -17.7510   11.6120 O.co2  59  ASP59      -0.2456
     23  OD2       20.7040  -16.3980   11.7390 O.co2  59  ASP59      -0.2456
     24  N         19.0720  -14.5510    7.3490 N.am   60  SER60      -0.1952
     25  CA        18.6100  -13.7240    6.2630 C.3    60  SER60       0.1924
     26  C         18.6760  -14.4880    4.9370 C.2    60  SER60       0.2314
     27  O         17.8420  -14.2800    4.0600 O.2    60  SER60      -0.2863
     28  CB        19.4190  -12.4270    6.2040 C.3    60  SER60       0.2116
     29  OG        20.8090  -12.6800    6.2010 O.3    60  SER60      -0.2180
     30  N         23.1750    0.0580   10.4660 N.3   135  LYS135     -0.1245
     31  CA        22.5800   -0.9210    9.5720 C.3   135  LYS135      0.1561
     32  C         21.0510   -0.7630    9.4810 C.2   135  LYS135      0.2260
     33  O         20.4700   -0.8390    8.3890 O.2   135  LYS135     -0.2867
     34  CB        22.9690   -2.3460    9.9870 C.3   135  LYS135      0.0271
     35  CG        22.4300   -3.4140    9.0320 C.3   135  LYS135      0.0035
     36  CD        22.6800   -4.8570    9.5490 C.3   135  LYS135      0.0206
     37  CE        22.1390   -5.9000    8.5510 C.3   135  LYS135      0.1093
     38  NZ        22.3280   -7.3220    8.9750 N.3   135  LYS135     -0.1314
     39  N         18.9760    0.1450    6.0520 N.3   139  MET139     -0.1245
     40  CA        17.9660   -0.7940    5.5760 C.3   139  MET139      0.1570
     41  C         16.6730   -0.0410    5.3330 C.2   139  MET139      0.2261
     42  O         16.0280   -0.2110    4.3030 O.2   139  MET139     -0.2867
     43  CB        17.6770   -1.9050    6.5950 C.3   139  MET139      0.0387
     44  CG        18.7300   -2.9880    6.7170 C.3   139  MET139      0.0595
     45  SD        18.4090   -3.9140    8.2370 S.3   139  MET139     -0.1393
     46  CE        16.7320   -4.4360    7.9320 C.3   139  MET139      0.0692
     47  N         11.8190   -7.6980    5.2170 N.3   152  ALA152     -0.1231
     48  CA        11.7700   -8.9560    5.9610 C.3   152  ALA152      0.1694
     49  C         13.1560   -9.2690    6.5320 C.2   152  ALA152      0.2593
     50  O         14.1500   -9.1920    5.8080 O.2   152  ALA152     -0.2718
     51  CB        11.3000  -10.0810    5.0660 C.3   152  ALA152      0.0304
     52  N         13.2160   -9.5910    7.8300 N.am  153  THR153     -0.1939
     53  CA        14.4590  -10.0100    8.4720 C.3   153  THR153      0.2028
     54  C         14.4000  -11.4920    8.8810 C.2   153  THR153      0.2643
     55  O         13.3510  -12.1240    8.7970 O.2   153  THR153     -0.2714
     56  CB        14.7980   -9.1180    9.6760 C.3   153  THR153      0.1808
     57  OG1       13.8000   -9.2830   10.6790 O.3   153  THR153     -0.2208
     58  CG2       14.8460   -7.6450    9.2620 C.3   153  THR153      0.0379
     59  N         15.5300  -12.0420    9.3040 N.am  154  GLY154     -0.1939
     60  CA        15.6710  -13.4740    9.5100 C.3   154  GLY154      0.2014
     61  C         15.5730  -13.9620   10.9550 C.2   154  GLY154      0.2638
     62  O         15.8200  -15.1320   11.2320 O.2   154  GLY154     -0.2714
     63  N         15.2030  -13.0670   11.8650 N.am  155  HIS155     -0.1973
     64  CA        14.9890  -13.4150   13.2710 C.3   155  HIS155      0.1656
     65  C         14.0660  -14.6070   13.4200 C.2   155  HIS155      0.2291
     66  O         12.9410  -14.6080   12.9260 O.2   155  HIS155     -0.2864
     67  CB        14.3770  -12.2340   14.0230 C.3   155  HIS155      0.0771
     68  CG        15.2240  -11.0000   14.0160 C.ar  155  HIS155      0.0820
     69  ND1       15.4060  -10.2260   12.8890 N.ar  155  HIS155     -0.2267
     70  CD2       15.9220  -10.3920   15.0070 C.ar  155  HIS155      0.1154
     71  CE1       16.1920   -9.2030   13.1810 C.ar  155  HIS155      0.1986
     72  NE2       16.5200   -9.2800   14.4590 N.ar  155  HIS155     -0.2212
     73  N         16.0280  -16.3230   18.3430 N.3   159  ASP159     -0.1239
     74  CA        16.3780  -14.9040   18.4160 C.3   159  ASP159      0.1674
     75  C         15.3960  -14.1080   19.2580 C.2   159  ASP159      0.2266
     76  O         15.8120  -13.3580   20.1460 O.2   159  ASP159     -0.2867
     77  CB        16.4880  -14.2920   17.0200 C.3   159  ASP159      0.1410
     78  CG        17.5310  -14.9880   16.1820 C.2   159  ASP159      0.3668
     79  OD1       18.6160  -15.2360   16.7410 O.co2 159  ASP159     -0.2456
     80  OD2       17.2600  -15.3290   15.0050 O.co2 159  ASP159     -0.2456
     81  N         28.4420  -11.7360   11.5700 N.3   219  GLU219     -0.1245
     82  CA        28.3750  -10.5300   10.7450 C.3   219  GLU219      0.1567
     83  C         29.3440   -9.4590   11.2600 C.2   219  GLU219      0.2260
     84  O         30.1900   -8.9640   10.5190 O.2   219  GLU219     -0.2867
     85  CB        26.9400   -9.9890   10.7210 C.3   219  GLU219      0.0388
     86  CG        26.7720   -8.7070    9.9270 C.3   219  GLU219      0.1160
     87  CD        25.3240   -8.2130    9.8990 C.2   219  GLU219      0.3649
     88  OE1       24.4700   -8.7750   10.6350 O.co2 219  GLU219     -0.2457
     89  OE2       25.0410   -7.2670    9.1250 O.co2 219  GLU219     -0.2457
@<TRIPOS>BOND
     1     1     2    1
     2    27    26    2
     3     2     3    1
     4     2     5    1
     5    42    41    2
     6     3     4    2
     7    26    25    1
     8    51    48    1
     9    47    48    1
    10     6     7    1
    11    41    40    1
    12     8     9    2
    13     8     7    1
    14    40    39    1
    15    40    43    1
    16    50    49    2
    17     7    10    1
    18    48    49    1
    19    29    28    1
    20    15    14    2
    21    28    25    1
    22    25    24    1
    23    49    52   am
    24    43    44    1
    25    12    13    1
    26    44    45    1
    27    14    13    1
    28    19    18    2
    29    24    18   am
    30    10    11    1
    31    18    17    1
    32    52    53    1
    33    46    45    1
    34    33    32    2
    35    53    54    1
    36    53    56    1
    37    16    17    1
    38    37    38    1
    39    37    36    1
    40    55    54    2
    41    17    20    1
    42    54    59   am
    43    35    36    1
    44    35    34    1
    45    89    87   ar
    46    58    56    1
    47    59    60    1
    48    32    31    1
    49    60    61    1
    50    31    34    1
    51    31    30    1
    52    56    57    1
    53    87    86    1
    54    87    88   ar
    55    86    85    1
    56    20    21    1
    57    84    83    2
    58    85    82    1
    59    82    83    1
    60    82    81    1
    61    61    62    2
    62    61    63   am
    63    21    22   ar
    64    21    23   ar
    65    63    64    1
    66    69    71   ar
    67    69    68   ar
    68    66    65    2
    69    71    72   ar
    70    64    65    1
    71    64    67    1
    72    68    67    1
    73    68    70   ar
    74    72    70   ar
    75    80    78   ar
    76    78    79   ar
    77    78    77    1
    78    77    74    1
    79    73    74    1
    80    74    75    1
    81    75    76    2
