@<TRIPOS>MOLECULE
tmp/3vryA00.pdb
 169 157 0 0 0
SMALL
GASTEIGER

@<TRIPOS>ATOM
      1  N          3.4470  -14.3830    5.4270 N.3   183  LEU183     -0.1231
      2  CA         4.5290  -14.6070    6.3680 C.3   183  LEU183      0.1693
      3  C          4.2530  -15.7820    7.3070 C.2   183  LEU183      0.2592
      4  O          5.1790  -16.4330    7.8100 O.2   183  LEU183     -0.2718
      5  CB         4.7520  -13.3300    7.1730 C.3   183  LEU183      0.0284
      6  CG         5.0680  -12.0870    6.3410 C.3   183  LEU183      0.0019
      7  CD1        5.1680  -10.8660    7.2360 C.3   183  LEU183      0.0001
      8  CD2        6.3700  -12.3030    5.5680 C.3   183  LEU183      0.0001
      9  N          2.9750  -16.0350    7.5580 N.am  184  GLY184     -0.1957
     10  CA         2.5740  -17.0850    8.4750 C.3   184  GLY184      0.1869
     11  C          1.1280  -17.4760    8.2250 C.2   184  GLY184      0.2309
     12  O          0.3050  -16.6630    7.8050 O.2   184  GLY184     -0.2863
     13  N         -0.8910  -14.1260    8.2500 N.3   191  VAL191     -0.1245
     14  CA        -0.1990  -12.8570    8.4170 C.3   191  VAL191      0.1561
     15  C          0.5540  -12.5660    7.1250 C.2   191  VAL191      0.2260
     16  O          1.2150  -13.4470    6.5560 O.2   191  VAL191     -0.2867
     17  CB         0.7840  -12.8900    9.6080 C.3   191  VAL191      0.0252
     18  CG1        1.7150  -11.6690    9.5920 C.3   191  VAL191      0.0019
     19  CG2        0.0370  -12.9820   10.9190 C.3   191  VAL191      0.0019
     20  N          2.1760   -4.8610    8.3010 N.3   203  ALA203     -0.1231
     21  CA         1.8020   -6.2740    8.3550 C.3   203  ALA203      0.1694
     22  C          0.3000   -6.3350    8.4980 C.2   203  ALA203      0.2592
     23  O         -0.3170   -5.3880    9.0010 O.2   203  ALA203     -0.2718
     24  CB         2.4560   -6.9810    9.5110 C.3   203  ALA203      0.0304
     25  N         -0.2940   -7.4340    8.0460 N.am  204  VAL204     -0.1966
     26  CA        -1.7430   -7.5840    8.1380 C.3   204  VAL204      0.1727
     27  C         -2.0390   -8.9640    8.6860 C.2   204  VAL204      0.2616
     28  O         -1.5470   -9.9600    8.1690 O.2   204  VAL204     -0.2715
     29  CB        -2.4600   -7.4190    6.7350 C.3   204  VAL204      0.0290
     30  CG1       -3.9760   -7.4110    6.8820 C.3   204  VAL204      0.0023
     31  CG2       -2.0430   -6.1670    6.0220 C.3   204  VAL204      0.0023
     32  N         -2.8260   -9.0260    9.7470 N.am  205  LYS205     -0.1977
     33  CA        -3.3640  -10.3080   10.1700 C.3   205  LYS205      0.1596
     34  C         -4.7900  -10.4530    9.6480 C.2   205  LYS205      0.2287
     35  O         -5.7040   -9.7080   10.0240 O.2   205  LYS205     -0.2864
     36  CB        -3.3290  -10.4690   11.6890 C.3   205  LYS205      0.0298
     37  CG        -3.7930  -11.8450   12.1730 C.3   205  LYS205      0.0038
     38  CD        -3.5360  -12.0830   13.6790 C.3   205  LYS205      0.0206
     39  CE        -2.0860  -12.4860   13.9400 C.3   205  LYS205      0.1093
     40  NZ        -1.9680  -13.3840   15.1320 N.3   205  LYS205     -0.1314
     41  N         -7.5010   -2.5860   22.1740 N.3   224  MET224     -0.1245
     42  CA        -6.1580   -2.9000   21.7160 C.3   224  MET224      0.1570
     43  C         -5.4580   -1.6360   21.2270 C.2   224  MET224      0.2261
     44  O         -4.3330   -1.3530   21.6330 O.2   224  MET224     -0.2867
     45  CB        -6.2050   -3.9570   20.6120 C.3   224  MET224      0.0387
     46  CG        -6.9690   -5.2170   21.0030 C.3   224  MET224      0.0595
     47  SD        -7.0480   -6.4540   19.6680 S.3   224  MET224     -0.1393
     48  CE        -7.6540   -7.9150   20.5450 C.3   224  MET224      0.0692
     49  N          3.3990   -4.2710   19.9050 N.3   233  VAL233     -0.1245
     50  CA         3.3250   -3.9820   18.4870 C.3   233  VAL233      0.1561
     51  C          2.2210   -2.9410   18.3280 C.2   233  VAL233      0.2260
     52  O          1.2000   -2.9860   19.0270 O.2   233  VAL233     -0.2867
     53  CB         3.0700   -5.2420   17.6300 C.3   233  VAL233      0.0252
     54  CG1        1.6640   -5.7460   17.8290 C.3   233  VAL233      0.0019
     55  CG2        3.3370   -4.9480   16.1350 C.3   233  VAL233      0.0019
     56  N         -0.8740   -1.1290   16.6320 N.3   235  LEU235     -0.1245
     57  CA        -1.9900   -1.2410   15.6760 C.3   235  LEU235      0.1561
     58  C         -2.1860    0.0650   14.9190 C.2   235  LEU235      0.2260
     59  O         -2.3050    1.1220   15.5330 O.2   235  LEU235     -0.2867
     60  CB        -3.3080   -1.6300   16.3570 C.3   235  LEU235      0.0270
     61  CG        -3.3590   -3.0590   16.9100 C.3   235  LEU235      0.0019
     62  CD1       -2.6450   -3.1310   18.2700 C.3   235  LEU235      0.0001
     63  CD2       -4.7940   -3.6330   16.9760 C.3   235  LEU235      0.0001
     64  N         -6.3680   -7.0050   10.4060 N.3   246  ILE246     -0.1245
     65  CA        -5.7550   -6.1020   11.3850 C.3   246  ILE246      0.1561
     66  C         -4.4190   -5.5980   10.8550 C.2   246  ILE246      0.2260
     67  O         -3.5580   -6.4020   10.4870 O.2   246  ILE246     -0.2867
     68  CB        -5.4780   -6.8220   12.7120 C.3   246  ILE246      0.0252
     69  CG1       -6.7570   -7.4190   13.2820 C.3   246  ILE246      0.0019
     70  CG2       -4.7890   -5.8820   13.7060 C.3   246  ILE246      0.0019
     71  CD1       -6.5000   -8.6510   14.1160 C.3   246  ILE246      0.0001
     72  N         -0.8280   -3.5690   11.2670 N.3   248  THR248     -0.1203
     73  CA         0.1660   -3.1910   12.2730 C.3   248  THR248      0.1994
     74  C          1.5010   -2.8130   11.6460 C.2   248  THR248      0.2618
     75  O          1.7330   -3.0150   10.4520 O.2   248  THR248     -0.2717
     76  CB         0.4800   -4.3630   13.2290 C.3   248  THR248      0.1784
     77  OG1        1.4330   -5.2540   12.6200 O.3   248  THR248     -0.2211
     78  CG2       -0.7780   -5.1160   13.6130 C.3   248  THR248      0.0376
     79  N          2.3890   -2.2700   12.4630 N.am  249  GLU249     -0.1965
     80  CA         3.7410   -2.0130   11.9980 C.3   249  GLU249      0.1733
     81  C          4.3650   -3.3440   11.6180 C.2   249  GLU249      0.2616
     82  O          4.0570   -4.3900   12.2190 O.2   249  GLU249     -0.2715
     83  CB         4.5720   -1.3100   13.0680 C.3   249  GLU249      0.0429
     84  CG         4.4270   -1.8830   14.4490 C.3   249  GLU249      0.1163
     85  CD         5.2970   -1.1670   15.4660 C.2   249  GLU249      0.3649
     86  OE1        6.1780   -0.3900   15.0400 O.co2 249  GLU249     -0.2457
     87  OE2        5.1090   -1.3910   16.6890 O.co2 249  GLU249     -0.2457
     88  N          5.2010   -3.3040   10.5870 N.am  250  PHE250     -0.1960
     89  CA         5.9580   -4.4780   10.1720 C.3   250  PHE250      0.1771
     90  C          7.1680   -4.6670   11.1010 C.2   250  PHE250      0.2619
     91  O          7.8240   -3.6980   11.4840 O.2   250  PHE250     -0.2715
     92  CB         6.4230   -4.3070    8.7300 C.3   250  PHE250      0.0574
     93  CG         7.1640   -5.4890    8.1930 C.ar  250  PHE250     -0.0200
     94  CD1        6.4790   -6.6350    7.8150 C.ar  250  PHE250     -0.0042
     95  CD2        8.5430   -5.4590    8.0500 C.ar  250  PHE250     -0.0042
     96  CE1        7.1500   -7.7390    7.3030 C.ar  250  PHE250     -0.0003
     97  CE2        9.2210   -6.5620    7.5420 C.ar  250  PHE250     -0.0003
     98  CZ         8.5180   -7.7030    7.1620 C.ar  250  PHE250     -0.0000
     99  N          7.4800   -5.9070   11.4400 N.am  251  MET251     -0.1977
    100  CA         8.6320   -6.1790   12.2890 C.3   251  MET251      0.1605
    101  C          9.6580   -7.0080   11.5310 C.2   251  MET251      0.2287
    102  O          9.4580   -8.2050   11.2780 O.2   251  MET251     -0.2864
    103  CB         8.1700   -6.8430   13.5880 C.3   251  MET251      0.0413
    104  CG         7.3950   -5.8790   14.5080 C.3   251  MET251      0.0598
    105  SD         8.5020   -4.8220   15.4850 S.3   251  MET251     -0.1393
    106  CE         8.5910   -3.3510   14.4870 C.3   251  MET251      0.0692
    107  N         10.5690  -10.7110   12.3080 N.3   254  GLY254     -0.1210
    108  CA         9.5620  -11.7340   12.5390 C.3   254  GLY254      0.1956
    109  C          9.3850  -12.0980   14.0080 C.2   254  GLY254      0.2612
    110  O          9.4230  -11.2210   14.8810 O.2   254  GLY254     -0.2717
    111  N          9.1800  -13.3850   14.3010 N.am  255  SER255     -0.1952
    112  CA         8.8770  -13.7700   15.6720 C.3   255  SER255      0.1924
    113  C         10.1500  -14.0510   16.4200 C.2   255  SER255      0.2314
    114  O         11.1430  -14.5170   15.8390 O.2   255  SER255     -0.2863
    115  CB         7.9670  -14.9890   15.7370 C.3   255  SER255      0.2116
    116  OG         8.6490  -16.1910   15.3860 O.3   255  SER255     -0.2180
    117  N         11.2060  -17.6610   15.9590 N.3   258  ASP258     -0.1239
    118  CA        11.9310  -17.8900   14.7160 C.3   258  ASP258      0.1674
    119  C         13.3250  -17.2340   14.7220 C.2   258  ASP258      0.2266
    120  O         14.3090  -17.7980   14.2120 O.2   258  ASP258     -0.2867
    121  CB        11.0900  -17.4420   13.5130 C.3   258  ASP258      0.1410
    122  CG         9.9160  -18.3620   13.2520 C.2   258  ASP258      0.3668
    123  OD1       10.0900  -19.5960   13.3950 O.co2 258  ASP258     -0.2456
    124  OD2        8.8170  -17.8600   12.9120 O.co2 258  ASP258     -0.2456
    125  N          6.2620  -17.1130   20.3350 N.3   300  ALA300     -0.1245
    126  CA         5.6380  -16.9730   19.0280 C.3   300  ALA300      0.1562
    127  C          4.8860  -15.6610   18.9640 C.2   300  ALA300      0.2260
    128  O          4.7300  -15.1130   17.8790 O.2   300  ALA300     -0.2867
    129  CB         4.7000  -18.1580   18.6950 C.3   300  ALA300      0.0290
    130  N          7.3730  -10.1020   18.7320 N.3   303  LEU303     -0.1245
    131  CA         7.9790   -9.7920   17.4690 C.3   303  LEU303      0.1561
    132  C          9.3150   -9.1070   17.7360 C.2   303  LEU303      0.2260
    133  O          9.5650   -8.6050   18.8530 O.2   303  LEU303     -0.2867
    134  CB         7.0340   -8.9160   16.6490 C.3   303  LEU303      0.0270
    135  CG         5.7530   -9.6550   16.2450 C.3   303  LEU303      0.0019
    136  CD1        4.7580   -8.7120   15.6130 C.3   303  LEU303      0.0001
    137  CD2        6.0700  -10.8440   15.3300 C.3   303  LEU303      0.0001
    138  N          2.8300   -9.0240   20.6440 N.3   313  ALA313     -0.1231
    139  CA         1.7540   -9.0400   19.6610 C.3   313  ALA313      0.1694
    140  C          0.5960   -9.9030   20.1730 C.2   313  ALA313      0.2592
    141  O          0.7550  -10.6240   21.1630 O.2   313  ALA313     -0.2718
    142  CB         2.2600   -9.5440   18.3070 C.3   313  ALA313      0.0304
    143  N         -0.5550   -9.8240   19.5010 N.am  314  ASP314     -0.1960
    144  CA        -1.6970  -10.6780   19.8120 C.3   314  ASP314      0.1840
    145  C         -2.1980  -10.4780   21.2350 C.2   314  ASP314      0.2622
    146  O         -2.6520  -11.4260   21.8720 O.2   314  ASP314     -0.2715
    147  CB        -1.3490  -12.1680   19.6020 C.3   314  ASP314      0.1450
    148  CG        -1.5070  -12.6340   18.1430 C.2   314  ASP314      0.3671
    149  OD1       -1.6930  -11.7840   17.2340 O.co2 314  ASP314     -0.2456
    150  OD2       -1.4100  -13.8640   17.9100 O.co2 314  ASP314     -0.2456
    151  N         -2.1000   -9.2640   21.7640 N.am  315  PHE315     -0.1974
    152  CA        -2.5660   -9.0730   23.1380 C.3   315  PHE315      0.1639
    153  C         -4.0830   -8.9470   23.2150 C.2   315  PHE315      0.2290
    154  O         -4.6910   -8.0990   22.5300 O.2   315  PHE315     -0.2864
    155  CB        -1.9000   -7.8800   23.8160 C.3   315  PHE315      0.0560
    156  CG        -1.6430   -6.7310   22.9040 C.ar  315  PHE315     -0.0200
    157  CD1       -2.6140   -5.7640   22.6960 C.ar  315  PHE315     -0.0042
    158  CD2       -0.4220   -6.6090   22.2510 C.ar  315  PHE315     -0.0042
    159  CE1       -2.3740   -4.6830   21.8430 C.ar  315  PHE315     -0.0003
    160  CE2       -0.1720   -5.5300   21.3970 C.ar  315  PHE315     -0.0003
    161  CZ        -1.1480   -4.5590   21.1940 C.ar  315  PHE315     -0.0000
    162  N         -6.1320  -10.9340   22.0970 N.3   317  LEU317     -0.1245
    163  CA        -6.7280  -11.5980   20.9570 C.3   317  LEU317      0.1561
    164  C         -7.4370  -12.8980   21.3470 C.2   317  LEU317      0.2260
    165  O         -8.4730  -13.2390   20.7760 O.2   317  LEU317     -0.2867
    166  CB        -5.6680  -11.8920   19.8940 C.3   317  LEU317      0.0270
    167  CG        -6.2350  -12.1680   18.5090 C.3   317  LEU317      0.0019
    168  CD1       -7.0500  -10.9580   18.0530 C.3   317  LEU317      0.0001
    169  CD2       -5.1110  -12.4750   17.5380 C.3   317  LEU317      0.0001
@<TRIPOS>BOND
     1     1     2    1
     2     8     6    1
     3    31    29    1
     4     6     5    1
     5     6     7    1
     6     2     5    1
     7     2     3    1
     8    16    15    2
     9    29    30    1
    10    29    26    1
    11    15    14    1
    12    98    96   ar
    13    98    97   ar
    14    96    94   ar
    15     3     9   am
    16     3     4    2
    17    97    95   ar
    18     9    10    1
    19    12    11    2
    20    94    93   ar
    21    25    26    1
    22    25    22   am
    23    95    93   ar
    24    26    27    1
    25    28    27    2
    26    93    92    1
    27    11    10    1
    28    13    14    1
    29    20    21    1
    30    21    22    1
    31    21    24    1
    32    14    17    1
    33    22    23    2
    34    27    32   am
    35    92    89    1
    36    18    17    1
    37    17    19    1
    38    34    35    2
    39    34    33    1
    40    32    33    1
    41    33    36    1
    42    89    88    1
    43    89    90    1
    44    64    65    1
    45    75    74    2
    46    67    66    2
    47    88    81   am
    48    66    65    1
    49    90    99   am
    50    90    91    2
    51    72    73    1
    52   102   101    2
    53    65    68    1
    54    99   100    1
    55   101   100    1
    56    81    80    1
    57    81    82    2
    58    74    73    1
    59    74    79   am
    60    36    37    1
    61    80    79    1
    62    80    83    1
    63    37    38    1
    64    73    76    1
    65   100   103    1
    66   107   108    1
    67   108   109    1
    68    77    76    1
    69    68    69    1
    70    68    70    1
    71   124   122   ar
    72    83    84    1
    73    76    78    1
    74   122   123   ar
    75   122   121    1
    76    69    71    1
    77   121   118    1
    78   103   104    1
    79    38    39    1
    80    39    40    1
    81   109   111   am
    82   109   110    2
    83   120   119    2
    84   111   112    1
    85    84    85    1
    86   106   105    1
    87   104   105    1
    88   118   119    1
    89   118   117    1
    90    58    59    2
    91    58    57    1
    92    86    85   ar
    93   137   135    1
    94   116   115    1
    95    85    87   ar
    96   136   135    1
    97   112   115    1
    98   112   113    1
    99    57    60    1
   100    57    56    1
   101   114   113    2
   102    55    53    1
   103   135   134    1
   104    60    61    1
   105   134   131    1
   106    61    63    1
   107    61    62    1
   108   149   148   ar
   109   131   132    1
   110   131   130    1
   111   169   167    1
   112    53    54    1
   113    53    50    1
   114   132   133    2
   115   128   127    2
   116   150   148   ar
   117   168   167    1
   118   148   147    1
   119   142   139    1
   120    51    50    1
   121    51    52    2
   122    50    49    1
   123   167   166    1
   124   129   126    1
   125   127   126    1
   126   126   125    1
   127   143   144    1
   128   143   140   am
   129   147   144    1
   130   139   140    1
   131   139   138    1
   132    47    48    1
   133    47    46    1
   134   144   145    1
   135   166   163    1
   136   140   141    2
   137    45    46    1
   138    45    42    1
   139   165   164    2
   140   163   164    1
   141   163   162    1
   142   161   160   ar
   143   161   159   ar
   144    43    44    2
   145    43    42    1
   146   145   151   am
   147   145   146    2
   148   160   158   ar
   149    42    41    1
   150   151   152    1
   151   159   157   ar
   152   158   156   ar
   153   154   153    2
   154   157   156   ar
   155   156   155    1
   156   152   153    1
   157   152   155    1
