@<TRIPOS>MOLECULE
tmp/3vrzA00.pdb
 205 190 0 0 0
SMALL
GASTEIGER

@<TRIPOS>ATOM
      1  N          8.9500   -1.0640   -2.0500 N.3   185  LEU185     -0.1231
      2  CA         9.1900   -1.9830   -3.1540 C.3   185  LEU185      0.1693
      3  C         10.3500   -1.4960   -3.9980 C.2   185  LEU185      0.2592
      4  O         11.1200   -2.2920   -4.5360 O.2   185  LEU185     -0.2718
      5  CB         7.9350   -2.1110   -4.0190 C.3   185  LEU185      0.0284
      6  CG         6.6730   -2.5920   -3.3070 C.3   185  LEU185      0.0019
      7  CD1        5.4910   -2.6430   -4.2720 C.3   185  LEU185      0.0001
      8  CD2        6.9120   -3.9500   -2.6770 C.3   185  LEU185      0.0001
      9  N         10.4710   -0.1780   -4.1060 N.am  186  GLY186     -0.1957
     10  CA        11.4750    0.4340   -4.9540 C.3   186  GLY186      0.1869
     11  C         11.7600    1.8480   -4.4940 C.2   186  GLY186      0.2309
     12  O         10.9250    2.4790   -3.8360 O.2   186  GLY186     -0.2863
     13  N          8.3690    3.7540   -4.1820 N.3   193  VAL193     -0.1245
     14  CA         7.1420    3.0170   -4.4440 C.3   193  VAL193      0.1561
     15  C          6.9190    2.0300   -3.3030 C.2   193  VAL193      0.2260
     16  O          7.8550    1.3610   -2.8610 O.2   193  VAL193     -0.2867
     17  CB         7.1780    2.3080   -5.8230 C.3   193  VAL193      0.0252
     18  CG1        6.0730    1.2720   -5.9280 C.3   193  VAL193      0.0019
     19  CG2        7.0400    3.3250   -6.9460 C.3   193  VAL193      0.0019
     20  N         -0.6440    0.2230   -4.6380 N.3   205  ALA205     -0.1245
     21  CA         0.7310    0.6870   -4.7000 C.3   205  ALA205      0.1562
     22  C          0.7170    2.1960   -4.5500 C.2   205  ALA205      0.2260
     23  O         -0.1760    2.8690   -5.0770 O.2   205  ALA205     -0.2867
     24  CB         1.3750    0.2970   -6.0110 C.3   205  ALA205      0.0290
     25  N          3.2020    5.5480   -5.1380 N.3   207  LYS207     -0.1245
     26  CA         4.4260    6.2240   -5.5530 C.3   207  LYS207      0.1561
     27  C          4.5460    7.5560   -4.8150 C.2   207  LYS207      0.2260
     28  O          3.6810    8.4250   -4.9390 O.2   207  LYS207     -0.2867
     29  CB         4.4530    6.4430   -7.0700 C.3   207  LYS207      0.0271
     30  CG         5.5640    7.3790   -7.5320 C.3   207  LYS207      0.0035
     31  CD         5.8480    7.2660   -9.0330 C.3   207  LYS207      0.0206
     32  CE         6.9450    6.2440   -9.3160 C.3   207  LYS207      0.1093
     33  NZ         7.4990    6.3440  -10.7070 N.3   207  LYS207     -0.1314
     34  N          6.2800   11.1320   -4.1780 N.3   209  MET209     -0.1245
     35  CA         6.9930   12.1200   -4.9880 C.3   209  MET209      0.1570
     36  C          7.8130   13.0940   -4.1430 C.2   209  MET209      0.2261
     37  O          7.2630   13.8160   -3.3020 O.2   209  MET209     -0.2867
     38  CB         6.0040   12.9110   -5.8460 C.3   209  MET209      0.0387
     39  CG         5.1050   12.0530   -6.7120 C.3   209  MET209      0.0595
     40  SD         6.0570   10.9210   -7.7350 S.3   209  MET209     -0.1393
     41  CE         6.9610   12.0810   -8.7560 C.3   209  MET209      0.0692
     42  N          1.3520   20.0600  -10.8070 N.3   219  PHE219     -0.1241
     43  CA         1.5040   18.6110  -10.7720 C.3   219  PHE219      0.1605
     44  C          0.1530   17.9070  -10.7640 C.2   219  PHE219      0.2264
     45  O          0.0060   16.8240  -11.3280 O.2   219  PHE219     -0.2867
     46  CB         2.3090   18.1910   -9.5430 C.3   219  PHE219      0.0534
     47  CG         2.6670   16.7310   -9.5180 C.ar  219  PHE219     -0.0203
     48  CD1        3.8630   16.2910  -10.0620 C.ar  219  PHE219     -0.0042
     49  CD2        1.8140   15.8000   -8.9430 C.ar  219  PHE219     -0.0042
     50  CE1        4.2020   14.9480  -10.0390 C.ar  219  PHE219     -0.0003
     51  CE2        2.1450   14.4540   -8.9190 C.ar  219  PHE219     -0.0003
     52  CZ         3.3430   14.0290   -9.4650 C.ar  219  PHE219     -0.0000
     53  N         -1.7630   15.1850  -13.3190 N.3   223  ALA223     -0.1245
     54  CA        -2.3010   13.9140  -12.8550 C.3   223  ALA223      0.1562
     55  C         -3.7800   13.7780  -13.2130 C.2   223  ALA223      0.2260
     56  O         -4.2380   12.7000  -13.5950 O.2   223  ALA223     -0.2867
     57  CB        -2.0980   13.7770  -11.3570 C.3   223  ALA223      0.0290
     58  N         -4.0690   12.6240  -16.7270 N.3   226  MET226     -0.1245
     59  CA        -3.7120   11.2180  -16.8810 C.3   226  MET226      0.1570
     60  C         -4.8410   10.2920  -16.4470 C.2   226  MET226      0.2261
     61  O         -5.0390    9.2270  -17.0300 O.2   226  MET226     -0.2867
     62  CB        -2.4420   10.8980  -16.0920 C.3   226  MET226      0.0387
     63  CG        -1.1850   11.5180  -16.6640 C.3   226  MET226      0.0595
     64  SD        -0.8660   10.9780  -18.3550 S.3   226  MET226     -0.1393
     65  CE        -0.9260   12.5480  -19.2010 C.3   226  MET226      0.0692
     66  N         -1.4400    1.3750  -16.3730 N.3   235  VAL235     -0.1245
     67  CA        -1.6630    1.2620  -14.9300 C.3   235  VAL235      0.1561
     68  C         -2.7760    2.2140  -14.4920 C.2   235  VAL235      0.2260
     69  O         -2.7530    3.4040  -14.8160 O.2   235  VAL235     -0.2867
     70  CB        -0.3940    1.5650  -14.1150 C.3   235  VAL235      0.0252
     71  CG1       -0.6760    1.3930  -12.6240 C.3   235  VAL235      0.0019
     72  CG2        0.7230    0.6470  -14.5320 C.3   235  VAL235      0.0019
     73  N         -4.7100    4.7100  -12.3420 N.3   237  LEU237     -0.1245
     74  CA        -4.4980    5.6820  -11.2650 C.3   237  LEU237      0.1561
     75  C         -5.7730    5.7720  -10.4360 C.2   237  LEU237      0.2260
     76  O         -6.8430    6.0680  -10.9710 O.2   237  LEU237     -0.2867
     77  CB        -4.1690    7.0600  -11.8440 C.3   237  LEU237      0.0270
     78  CG        -2.7250    7.5660  -11.8620 C.3   237  LEU237      0.0019
     79  CD1       -1.7380    6.4490  -12.1610 C.3   237  LEU237      0.0001
     80  CD2       -2.5770    8.6920  -12.8830 C.3   237  LEU237      0.0001
     81  N          0.9080    9.2400   -5.0530 N.3   248  ILE248     -0.1245
     82  CA         0.0690    8.7720   -6.1530 C.3   248  ILE248      0.1561
     83  C         -0.3030    7.3180   -5.8660 C.2   248  ILE248      0.2260
     84  O          0.5780    6.4740   -5.6720 O.2   248  ILE248     -0.2867
     85  CB         0.7940    8.8700   -7.5100 C.3   248  ILE248      0.0252
     86  CG1        1.3600   10.2800   -7.7240 C.3   248  ILE248      0.0019
     87  CG2       -0.1420    8.4850   -8.6500 C.3   248  ILE248      0.0019
     88  CD1        0.3090   11.3360   -8.0340 C.3   248  ILE248      0.0001
     89  N         -2.0620    3.8350   -7.0180 N.3   250  THR250     -0.1203
     90  CA        -2.4280    3.0880   -8.2210 C.3   250  THR250      0.1994
     91  C         -2.7990    1.6620   -7.8560 C.2   250  THR250      0.2618
     92  O         -2.6030    1.2390   -6.7180 O.2   250  THR250     -0.2717
     93  CB        -1.2620    3.0100   -9.2220 C.3   250  THR250      0.1784
     94  OG1       -0.3600    1.9750   -8.8140 O.3   250  THR250     -0.2211
     95  CG2       -0.5220    4.3310   -9.3030 C.3   250  THR250      0.0376
     96  N         -3.3190    0.9170   -8.8260 N.am  251  GLU251     -0.1965
     97  CA        -3.5650   -0.5050   -8.6310 C.3   251  GLU251      0.1733
     98  C         -2.2460   -1.2310   -8.3530 C.2   251  GLU251      0.2616
     99  O         -1.1760   -0.8070   -8.8140 O.2   251  GLU251     -0.2715
    100  CB        -4.2460   -1.1140   -9.8630 C.3   251  GLU251      0.0429
    101  CG        -3.4380   -0.9810  -11.1470 C.3   251  GLU251      0.1163
    102  CD        -4.1240   -1.6180  -12.3470 C.2   251  GLU251      0.3649
    103  OE1       -4.6370   -2.7530  -12.2160 O.co2 251  GLU251     -0.2457
    104  OE2       -4.1430   -0.9860  -13.4270 O.co2 251  GLU251     -0.2457
    105  N         -2.3320   -2.3200   -7.5950 N.am  252  PHE252     -0.1960
    106  CA        -1.1770   -3.1450   -7.2680 C.3   252  PHE252      0.1771
    107  C         -0.9430   -4.2230   -8.3200 C.2   252  PHE252      0.2619
    108  O         -1.7930   -5.0850   -8.5430 O.2   252  PHE252     -0.2715
    109  CB        -1.3880   -3.8120   -5.9120 C.3   252  PHE252      0.0574
    110  CG        -0.1690   -4.5230   -5.3760 C.ar  252  PHE252     -0.0200
    111  CD1        0.9050   -3.8030   -4.8620 C.ar  252  PHE252     -0.0042
    112  CD2       -0.1130   -5.9110   -5.3490 C.ar  252  PHE252     -0.0042
    113  CE1        2.0250   -4.4600   -4.3450 C.ar  252  PHE252     -0.0003
    114  CE2        1.0030   -6.5730   -4.8340 C.ar  252  PHE252     -0.0003
    115  CZ         2.0710   -5.8470   -4.3330 C.ar  252  PHE252     -0.0000
    116  N          0.2260   -4.1930   -8.9460 N.am  253  MET253     -0.1977
    117  CA         0.5960   -5.2380   -9.8890 C.3   253  MET253      0.1605
    118  C          1.4510   -6.3020   -9.2030 C.2   253  MET253      0.2287
    119  O          2.6290   -6.0890   -8.9110 O.2   253  MET253     -0.2864
    120  CB         1.3030   -4.6180  -11.0830 C.3   253  MET253      0.0413
    121  CG         0.4440   -3.5670  -11.7620 C.3   253  MET253      0.0598
    122  SD        -0.9440   -4.2810  -12.6720 S.3   253  MET253     -0.1393
    123  CE        -0.0440   -4.8960  -14.1020 C.3   253  MET253      0.0692
    124  N          5.3060   -7.1950  -10.0470 N.3   256  GLY256     -0.1210
    125  CA         6.3510   -6.1890  -10.1640 C.3   256  GLY256      0.1956
    126  C          6.6560   -5.7750  -11.5930 C.2   256  GLY256      0.2612
    127  O          5.7980   -5.8780  -12.4650 O.2   256  GLY256     -0.2717
    128  N          7.8720   -5.2910  -11.8360 N.am  257  SER257     -0.1952
    129  CA         8.2450   -4.8500  -13.1730 C.3   257  SER257      0.1924
    130  C          8.4810   -6.0460  -14.0830 C.2   257  SER257      0.2314
    131  O          8.7600   -7.1510  -13.6120 O.2   257  SER257     -0.2863
    132  CB         9.4970   -3.9730  -13.1320 C.3   257  SER257      0.2116
    133  OG        10.6440   -4.7420  -12.8240 O.3   257  SER257     -0.2180
    134  N         12.3110   -7.2630  -13.7090 N.3   260  ASP260     -0.1239
    135  CA        12.5480   -8.1810  -12.5970 C.3   260  ASP260      0.1674
    136  C         11.8500   -9.5220  -12.8110 C.2   260  ASP260      0.2266
    137  O         12.4110  -10.5710  -12.5090 O.2   260  ASP260     -0.2867
    138  CB        12.1020   -7.5710  -11.2620 C.3   260  ASP260      0.1410
    139  CG        12.8670   -6.3090  -10.9050 C.2   260  ASP260      0.3668
    140  OD1       12.3080   -5.4730  -10.1660 O.co2 260  ASP260     -0.2456
    141  OD2       14.0220   -6.1490  -11.3580 O.co2 260  ASP260     -0.2456
    142  N         11.5320   -1.8630  -17.3430 N.3   302  ALA302     -0.1231
    143  CA        11.4180   -1.4340  -15.9510 C.3   302  ALA302      0.1694
    144  C         10.1360   -0.6280  -15.7350 C.2   302  ALA302      0.2592
    145  O          9.6550   -0.5020  -14.6100 O.2   302  ALA302     -0.2718
    146  CB        12.6330   -0.6240  -15.5460 C.3   302  ALA302      0.0304
    147  N          9.6010   -0.0720  -16.8180 N.am  303  ASN303     -0.1974
    148  CA         8.3550    0.6840  -16.7520 C.3   303  ASN303      0.1688
    149  C          7.1700   -0.0840  -17.3390 C.2   303  ASN303      0.2292
    150  O          6.2150    0.5040  -17.8500 O.2   303  ASN303     -0.2864
    151  CB         8.5260    2.0690  -17.3890 C.3   303  ASN303      0.1181
    152  CG         9.4960    2.9460  -16.6080 C.2   303  ASN303      0.2629
    153  OD1        9.6350    2.8010  -15.3920 O.2   303  ASN303     -0.2716
    154  ND2       10.1780    3.8510  -17.3030 N.am  303  ASN303     -0.0877
    155  N          4.6260   -3.2050  -15.9000 N.3   305  LEU305     -0.1245
    156  CA         4.3010   -4.0100  -14.7310 C.3   305  LEU305      0.1561
    157  C          3.4900   -5.2350  -15.1290 C.2   305  LEU305      0.2260
    158  O          2.7580   -5.2190  -16.1290 O.2   305  LEU305     -0.2867
    159  CB         3.5530   -3.1810  -13.6820 C.3   305  LEU305      0.0270
    160  CG         4.2900   -1.9220  -13.2210 C.3   305  LEU305      0.0019
    161  CD1        3.4040   -1.0410  -12.3440 C.3   305  LEU305      0.0001
    162  CD2        5.5500   -2.3140  -12.4780 C.3   305  LEU305      0.0001
    163  N          3.5180    1.4680  -17.1760 N.3   315  ALA315     -0.1231
    164  CA         3.5080    2.3330  -15.9950 C.3   315  ALA315      0.1694
    165  C          4.1570    3.6650  -16.3230 C.2   315  ALA315      0.2592
    166  O          4.8770    3.7750  -17.3160 O.2   315  ALA315     -0.2718
    167  CB         4.2320    1.6700  -14.8280 C.3   315  ALA315      0.0304
    168  N          3.9000    4.6640  -15.4820 N.am  316  ASP316     -0.1960
    169  CA         4.5530    5.9760  -15.5690 C.3   316  ASP316      0.1840
    170  C          4.2260    6.7780  -16.8230 C.2   316  ASP316      0.2622
    171  O          4.9860    7.6650  -17.2120 O.2   316  ASP316     -0.2715
    172  CB         6.0800    5.8540  -15.4110 C.3   316  ASP316      0.1450
    173  CG         6.5330    5.9990  -13.9760 C.2   316  ASP316      0.3671
    174  OD1        5.8940    6.7650  -13.2240 O.co2 316  ASP316     -0.2456
    175  OD2        7.5280    5.3480  -13.6000 O.co2 316  ASP316     -0.2456
    176  N          3.1030    6.4730  -17.4580 N.am  317  PHE317     -0.1960
    177  CA         2.6500    7.2940  -18.5670 C.3   317  PHE317      0.1771
    178  C          2.2710    8.6760  -18.0370 C.2   317  PHE317      0.2620
    179  O          1.3890    8.8010  -17.1830 O.2   317  PHE317     -0.2715
    180  CB         1.4670    6.6380  -19.2780 C.3   317  PHE317      0.0574
    181  CG         0.8250    7.5130  -20.3160 C.ar  317  PHE317     -0.0200
    182  CD1        1.5940    8.1480  -21.2810 C.ar  317  PHE317     -0.0042
    183  CD2       -0.5490    7.6960  -20.3300 C.ar  317  PHE317     -0.0042
    184  CE1        1.0030    8.9570  -22.2360 C.ar  317  PHE317     -0.0003
    185  CE2       -1.1470    8.4990  -21.2860 C.ar  317  PHE317     -0.0003
    186  CZ        -0.3690    9.1310  -22.2410 C.ar  317  PHE317     -0.0000
    187  N          2.9620    9.7060  -18.5200 N.am  318  GLY318     -0.1940
    188  CA         2.6680   11.0720  -18.1220 C.3   318  GLY318      0.2014
    189  C          3.6550   11.6850  -17.1410 C.2   318  GLY318      0.2638
    190  O          3.7680   12.9090  -17.0610 O.2   318  GLY318     -0.2714
    191  N          4.3670   10.8410  -16.3960 N.am  319  LEU319     -0.1977
    192  CA         5.3520   11.3080  -15.4160 C.3   319  LEU319      0.1596
    193  C          6.5020   12.0380  -16.1030 C.2   319  LEU319      0.2287
    194  O          7.1790   12.8670  -15.4950 O.2   319  LEU319     -0.2864
    195  CB         5.9040   10.1270  -14.6070 C.3   319  LEU319      0.0297
    196  CG         6.9800   10.4090  -13.5490 C.3   319  LEU319      0.0022
    197  CD1        6.3560   10.7320  -12.2040 C.3   319  LEU319      0.0001
    198  CD2        7.9590    9.2490  -13.4220 C.3   319  LEU319      0.0001
    199  N          5.8810   15.7270  -16.4120 N.3   322  VAL322     -0.1245
    200  CA         5.7660   16.3020  -15.0730 C.3   322  VAL322      0.1561
    201  C          7.1270   16.4240  -14.3890 C.2   322  VAL322      0.2260
    202  O          7.2510   17.0750  -13.3510 O.2   322  VAL322     -0.2867
    203  CB         4.8190   15.4780  -14.1760 C.3   322  VAL322      0.0252
    204  CG1        4.4380   16.3690  -12.9920 C.3   322  VAL322      0.0019
    205  CG2        3.5720   15.1420  -14.9940 C.3   322  VAL322      0.0019
@<TRIPOS>BOND
     1   186   184   ar
     2   186   185   ar
     3   184   182   ar
     4   185   183   ar
     5   182   181   ar
     6   183   181   ar
     7   181   180    1
     8   180   177    1
     9    65    64    1
    10   177   178    1
    11   177   176    1
    12   187   188    1
    13   187   178   am
    14    64    63    1
    15   188   189    1
    16   178   179    2
    17   150   149    2
    18   176   170   am
    19   151   148    1
    20   151   152    1
    21   142   143    1
    22   149   148    1
    23   166   165    2
    24   154   152   am
    25   171   170    2
    26   163   164    1
    27   189   190    2
    28   189   191   am
    29    61    60    2
    30    59    58    1
    31    59    60    1
    32    59    62    1
    33   170   169    1
    34   147   148    1
    35   147   144   am
    36    63    62    1
    37   152   153    2
    38   199   200    1
    39   191   192    1
    40    66    67    1
    41   165   164    1
    42   165   168   am
    43   158   157    2
    44   193   194    2
    45   193   192    1
    46   164   167    1
    47   143   144    1
    48   143   146    1
    49   155   156    1
    50   144   145    2
    51   169   168    1
    52   169   172    1
    53   192   195    1
    54   172   173    1
    55   157   156    1
    56   200   201    1
    57   200   203    1
    58   205   203    1
    59    67    68    1
    60    67    70    1
    61    69    68    2
    62   156   159    1
    63   195   196    1
    64    72    70    1
    65   201   202    2
    66   203   204    1
    67    70    71    1
    68   123   122    1
    69   130   131    2
    70   130   129    1
    71   173   175   ar
    72   173   174   ar
    73   134   135    1
    74   159   160    1
    75    56    55    2
    76   196   198    1
    77   196   197    1
    78   104   102   ar
    79    53    54    1
    80   160   162    1
    81   160   161    1
    82    55    54    1
    83   129   132    1
    84   129   128    1
    85   132   133    1
    86    80    78    1
    87    54    57    1
    88   136   135    1
    89   136   137    2
    90   122   121    1
    91   135   138    1
    92   127   126    2
    93   102   103   ar
    94   102   101    1
    95    73    74    1
    96    79    78    1
    97    78    77    1
    98    77    74    1
    99   128   126   am
   100   121   120    1
   101   126   125    1
   102   141   139   ar
   103    45    44    2
   104    74    75    1
   105   138   139    1
   106   101   100    1
   107   120   117    1
   108    76    75    2
   109   139   140   ar
   110    42    43    1
   111    43    44    1
   112    43    46    1
   113    33    32    1
   114   125   124    1
   115    48    50   ar
   116    48    47   ar
   117    50    52   ar
   118   117   118    1
   119   117   116    1
   120   100    97    1
   121    46    47    1
   122    47    49   ar
   123    52    51   ar
   124    32    31    1
   125    95    93    1
   126    93    94    1
   127    93    90    1
   128   118   119    2
   129    31    30    1
   130   116   107   am
   131    49    51   ar
   132    96    97    1
   133    96    91   am
   134    99    98    2
   135    41    40    1
   136    87    85    1
   137    97    98    1
   138   108   107    2
   139    98   105   am
   140   107   106    1
   141    90    91    1
   142    90    89    1
   143    88    86    1
   144    91    92    2
   145    40    39    1
   146    86    85    1
   147   105   106    1
   148    30    29    1
   149    85    82    1
   150   106   109    1
   151    29    26    1
   152    19    17    1
   153    39    38    1
   154    82    83    1
   155    82    81    1
   156    24    21    1
   157    18    17    1
   158   109   110    1
   159    83    84    2
   160    38    35    1
   161    17    14    1
   162    26    25    1
   163    26    27    1
   164   110   112   ar
   165   110   111   ar
   166   112   114   ar
   167    23    22    2
   168    35    34    1
   169    35    36    1
   170    10    11    1
   171    10     9    1
   172    28    27    2
   173   111   113   ar
   174   114   115   ar
   175    21    20    1
   176    21    22    1
   177     4     3    2
   178    11    12    2
   179    14    13    1
   180    14    15    1
   181   113   115   ar
   182     7     6    1
   183    36    37    2
   184     9     3   am
   185     5     6    1
   186     5     2    1
   187     3     2    1
   188     6     8    1
   189    15    16    2
   190     2     1    1
