@<TRIPOS>MOLECULE
tmp/3vs0A00.pdb
 190 176 0 0 0
SMALL
GASTEIGER

@<TRIPOS>ATOM
      1  N        -46.0490    0.9530   -2.3570 N.3   184  LEU184     -0.1231
      2  CA       -46.2940    1.8490   -3.4790 C.3   184  LEU184      0.1693
      3  C        -47.5140    1.4060   -4.2790 C.2   184  LEU184      0.2592
      4  O        -48.2820    2.2330   -4.7700 O.2   184  LEU184     -0.2718
      5  CB       -45.0660    1.9030   -4.3870 C.3   184  LEU184      0.0284
      6  CG       -43.7570    2.3950   -3.7710 C.3   184  LEU184      0.0019
      7  CD1      -42.6240    2.2760   -4.7770 C.3   184  LEU184      0.0001
      8  CD2      -43.9050    3.8290   -3.2960 C.3   184  LEU184      0.0001
      9  N        -47.6840    0.0950   -4.4070 N.am  185  GLY185     -0.1957
     10  CA       -48.8050   -0.4590   -5.1440 C.3   185  GLY185      0.1869
     11  C        -48.9580   -1.9500   -4.9220 C.2   185  GLY185      0.2309
     12  O        -47.9910   -2.6430   -4.6070 O.2   185  GLY185     -0.2863
     13  N        -45.6860   -3.8980   -4.7060 N.3   192  VAL192     -0.1245
     14  CA       -44.4510   -3.1840   -4.9970 C.3   192  VAL192      0.1561
     15  C        -44.1630   -2.1930   -3.8760 C.2   192  VAL192      0.2260
     16  O        -44.9160   -1.2430   -3.6610 O.2   192  VAL192     -0.2867
     17  CB       -44.5050   -2.4580   -6.3580 C.3   192  VAL192      0.0252
     18  CG1      -43.3850   -1.4340   -6.4640 C.3   192  VAL192      0.0019
     19  CG2      -44.4160   -3.4640   -7.4950 C.3   192  VAL192      0.0019
     20  N        -36.4810   -0.5280   -4.8110 N.3   204  ALA204     -0.1245
     21  CA       -37.8940   -0.8680   -4.8940 C.3   204  ALA204      0.1562
     22  C        -38.0400   -2.3840   -4.9560 C.2   204  ALA204      0.2260
     23  O        -37.3380   -3.0510   -5.7170 O.2   204  ALA204     -0.2867
     24  CB       -38.5280   -0.2180   -6.1040 C.3   204  ALA204      0.0290
     25  N        -40.4380   -5.8020   -5.4630 N.3   206  LYS206     -0.1245
     26  CA       -41.6620   -6.4520   -5.9120 C.3   206  LYS206      0.1561
     27  C        -41.7910   -7.8000   -5.2140 C.2   206  LYS206      0.2260
     28  O        -41.0280   -8.7270   -5.4890 O.2   206  LYS206     -0.2867
     29  CB       -41.6570   -6.6390   -7.4310 C.3   206  LYS206      0.0271
     30  CG       -43.0260   -6.9500   -8.0250 C.3   206  LYS206      0.0035
     31  CD       -42.9270   -7.2780   -9.5080 C.3   206  LYS206      0.0206
     32  CE       -44.2980   -7.5080  -10.1300 C.3   206  LYS206      0.1093
     33  NZ       -45.0590   -6.2410  -10.3190 N.3   206  LYS206     -0.1314
     34  N        -43.2240  -11.1580   -4.8410 N.3   208  MET208     -0.1245
     35  CA       -43.9610  -12.1480   -5.6200 C.3   208  MET208      0.1570
     36  C        -44.6590  -13.1670   -4.7250 C.2   208  MET208      0.2261
     37  O        -44.0130  -13.9710   -4.0520 O.2   208  MET208     -0.2867
     38  CB       -43.0490  -12.8450   -6.6320 C.3   208  MET208      0.0387
     39  CG       -42.3800  -11.8920   -7.6120 C.3   208  MET208      0.0595
     40  SD       -43.4740  -10.5600   -8.1530 S.3   208  MET208     -0.1393
     41  CE       -44.7310  -11.4650   -9.0560 C.3   208  MET208      0.0692
     42  N        -37.8230  -20.1360  -10.6530 N.3   218  PHE218     -0.1241
     43  CA       -37.8880  -18.6930  -10.8660 C.3   218  PHE218      0.1605
     44  C        -36.4970  -18.1100  -11.0430 C.2   218  PHE218      0.2264
     45  O        -36.2480  -17.3640  -11.9890 O.2   218  PHE218     -0.2867
     46  CB       -38.6000  -17.9940   -9.7080 C.3   218  PHE218      0.0534
     47  CG       -38.8900  -16.5430   -9.9660 C.ar  218  PHE218     -0.0203
     48  CD1      -40.0620  -16.1600  -10.5950 C.ar  218  PHE218     -0.0042
     49  CD2      -37.9900  -15.5620   -9.5830 C.ar  218  PHE218     -0.0042
     50  CE1      -40.3340  -14.8270  -10.8380 C.ar  218  PHE218     -0.0003
     51  CE2      -38.2550  -14.2280   -9.8250 C.ar  218  PHE218     -0.0003
     52  CZ       -39.4290  -13.8590  -10.4510 C.ar  218  PHE218     -0.0000
     53  N        -35.2530  -15.8320  -13.9130 N.3   222  ALA222     -0.1245
     54  CA       -34.8230  -14.5180  -13.4470 C.3   222  ALA222      0.1562
     55  C        -33.3440  -14.2530  -13.7230 C.2   222  ALA222      0.2260
     56  O        -32.9330  -13.1030  -13.8780 O.2   222  ALA222     -0.2867
     57  CB       -35.1240  -14.3540  -11.9630 C.3   222  ALA222      0.0290
     58  N        -32.9300  -12.5920  -17.2160 N.3   225  MET225     -0.1245
     59  CA       -33.2700  -11.1720  -17.2650 C.3   225  MET225      0.1570
     60  C        -32.1170  -10.3050  -16.7720 C.2   225  MET225      0.2261
     61  O        -31.9640   -9.1580  -17.1910 O.2   225  MET225     -0.2867
     62  CB       -34.5120  -10.8940  -16.4190 C.3   225  MET225      0.0387
     63  CG       -35.3380  -12.1270  -16.1040 C.3   225  MET225      0.0595
     64  SD       -36.9030  -12.1990  -16.9930 S.3   225  MET225     -0.1393
     65  CE       -36.3470  -12.3190  -18.6920 C.3   225  MET225      0.0692
     66  N        -35.6860   -1.4010  -16.6800 N.3   234  VAL234     -0.1245
     67  CA       -35.5250   -1.2790  -15.2330 C.3   234  VAL234      0.1561
     68  C        -34.4710   -2.2740  -14.7430 C.2   234  VAL234      0.2260
     69  O        -34.5400   -3.4690  -15.0310 O.2   234  VAL234     -0.2867
     70  CB       -36.8650   -1.4380  -14.4630 C.3   234  VAL234      0.0252
     71  CG1      -37.5040   -2.7920  -14.7340 C.3   234  VAL234      0.0019
     72  CG2      -36.6490   -1.2360  -12.9710 C.3   234  VAL234      0.0019
     73  N        -32.4560   -4.8230  -12.6770 N.3   236  LEU236     -0.1245
     74  CA       -32.6180   -5.8210  -11.6280 C.3   236  LEU236      0.1561
     75  C        -31.3410   -5.8890  -10.7970 C.2   236  LEU236      0.2260
     76  O        -30.2590   -6.1270  -11.3320 O.2   236  LEU236     -0.2867
     77  CB       -32.9340   -7.1900  -12.2340 C.3   236  LEU236      0.0270
     78  CG       -34.4000   -7.6370  -12.2620 C.3   236  LEU236      0.0019
     79  CD1      -35.3300   -6.4750  -12.5770 C.3   236  LEU236      0.0001
     80  CD2      -34.5950   -8.7590  -13.2700 C.3   236  LEU236      0.0001
     81  N        -38.0890   -9.2810   -5.4420 N.3   247  ILE247     -0.1245
     82  CA       -37.2810   -8.8050   -6.5600 C.3   247  ILE247      0.1561
     83  C        -36.8210   -7.3740   -6.3140 C.2   247  ILE247      0.2260
     84  O        -37.6340   -6.4510   -6.2590 O.2   247  ILE247     -0.2867
     85  CB       -38.0590   -8.8650   -7.8890 C.3   247  ILE247      0.0252
     86  CG1      -38.6240  -10.2670   -8.1110 C.3   247  ILE247      0.0019
     87  CG2      -37.1650   -8.4520   -9.0500 C.3   247  ILE247      0.0019
     88  CD1      -37.5750  -11.3470   -8.0720 C.3   247  ILE247      0.0001
     89  N        -35.2310   -4.0840   -7.5110 N.3   249  THR249     -0.1203
     90  CA       -34.9040   -3.2940   -8.6890 C.3   249  THR249      0.1994
     91  C        -34.4660   -1.8980   -8.2710 C.2   249  THR249      0.2618
     92  O        -34.5200   -1.5470   -7.0920 O.2   249  THR249     -0.2717
     93  CB       -36.1090   -3.1600   -9.6390 C.3   249  THR249      0.1784
     94  OG1      -36.9590   -2.0950   -9.1950 O.3   249  THR249     -0.2211
     95  CG2      -36.9010   -4.4570   -9.6880 C.3   249  THR249      0.0376
     96  N        -34.0280   -1.1060   -9.2440 N.am  250  GLU250     -0.1965
     97  CA       -33.6970    0.2900   -9.0040 C.3   250  GLU250      0.1733
     98  C        -34.9720    1.0700   -8.7100 C.2   250  GLU250      0.2616
     99  O        -36.0550    0.6900   -9.1570 O.2   250  GLU250     -0.2715
    100  CB       -32.9920    0.8830  -10.2220 C.3   250  GLU250      0.0429
    101  CG       -33.7140    0.6140  -11.5320 C.3   250  GLU250      0.1163
    102  CD       -33.0550    1.2900  -12.7160 C.2   250  GLU250      0.3649
    103  OE1      -32.4370    2.3580  -12.5240 O.co2 250  GLU250     -0.2457
    104  OE2      -33.1540    0.7510  -13.8380 O.co2 250  GLU250     -0.2457
    105  N        -34.8460    2.1570   -7.9580 N.am  251  PHE251     -0.1960
    106  CA       -36.0050    2.9760   -7.6220 C.3   251  PHE251      0.1771
    107  C        -36.2380    4.0780   -8.6520 C.2   251  PHE251      0.2619
    108  O        -35.3940    4.9530   -8.8470 O.2   251  PHE251     -0.2715
    109  CB       -35.8610    3.5760   -6.2230 C.3   251  PHE251      0.0574
    110  CG       -37.0690    4.3450   -5.7680 C.ar  251  PHE251     -0.0200
    111  CD1      -38.2440    3.6860   -5.4410 C.ar  251  PHE251     -0.0042
    112  CD2      -37.0290    5.7260   -5.6610 C.ar  251  PHE251     -0.0042
    113  CE1      -39.3580    4.3910   -5.0200 C.ar  251  PHE251     -0.0003
    114  CE2      -38.1390    6.4370   -5.2390 C.ar  251  PHE251     -0.0003
    115  CZ       -39.3050    5.7680   -4.9180 C.ar  251  PHE251     -0.0000
    116  N        -37.3910    4.0230   -9.3110 N.am  252  MET252     -0.1977
    117  CA       -37.7640    5.0350  -10.2890 C.3   252  MET252      0.1605
    118  C        -38.5980    6.1220   -9.6180 C.2   252  MET252      0.2287
    119  O        -39.7870    5.9370   -9.3590 O.2   252  MET252     -0.2864
    120  CB       -38.5260    4.3940  -11.4470 C.3   252  MET252      0.0413
    121  CG       -37.7680    3.2490  -12.1030 C.3   252  MET252      0.0598
    122  SD       -36.1940    3.7560  -12.8230 S.3   252  MET252     -0.1393
    123  CE       -36.7500    4.8570  -14.1190 C.3   252  MET252      0.0692
    124  N        -42.5130    7.2290  -10.2590 N.3   255  GLY255     -0.1210
    125  CA       -43.5120    6.1920  -10.4550 C.3   255  GLY255      0.1956
    126  C        -43.7300    5.7860  -11.8990 C.2   255  GLY255      0.2612
    127  O        -42.8360    5.9180  -12.7340 O.2   255  GLY255     -0.2717
    128  N        -44.9300    5.2910  -12.1930 N.am  256  SER256     -0.1952
    129  CA       -45.2580    4.8220  -13.5350 C.3   256  SER256      0.1924
    130  C        -45.5900    5.9760  -14.4740 C.2   256  SER256      0.2314
    131  O        -46.0080    7.0470  -14.0330 O.2   256  SER256     -0.2863
    132  CB       -46.4240    3.8320  -13.4930 C.3   256  SER256      0.2116
    133  OG       -47.6290    4.4780  -13.1240 O.3   256  SER256     -0.2180
    134  N        -49.3840    7.0360  -14.2060 N.3   259  ASP259     -0.1239
    135  CA       -49.6500    7.9250  -13.0820 C.3   259  ASP259      0.1674
    136  C        -48.9880    9.2810  -13.2940 C.2   259  ASP259      0.2266
    137  O        -49.4970   10.3060  -12.8430 O.2   259  ASP259     -0.2867
    138  CB       -49.1550    7.3050  -11.7730 C.3   259  ASP259      0.1410
    139  CG       -49.8900    6.0270  -11.4160 C.2   259  ASP259      0.3668
    140  OD1      -51.0390    5.8480  -11.8760 O.co2 259  ASP259     -0.2456
    141  OD2      -49.3210    5.2030  -10.6690 O.co2 259  ASP259     -0.2456
    142  N        -48.7220    1.7010  -17.6950 N.3   301  ALA301     -0.1245
    143  CA       -48.6660    1.1990  -16.3270 C.3   301  ALA301      0.1562
    144  C        -47.4020    0.3740  -16.1090 C.2   301  ALA301      0.2260
    145  O        -47.0060    0.1100  -14.9740 O.2   301  ALA301     -0.2867
    146  CB       -49.9010    0.3700  -16.0190 C.3   301  ALA301      0.0290
    147  N        -41.8030    3.0470  -16.2550 N.3   304  LEU304     -0.1245
    148  CA       -41.4510    3.8330  -15.0780 C.3   304  LEU304      0.1561
    149  C        -40.6510    5.0710  -15.4690 C.2   304  LEU304      0.2260
    150  O        -39.9460    5.0700  -16.4780 O.2   304  LEU304     -0.2867
    151  CB       -40.6730    2.9750  -14.0800 C.3   304  LEU304      0.0270
    152  CG       -41.4200    1.7510  -13.5430 C.3   304  LEU304      0.0019
    153  CD1      -40.5130    0.8780  -12.6860 C.3   304  LEU304      0.0001
    154  CD2      -42.6490    2.1860  -12.7590 C.3   304  LEU304      0.0001
    155  N        -40.6370   -1.9140  -17.4730 N.3   314  ALA314     -0.1231
    156  CA       -40.8910   -2.9730  -16.5050 C.3   314  ALA314      0.1694
    157  C        -42.1420   -3.7080  -16.9910 C.2   314  ALA314      0.2592
    158  O        -42.8480   -3.1870  -17.8460 O.2   314  ALA314     -0.2718
    159  CB       -41.1160   -2.3700  -15.1230 C.3   314  ALA314      0.0304
    160  N        -42.4070   -4.9260  -16.5200 N.am  315  ASP315     -0.1960
    161  CA       -41.4840   -5.7140  -15.7250 C.3   315  ASP315      0.1840
    162  C        -40.5360   -6.3960  -16.6930 C.2   315  ASP315      0.2622
    163  O        -39.3280   -6.4490  -16.4630 O.2   315  ASP315     -0.2715
    164  CB       -42.2440   -6.7740  -14.9270 C.3   315  ASP315      0.1450
    165  CG       -43.5350   -6.2440  -14.3280 C.2   315  ASP315      0.3671
    166  OD1      -44.5650   -6.2440  -15.0360 O.co2 315  ASP315     -0.2456
    167  OD2      -43.5220   -5.8400  -13.1480 O.co2 315  ASP315     -0.2456
    168  N        -41.1120   -6.9000  -17.7830 N.am  316  PHE316     -0.1960
    169  CA       -40.3860   -7.6340  -18.8190 C.3   316  PHE316      0.1771
    170  C        -39.8510   -8.9820  -18.3380 C.2   316  PHE316      0.2620
    171  O        -39.1170   -9.0620  -17.3540 O.2   316  PHE316     -0.2715
    172  CB       -39.2680   -6.7850  -19.4300 C.3   316  PHE316      0.0574
    173  CG       -38.2240   -7.5900  -20.1400 C.ar  316  PHE316     -0.0200
    174  CD1      -38.5120   -8.2210  -21.3390 C.ar  316  PHE316     -0.0042
    175  CD2      -36.9510   -7.7140  -19.6090 C.ar  316  PHE316     -0.0042
    176  CE1      -37.5510   -8.9640  -21.9940 C.ar  316  PHE316     -0.0003
    177  CE2      -35.9860   -8.4540  -20.2590 C.ar  316  PHE316     -0.0003
    178  CZ       -36.2870   -9.0790  -21.4540 C.ar  316  PHE316     -0.0000
    179  N        -40.2240  -10.0380  -19.0530 N.am  317  GLY317     -0.1940
    180  CA       -39.8530  -11.3880  -18.6740 C.3   317  GLY317      0.2014
    181  C        -40.5760  -11.8170  -17.4140 C.2   317  GLY317      0.2638
    182  O        -40.0650  -12.6140  -16.6280 O.2   317  GLY317     -0.2714
    183  N        -41.7750  -11.2780  -17.2240 N.am  318  LEU318     -0.1977
    184  CA       -42.5850  -11.5810  -16.0520 C.3   318  LEU318      0.1596
    185  C        -43.8650  -12.3030  -16.4560 C.2   318  LEU318      0.2287
    186  O        -44.3620  -13.1620  -15.7270 O.2   318  LEU318     -0.2864
    187  CB       -42.9140  -10.2950  -15.2910 C.3   318  LEU318      0.0297
    188  CG       -44.0040  -10.3480  -14.2190 C.3   318  LEU318      0.0022
    189  CD1      -43.5100   -9.7280  -12.9250 C.3   318  LEU318      0.0001
    190  CD2      -45.2570   -9.6380  -14.7070 C.3   318  LEU318      0.0001
@<TRIPOS>BOND
     1   176   178   ar
     2   176   174   ar
     3   178   177   ar
     4   174   173   ar
     5   177   175   ar
     6   173   175   ar
     7   173   172    1
     8   172   169    1
     9   179   180    1
    10   179   170   am
    11   169   170    1
    12   169   168    1
    13    65    64    1
    14   180   181    1
    15   170   171    2
    16   158   157    2
    17   168   162   am
    18   142   143    1
    19   155   156    1
    20   181   183   am
    21   181   182    2
    22    59    58    1
    23    59    60    1
    24    59    62    1
    25   183   184    1
    26    61    60    2
    27    64    63    1
    28   157   160   am
    29   157   156    1
    30   162   163    2
    31   162   161    1
    32    66    67    1
    33   160   161    1
    34   156   159    1
    35   150   149    2
    36   185   184    1
    37   185   186    2
    38    62    63    1
    39   143   144    1
    40   143   146    1
    41   147   148    1
    42   144   145    2
    43   184   187    1
    44   161   164    1
    45   149   148    1
    46   187   188    1
    47    67    68    1
    48    67    70    1
    49   148   151    1
    50   166   165   ar
    51    69    68    2
    52   164   165    1
    53    71    70    1
    54   190   188    1
    55   130   131    2
    56   130   129    1
    57    70    72    1
    58   165   167   ar
    59   188   189    1
    60   134   135    1
    61   123   122    1
    62   151   152    1
    63    53    54    1
    64    56    55    2
    65   104   102   ar
    66    55    54    1
    67   152   154    1
    68   152   153    1
    69   129   132    1
    70   129   128    1
    71   132   133    1
    72    54    57    1
    73   136   135    1
    74   136   137    2
    75    80    78    1
    76   135   138    1
    77   122   121    1
    78   127   126    2
    79   102   103   ar
    80   102   101    1
    81    73    74    1
    82    79    78    1
    83    78    77    1
    84    77    74    1
    85   128   126   am
    86   121   120    1
    87    45    44    2
    88   126   125    1
    89   140   139   ar
    90   138   139    1
    91    74    75    1
    92   101   100    1
    93   120   117    1
    94   139   141   ar
    95    76    75    2
    96    44    43    1
    97    43    42    1
    98    43    46    1
    99    50    48   ar
   100    50    52   ar
   101    48    47   ar
   102   125   124    1
   103    52    51   ar
   104    33    32    1
   105   117   118    1
   106   117   116    1
   107   100    97    1
   108    32    31    1
   109    47    46    1
   110    47    49   ar
   111    51    49   ar
   112    95    93    1
   113    93    94    1
   114    93    90    1
   115   118   119    2
   116    31    30    1
   117   116   107   am
   118    96    97    1
   119    96    91   am
   120    99    98    2
   121    41    40    1
   122    87    85    1
   123    97    98    1
   124   108   107    2
   125    98   105   am
   126    90    91    1
   127    90    89    1
   128   107   106    1
   129    91    92    2
   130    40    39    1
   131    86    88    1
   132    86    85    1
   133    30    29    1
   134   105   106    1
   135    85    82    1
   136   106   109    1
   137    39    38    1
   138    19    17    1
   139    29    26    1
   140    38    35    1
   141    82    83    1
   142    82    81    1
   143    18    17    1
   144    17    14    1
   145    83    84    2
   146   109   110    1
   147    24    21    1
   148    26    25    1
   149    26    27    1
   150   110   112   ar
   151   110   111   ar
   152    23    22    2
   153   112   114   ar
   154    35    34    1
   155    35    36    1
   156    28    27    2
   157   111   113   ar
   158   114   115   ar
   159    10    11    1
   160    10     9    1
   161   113   115   ar
   162    14    13    1
   163    14    15    1
   164    22    21    1
   165    11    12    2
   166    21    20    1
   167     7     6    1
   168     4     3    2
   169    36    37    2
   170     9     3   am
   171     5     6    1
   172     5     2    1
   173     3     2    1
   174    15    16    2
   175     6     8    1
   176     2     1    1
