@<TRIPOS>MOLECULE
tmp/3vs1B00.pdb
 188 172 0 0 0
SMALL
GASTEIGER

@<TRIPOS>ATOM
      1  N         14.9130    9.0090   83.1140 N.3   189  LEU189     -0.1231
      2  CA        15.6320    9.2260   81.8660 C.3   189  LEU189      0.1693
      3  C         14.9860   10.3580   81.0840 C.2   189  LEU189      0.2592
      4  O         15.6600   11.1010   80.3720 O.2   189  LEU189     -0.2718
      5  CB        15.6460    7.9490   81.0270 C.3   189  LEU189      0.0284
      6  CG        16.4610    6.7930   81.6090 C.3   189  LEU189      0.0019
      7  CD1       16.1950    5.5130   80.8380 C.3   189  LEU189      0.0001
      8  CD2       17.9450    7.1270   81.6000 C.3   189  LEU189      0.0001
      9  N         13.6710   10.4750   81.2230 N.am  190  GLY190     -0.1957
     10  CA        12.9130   11.5290   80.5780 C.3   190  GLY190      0.1869
     11  C         11.5410   11.6520   81.2110 C.2   190  GLY190      0.2309
     12  O         11.0030   10.6780   81.7360 O.2   190  GLY190     -0.2863
     13  N          9.8670    8.3480   82.0350 N.3   197  VAL197     -0.1245
     14  CA        10.5360    7.1150   81.6500 C.3   197  VAL197      0.1561
     15  C         11.7390    6.8810   82.5490 C.2   197  VAL197      0.2260
     16  O         12.6150    7.7370   82.6670 O.2   197  VAL197     -0.2867
     17  CB        10.9970    7.1320   80.1730 C.3   197  VAL197      0.0252
     18  CG1       11.8980    5.9360   79.8870 C.3   197  VAL197      0.0019
     19  CG2        9.8000    7.1290   79.2360 C.3   197  VAL197      0.0019
     20  N         13.3500   -0.7440   81.0400 N.3   209  ALA209     -0.1245
     21  CA        12.8870    0.6300   80.9530 C.3   209  ALA209      0.1562
     22  C         11.4200    0.6530   81.3480 C.2   209  ALA209      0.2260
     23  O         10.6520   -0.2220   80.9480 O.2   209  ALA209     -0.2867
     24  CB        13.0730    1.1720   79.5490 C.3   209  ALA209      0.0290
     25  N          7.9160    3.0970   81.6240 N.3   211  LYS211     -0.1245
     26  CA         7.2040    4.3260   81.3270 C.3   211  LYS211      0.1561
     27  C          5.9970    4.4200   82.2430 C.2   211  LYS211      0.2260
     28  O          5.0750    3.6110   82.1480 O.2   211  LYS211     -0.2867
     29  CB         6.7660    4.3510   79.8630 C.3   211  LYS211      0.0271
     30  CG         6.3550    5.7240   79.3570 C.3   211  LYS211      0.0035
     31  CD         6.4690    5.8000   77.8430 C.3   211  LYS211      0.0206
     32  CE         6.2150    7.2110   77.3340 C.3   211  LYS211      0.1093
     33  NZ         6.6780    7.3870   75.9250 N.3   211  LYS211     -0.1314
     34  N          2.5450    6.0350   83.7680 N.3   213  MET213     -0.1245
     35  CA         1.3890    6.6170   83.1030 C.3   213  MET213      0.1570
     36  C          0.5100    7.4260   84.0440 C.2   213  MET213      0.2261
     37  O         -0.2710    6.8650   84.8140 O.2   213  MET213     -0.2867
     38  CB         0.5650    5.5300   82.4110 C.3   213  MET213      0.0387
     39  CG         1.1660    5.0700   81.0970 C.3   213  MET213      0.0595
     40  SD         1.2250    6.4130   79.8960 S.3   213  MET213     -0.1393
     41  CE         2.6550    5.9420   78.9260 C.3   213  MET213      0.0692
     42  N         -7.0920    0.4380   78.5940 N.3   223  PHE223     -0.1241
     43  CA        -5.7030    0.6780   78.2300 C.3   223  PHE223      0.1605
     44  C         -5.0680   -0.6510   77.8530 C.2   223  PHE223      0.2264
     45  O         -4.4670   -0.7840   76.7860 O.2   223  PHE223     -0.2867
     46  CB        -4.9330    1.3010   79.3960 C.3   223  PHE223      0.0534
     47  CG        -3.5850    1.8570   79.0130 C.ar  223  PHE223     -0.0203
     48  CD1       -3.3710    3.2240   78.9900 C.ar  223  PHE223     -0.0042
     49  CD2       -2.5320    1.0160   78.6820 C.ar  223  PHE223     -0.0042
     50  CE1       -2.1360    3.7430   78.6430 C.ar  223  PHE223     -0.0003
     51  CE2       -1.2970    1.5280   78.3300 C.ar  223  PHE223     -0.0003
     52  CZ        -1.0990    2.8930   78.3130 C.ar  223  PHE223     -0.0000
     53  N         -5.4690   -1.9170   74.4170 N.3   226  GLU226     -0.1231
     54  CA        -4.5970   -1.2580   73.4500 C.3   226  GLU226      0.1699
     55  C         -3.1230   -1.4660   73.8160 C.2   226  GLU226      0.2592
     56  O         -2.2260   -0.8880   73.2020 O.2   226  GLU226     -0.2718
     57  CB        -4.9360    0.2370   73.3560 C.3   226  GLU226      0.0402
     58  CG        -4.3910    0.9520   72.1180 C.3   226  GLU226      0.1161
     59  CD        -5.0340    0.4820   70.8240 C.2   226  GLU226      0.3649
     60  OE1       -4.4490    0.7270   69.7460 O.co2 226  GLU226     -0.2457
     61  OE2       -6.1260   -0.1230   70.8800 O.co2 226  GLU226     -0.2457
     62  N         -2.8810   -2.2980   74.8220 N.am  227  ALA227     -0.1980
     63  CA        -1.5230   -2.6500   75.2140 C.3   227  ALA227      0.1597
     64  C         -1.2760   -4.1330   74.9620 C.2   227  ALA227      0.2287
     65  O         -0.1520   -4.5450   74.6750 O.2   227  ALA227     -0.2864
     66  CB        -1.2820   -2.3040   76.6710 C.3   227  ALA227      0.0319
     67  N         -0.6170   -4.3820   71.3570 N.3   230  MET230     -0.1245
     68  CA         0.7670   -4.0550   71.0360 C.3   230  MET230      0.1570
     69  C          1.7310   -5.1810   71.3890 C.2   230  MET230      0.2261
     70  O          2.9000   -5.1530   71.0030 O.2   230  MET230     -0.2867
     71  CB         1.1850   -2.7620   71.7370 C.3   230  MET230      0.0387
     72  CG         0.2990   -1.5880   71.3890 C.3   230  MET230      0.0595
     73  SD         0.0240   -1.4900   69.6110 S.3   230  MET230     -0.1393
     74  CE        -1.5280   -0.6010   69.5540 C.3   230  MET230      0.0692
     75  N         10.3040   -1.4720   69.5480 N.3   239  VAL239     -0.1245
     76  CA        10.8450   -1.6770   70.8860 C.3   239  VAL239      0.1561
     77  C          9.9910   -2.7070   71.6280 C.2   239  VAL239      0.2260
     78  O          8.7580   -2.6480   71.6060 O.2   239  VAL239     -0.2867
     79  CB        10.9940   -0.3570   71.6900 C.3   239  VAL239      0.0252
     80  CG1        9.6600    0.3740   71.7690 C.3   239  VAL239      0.0019
     81  CG2       11.5300   -0.6480   73.0880 C.3   239  VAL239      0.0019
     82  N          7.8750   -4.7720   74.0410 N.3   241  LEU241     -0.1245
     83  CA         7.0050   -4.6360   75.2000 C.3   241  LEU241      0.1561
     84  C          7.1470   -5.8820   76.0660 C.2   241  LEU241      0.2260
     85  O          6.8600   -6.9910   75.6200 O.2   241  LEU241     -0.2867
     86  CB         5.5530   -4.4640   74.7610 C.3   241  LEU241      0.0270
     87  CG         4.7080   -3.4030   75.4670 C.3   241  LEU241      0.0019
     88  CD1        3.2290   -3.6410   75.1930 C.3   241  LEU241      0.0001
     89  CD2        4.9850   -3.3750   76.9620 C.3   241  LEU241      0.0001
     90  N          4.5910    0.6550   82.1990 N.3   252  ILE252     -0.1245
     91  CA         4.8630   -0.1020   80.9840 C.3   252  ILE252      0.1561
     92  C          6.3400   -0.4680   80.9230 C.2   252  ILE252      0.2260
     93  O          7.2050    0.4080   80.8860 O.2   252  ILE252     -0.2867
     94  CB         4.4910    0.7030   79.7310 C.3   252  ILE252      0.0252
     95  CG1        2.9810    0.9350   79.6780 C.3   252  ILE252      0.0019
     96  CG2        4.9630   -0.0160   78.4770 C.3   252  ILE252      0.0019
     97  CD1        2.1790   -0.3330   79.4860 C.3   252  ILE252      0.0001
     98  N          9.5580   -2.0930   79.0930 N.3   254  THR254     -0.1203
     99  CA        10.1190   -2.4390   77.7960 C.3   254  THR254      0.1994
    100  C         11.5950   -2.7780   77.9280 C.2   254  THR254      0.2618
    101  O         12.1990   -2.5530   78.9770 O.2   254  THR254     -0.2717
    102  CB         9.9760   -1.2810   76.7920 C.3   254  THR254      0.1784
    103  OG1       10.9530   -0.2730   77.0790 O.3   254  THR254     -0.2211
    104  CG2        8.5840   -0.6790   76.8580 C.3   254  THR254      0.0376
    105  N         12.1700   -3.3180   76.8570 N.am  255  GLU255     -0.1965
    106  CA        13.6030   -3.5620   76.8010 C.3   255  GLU255      0.1733
    107  C         14.3340   -2.2390   76.9590 C.2   255  GLU255      0.2616
    108  O         13.8130   -1.1830   76.5910 O.2   255  GLU255     -0.2715
    109  CB        13.9850   -4.2000   75.4660 C.3   255  GLU255      0.0429
    110  CG        13.5650   -3.3770   74.2590 C.3   255  GLU255      0.1163
    111  CD        14.0290   -3.9730   72.9430 C.2   255  GLU255      0.3649
    112  OE1       15.1470   -4.5290   72.8960 O.co2 255  GLU255     -0.2457
    113  OE2       13.2710   -3.8850   71.9550 O.co2 255  GLU255     -0.2457
    114  N         15.5400   -2.2910   77.5100 N.am  256  PHE256     -0.1960
    115  CA        16.3190   -1.0760   77.6830 C.3   256  PHE256      0.1771
    116  C         17.2010   -0.8000   76.4700 C.2   256  PHE256      0.2619
    117  O         18.0330   -1.6250   76.0930 O.2   256  PHE256     -0.2715
    118  CB        17.1620   -1.1370   78.9580 C.3   256  PHE256      0.0574
    119  CG        17.8630    0.1540   79.2790 C.ar  256  PHE256     -0.0200
    120  CD1       17.1500    1.2420   79.7600 C.ar  256  PHE256     -0.0042
    121  CD2       19.2310    0.2800   79.1010 C.ar  256  PHE256     -0.0042
    122  CE1       17.7900    2.4300   80.0590 C.ar  256  PHE256     -0.0003
    123  CE2       19.8770    1.4680   79.3950 C.ar  256  PHE256     -0.0003
    124  CZ        19.1570    2.5440   79.8750 C.ar  256  PHE256     -0.0000
    125  N         17.0040    0.3630   75.8600 N.am  257  MET257     -0.1977
    126  CA        17.8300    0.7900   74.7400 C.3   257  MET257      0.1605
    127  C         18.9630    1.6660   75.2690 C.2   257  MET257      0.2287
    128  O         18.7530    2.8180   75.6460 O.2   257  MET257     -0.2864
    129  CB        16.9820    1.5420   73.7160 C.3   257  MET257      0.0413
    130  CG        15.6920    0.8230   73.3420 C.3   257  MET257      0.0598
    131  SD        15.9690   -0.8220   72.6570 S.3   257  MET257     -0.1393
    132  CE        16.9370   -0.4290   71.2050 C.3   257  MET257      0.0692
    133  N         19.3340    5.6020   74.3860 N.3   260  GLY260     -0.1210
    134  CA        18.2110    6.5230   74.3810 C.3   260  GLY260      0.1956
    135  C         17.6450    6.8120   73.0020 C.2   260  GLY260      0.2612
    136  O         17.6390    5.9490   72.1260 O.2   260  GLY260     -0.2717
    137  N         17.1640    8.0360   72.8130 N.am  261  SER261     -0.1952
    138  CA        16.5420    8.4310   71.5580 C.3   261  SER261      0.1924
    139  C         17.5930    8.7020   70.4940 C.2   261  SER261      0.2314
    140  O         18.7220    9.0910   70.8040 O.2   261  SER261     -0.2863
    141  CB        15.6780    9.6770   71.7490 C.3   261  SER261      0.2116
    142  OG        16.4770   10.8420   71.8380 O.3   261  SER261     -0.2180
    143  N         18.6840   12.3770   70.6810 N.3   264  ASP264     -0.1239
    144  CA        19.7320   12.6640   71.6510 C.3   264  ASP264      0.1674
    145  C         21.0170   11.9120   71.3230 C.2   264  ASP264      0.2266
    146  O         22.0960   12.2870   71.7810 O.2   264  ASP264     -0.2867
    147  CB        19.2590   12.3360   73.0700 C.3   264  ASP264      0.1410
    148  CG        18.0600   13.1690   73.4890 C.2   264  ASP264      0.3668
    149  OD1       18.0110   14.3650   73.1280 O.co2 264  ASP264     -0.2456
    150  OD2       17.1640   12.6230   74.1700 O.co2 264  ASP264     -0.2456
    151  N         13.1090   11.5340   68.0510 N.3   306  ALA306     -0.1245
    152  CA        12.8130   11.4720   69.4770 C.3   306  ALA306      0.1562
    153  C         12.1370   10.1570   69.8490 C.2   306  ALA306      0.2260
    154  O         12.3390    9.6380   70.9470 O.2   306  ALA306     -0.2867
    155  CB        11.9390   12.6460   69.8840 C.3   306  ALA306      0.0290
    156  N         14.5670    4.7220   69.1700 N.3   309  LEU309     -0.1245
    157  CA        15.5430    4.4260   70.2030 C.3   309  LEU309      0.1561
    158  C         16.7210    3.6620   69.6220 C.2   309  LEU309      0.2260
    159  O         16.5860    2.9620   68.6190 O.2   309  LEU309     -0.2867
    160  CB        14.8910    3.6520   71.3470 C.3   309  LEU309      0.0270
    161  CG        13.7730    4.4080   72.0670 C.3   309  LEU309      0.0019
    162  CD1       13.0920    3.5250   73.0960 C.3   309  LEU309      0.0001
    163  CD2       14.3230    5.6700   72.7180 C.3   309  LEU309      0.0001
    164  N         10.0680    3.4470   68.9050 N.3   319  ALA319     -0.1231
    165  CA         9.5070    3.4860   70.2570 C.3   319  ALA319      0.1694
    166  C          7.9930    3.6900   70.1870 C.2   319  ALA319      0.2592
    167  O          7.5120    4.6610   69.6110 O.2   319  ALA319     -0.2718
    168  CB        10.1790    4.5720   71.1180 C.3   319  ALA319      0.0304
    169  N          7.2420    2.7450   70.7560 N.am  320  ASP320     -0.1974
    170  CA         5.7730    2.6240   70.5070 C.3   320  ASP320      0.1709
    171  C          5.0960    3.9550   70.8030 C.2   320  ASP320      0.2293
    172  O          5.2190    4.3790   71.9550 O.2   320  ASP320     -0.2864
    173  CB         5.1300    1.5030   71.3450 C.3   320  ASP320      0.1436
    174  CG         5.9680    0.2290   71.3660 C.2   320  ASP320      0.3671
    175  OD1        6.0980   -0.4370   70.2960 O.co2 320  ASP320     -0.2456
    176  OD2        6.4490   -0.1190   72.4720 O.co2 320  ASP320     -0.2456
    177  N          1.8930    2.5460   69.8640 N.3   322  GLY322     -0.1210
    178  CA         0.6070    2.0980   70.3740 C.3   322  GLY322      0.1956
    179  C         -0.0950    3.1550   71.2140 C.2   322  GLY322      0.2611
    180  O         -1.3180    3.2760   71.1760 O.2   322  GLY322     -0.2717
    181  N          0.6960    3.9090   71.9740 N.am  323  LEU323     -0.1979
    182  CA         0.2440    5.0720   72.7420 C.3   323  LEU323      0.1596
    183  C         -0.5680    6.1040   71.9450 C.2   323  LEU323      0.2287
    184  O         -1.4690    6.7500   72.4880 O.2   323  LEU323     -0.2864
    185  CB         1.4700    5.7500   73.3580 C.3   323  LEU323      0.0297
    186  CG         1.5700    7.2750   73.3780 C.3   323  LEU323      0.0022
    187  CD1        2.1700    7.7070   74.7020 C.3   323  LEU323      0.0001
    188  CD2        2.4120    7.7890   72.2110 C.3   323  LEU323      0.0001
@<TRIPOS>BOND
     1   151   152    1
     2   159   158    2
     3   164   165    1
     4   156   157    1
     5   152   153    1
     6   152   155    1
     7    75    76    1
     8    74    73    1
     9   167   166    2
    10    73    72    1
    11   158   157    1
    12    60    59   ar
    13   153   154    2
    14   177   178    1
    15   166   165    1
    16   166   169   am
    17   157   160    1
    18   165   168    1
    19   175   174   ar
    20   178   179    1
    21   139   140    2
    22   139   138    1
    23   170   169    1
    24   170   171    1
    25   170   173    1
    26   143   144    1
    27   171   172    2
    28    59    61   ar
    29    59    58    1
    30    76    77    1
    31    76    79    1
    32    70    69    2
    33    68    67    1
    34    68    69    1
    35    68    71    1
    36   180   179    2
    37   132   131    1
    38   179   181   am
    39   145   144    1
    40   145   146    2
    41   173   174    1
    42   160   161    1
    43   174   176   ar
    44    72    71    1
    45   138   141    1
    46   138   137    1
    47    78    77    2
    48   144   147    1
    49    79    80    1
    50    79    81    1
    51   141   142    1
    52   183   184    2
    53   183   182    1
    54   113   111   ar
    55   181   182    1
    56   161   163    1
    57   161   162    1
    58    58    57    1
    59   136   135    2
    60   188   186    1
    61   131   130    1
    62   182   185    1
    63   137   135   am
    64   112   111   ar
    65   111   110    1
    66   135   134    1
    67   147   148    1
    68   149   148   ar
    69    56    55    2
    70   130   129    1
    71    57    54    1
    72   185   186    1
    73   186   187    1
    74    54    55    1
    75    54    53    1
    76   148   150   ar
    77   129   126    1
    78    55    62   am
    79    82    83    1
    80   110   109    1
    81   134   133    1
    82    65    64    2
    83   126   127    1
    84   126   125    1
    85    86    83    1
    86    86    87    1
    87    62    63    1
    88    64    63    1
    89    88    87    1
    90    83    84    1
    91    63    66    1
    92   127   128    2
    93   109   106    1
    94    87    89    1
    95    85    84    2
    96   125   116   am
    97    33    32    1
    98   117   116    2
    99   116   115    1
   100   108   107    2
   101    45    44    2
   102   102   104    1
   103   102   103    1
   104   102    99    1
   105   106   105    1
   106   106   107    1
   107   105   100   am
   108   107   114   am
   109    32    31    1
   110   114   115    1
   111   115   118    1
   112    99   100    1
   113    99    98    1
   114    31    30    1
   115    44    43    1
   116   100   101    2
   117    43    42    1
   118    43    46    1
   119    52    51   ar
   120    52    50   ar
   121    51    49   ar
   122    96    94    1
   123    50    48   ar
   124    49    47   ar
   125    41    40    1
   126   118   119    1
   127    48    47   ar
   128    47    46    1
   129   121   119   ar
   130   121   123   ar
   131    19    17    1
   132   119   120   ar
   133    30    29    1
   134   123   124   ar
   135    97    95    1
   136    24    21    1
   137    95    94    1
   138    94    91    1
   139   120   122   ar
   140    29    26    1
   141   124   122   ar
   142    18    17    1
   143    40    39    1
   144    17    14    1
   145     4     3    2
   146    10    11    1
   147    10     9    1
   148     7     6    1
   149    93    92    2
   150    92    91    1
   151    23    22    2
   152    21    20    1
   153    21    22    1
   154    91    90    1
   155     5     6    1
   156     5     2    1
   157     3     9   am
   158     3     2    1
   159    39    38    1
   160    11    12    2
   161    26    25    1
   162    26    27    1
   163     8     6    1
   164    14    13    1
   165    14    15    1
   166     2     1    1
   167    28    27    2
   168    38    35    1
   169    15    16    2
   170    35    34    1
   171    35    36    1
   172    36    37    2
