@<TRIPOS>MOLECULE
tmp/3vs1A00.pdb
 195 178 0 0 0
SMALL
GASTEIGER

@<TRIPOS>ATOM
      1  N          2.8020   -8.7810    5.6580 N.3   180  LEU180     -0.1231
      2  CA         3.8190   -9.0350    6.6710 C.3   180  LEU180      0.1693
      3  C          3.4530  -10.2140    7.5650 C.2   180  LEU180      0.2592
      4  O          4.3280  -10.9240    8.0580 O.2   180  LEU180     -0.2718
      5  CB         4.0390   -7.7830    7.5240 C.3   180  LEU180      0.0284
      6  CG         4.5530   -6.5500    6.7810 C.3   180  LEU180      0.0019
      7  CD1        4.5380   -5.3330    7.6870 C.3   180  LEU180      0.0001
      8  CD2        5.9520   -6.8010    6.2530 C.3   180  LEU180      0.0001
      9  N          2.1580  -10.4140    7.7770 N.am  181  GLY181     -0.1957
     10  CA         1.6840  -11.5010    8.6130 C.3   181  GLY181      0.1869
     11  C          0.1970  -11.7400    8.4410 C.2   181  GLY181      0.2309
     12  O         -0.5680  -10.8080    8.2030 O.2   181  GLY181     -0.2863
     13  N         -1.6450   -8.2120    8.3320 N.3   188  VAL188     -0.1245
     14  CA        -0.9310   -6.9550    8.4920 C.3   188  VAL188      0.1561
     15  C         -0.1000   -6.6890    7.2420 C.2   188  VAL188      0.2260
     16  O          0.6590   -7.5470    6.7920 O.2   188  VAL188     -0.2867
     17  CB        -0.0180   -6.9540    9.7400 C.3   188  VAL188      0.0252
     18  CG1        0.8350   -5.6940    9.7730 C.3   188  VAL188      0.0019
     19  CG2       -0.8530   -7.0640   11.0110 C.3   188  VAL188      0.0019
     20  N          1.7820    0.8090    8.3820 N.3   200  ALA200     -0.1245
     21  CA         1.3650   -0.5750    8.5350 C.3   200  ALA200      0.1562
     22  C         -0.1560   -0.5970    8.5780 C.2   200  ALA200      0.2260
     23  O         -0.7810    0.3130    9.1300 O.2   200  ALA200     -0.2867
     24  CB         1.9490   -1.1730    9.8010 C.3   200  ALA200      0.0290
     25  N         -3.5330   -3.0300    9.4380 N.3   202  LYS202     -0.1245
     26  CA        -4.1980   -4.2390    9.8860 C.3   202  LYS202      0.1561
     27  C         -5.5690   -4.3290    9.2300 C.2   202  LYS202      0.2260
     28  O         -6.4430   -3.4950    9.4670 O.2   202  LYS202     -0.2867
     29  CB        -4.3160   -4.2710   11.4100 C.3   202  LYS202      0.0271
     30  CG        -4.6000   -5.6530   11.9750 C.3   202  LYS202      0.0035
     31  CD        -4.1270   -5.7660   13.4160 C.3   202  LYS202      0.0206
     32  CE        -4.3470   -7.1670   13.9650 C.3   202  LYS202      0.1093
     33  NZ        -3.3050   -7.5410   14.9680 N.3   202  LYS202     -0.1314
     34  N         -8.9830   -6.2680    8.9080 N.3   204  MET204     -0.1245
     35  CA        -9.7680   -7.1400    9.7740 C.3   204  MET204      0.1570
     36  C        -10.7050   -8.0740    9.0170 C.2   204  MET204      0.2261
     37  O        -11.3020   -7.6940    8.0070 O.2   204  MET204     -0.2867
     38  CB       -10.5790   -6.3100   10.7700 C.3   204  MET204      0.0387
     39  CG        -9.7290   -5.5290   11.7540 C.3   204  MET204      0.0595
     40  SD        -8.6820   -6.6110   12.7410 S.3   204  MET204     -0.1393
     41  CE        -7.7760   -5.4110   13.7100 C.3   204  MET204      0.0692
     42  N        -16.4970   -1.8180   16.9110 N.3   214  PHE214     -0.1241
     43  CA       -15.0620   -2.0210   16.7580 C.3   214  PHE214      0.1605
     44  C        -14.3910   -0.6600   16.6960 C.2   214  PHE214      0.2264
     45  O        -13.3180   -0.4510   17.2630 O.2   214  PHE214     -0.2867
     46  CB       -14.7670   -2.7970   15.4730 C.3   214  PHE214      0.0534
     47  CG       -13.3330   -3.2320   15.3360 C.ar  214  PHE214     -0.0203
     48  CD1      -12.9620   -4.5310   15.6400 C.ar  214  PHE214     -0.0042
     49  CD2      -12.3590   -2.3490   14.8930 C.ar  214  PHE214     -0.0042
     50  CE1      -11.6490   -4.9390   15.5140 C.ar  214  PHE214     -0.0003
     51  CE2      -11.0440   -2.7510   14.7680 C.ar  214  PHE214     -0.0003
     52  CZ       -10.6890   -4.0480   15.0780 C.ar  214  PHE214     -0.0000
     53  N        -13.9070    1.3040   20.0320 N.3   217  GLU217     -0.1231
     54  CA       -12.7390    0.9260   20.8190 C.3   217  GLU217      0.1699
     55  C        -11.4470    1.4780   20.2290 C.2   217  GLU217      0.2592
     56  O        -10.5360    1.8620   20.9630 O.2   217  GLU217     -0.2718
     57  CB       -12.6500   -0.5960   20.9390 C.3   217  GLU217      0.0402
     58  CG       -13.9540   -1.2590   21.3510 C.3   217  GLU217      0.1161
     59  CD       -14.4680   -0.7660   22.6910 C.2   217  GLU217      0.3649
     60  OE1      -13.6580   -0.6590   23.6370 O.co2 217  GLU217     -0.2457
     61  OE2      -15.6810   -0.4830   22.7950 O.co2 217  GLU217     -0.2457
     62  N        -11.3660    1.5060   18.9030 N.am  218  ALA218     -0.1980
     63  CA       -10.2020    2.0670   18.2290 C.3   218  ALA218      0.1597
     64  C        -10.0680    3.5400   18.5880 C.2   218  ALA218      0.2287
     65  O         -8.9610    4.0620   18.7300 O.2   218  ALA218     -0.2864
     66  CB       -10.3270    1.8990   16.7290 C.3   218  ALA218      0.0319
     67  N         -8.3900    3.6850   21.9870 N.3   221  MET221     -0.1245
     68  CA        -6.9510    3.4690   21.8670 C.3   221  MET221      0.1570
     69  C         -6.2270    4.7070   21.3480 C.2   221  MET221      0.2261
     70  O         -5.0650    4.9440   21.6770 O.2   221  MET221     -0.2867
     71  CB        -6.6680    2.2820   20.9440 C.3   221  MET221      0.0387
     72  CG        -7.1420    0.9430   21.4770 C.3   221  MET221      0.0595
     73  SD        -6.2710    0.4370   22.9720 S.3   221  MET221     -0.1393
     74  CE        -7.5820    0.5460   24.1860 C.3   221  MET221      0.0692
     75  N          2.3710    1.5420   20.0010 N.3   230  VAL230     -0.1245
     76  CA         2.3400    1.8020   18.5660 C.3   230  VAL230      0.1561
     77  C          1.2980    2.8590   18.2120 C.2   230  VAL230      0.2260
     78  O          0.1400    2.7740   18.6260 O.2   230  VAL230     -0.2867
     79  CB         2.0620    0.5170   17.7590 C.3   230  VAL230      0.0252
     80  CG1        2.0460    0.8190   16.2720 C.3   230  VAL230      0.0019
     81  CG2        3.1030   -0.5350   18.0730 C.3   230  VAL230      0.0019
     82  N         -1.5210    4.7940   16.6240 N.3   232  LEU232     -0.1245
     83  CA        -2.7110    4.6640   15.7900 C.3   232  LEU232      0.1561
     84  C         -2.8160    5.9060   14.9140 C.2   232  LEU232      0.2260
     85  O         -3.0280    7.0090   15.4160 O.2   232  LEU232     -0.2867
     86  CB        -3.9650    4.5430   16.6550 C.3   232  LEU232      0.0270
     87  CG        -4.6270    3.1770   16.8200 C.3   232  LEU232      0.0019
     88  CD1       -5.2960    2.7540   15.5240 C.3   232  LEU232      0.0001
     89  CD2       -3.6100    2.1430   17.2730 C.3   232  LEU232      0.0001
     90  N         -6.9650   -0.8910    9.8480 N.3   243  ILE243     -0.1245
     91  CA        -6.3290   -0.1230   10.9110 C.3   243  ILE243      0.1561
     92  C         -4.9480    0.3310   10.4620 C.2   243  ILE243      0.2260
     93  O         -4.0820   -0.4900   10.1640 O.2   243  ILE243     -0.2867
     94  CB        -6.1910   -0.9490   12.1950 C.3   243  ILE243      0.0252
     95  CG1       -7.5720   -1.3340   12.7260 C.3   243  ILE243      0.0019
     96  CG2       -5.4050   -0.1750   13.2470 C.3   243  ILE243      0.0019
     97  CD1       -8.4280   -0.1460   13.1000 C.3   243  ILE243      0.0001
     98  N         -1.4740    1.9580   11.3240 N.3   245  THR245     -0.1203
     99  CA        -0.5300    2.3330   12.3670 C.3   245  THR245      0.1994
    100  C          0.8050    2.7450   11.7660 C.2   245  THR245      0.2618
    101  O          1.0140    2.6280   10.5590 O.2   245  THR245     -0.2717
    102  CB        -0.2900    1.1810   13.3600 C.3   245  THR245      0.1784
    103  OG1        0.5940    0.2180   12.7740 O.3   245  THR245     -0.2211
    104  CG2       -1.6010    0.5190   13.7380 C.3   245  THR245      0.0376
    105  N          1.7030    3.2360   12.6130 N.am  246  GLU246     -0.1965
    106  CA         3.0510    3.5680   12.1760 C.3   246  GLU246      0.1733
    107  C          3.7650    2.2870   11.7930 C.2   246  GLU246      0.2616
    108  O          3.4630    1.2210   12.3270 O.2   246  GLU246     -0.2715
    109  CB         3.8260    4.2880   13.2810 C.3   246  GLU246      0.0429
    110  CG         3.9090    3.5110   14.5880 C.3   246  GLU246      0.1163
    111  CD         4.7610    4.2140   15.6310 C.2   246  GLU246      0.3649
    112  OE1        5.8060    4.7940   15.2560 O.co2 246  GLU246     -0.2457
    113  OE2        4.3860    4.1870   16.8250 O.co2 246  GLU246     -0.2457
    114  N          4.6980    2.3890   10.8550 N.am  247  PHE247     -0.1960
    115  CA         5.4660    1.2330   10.4350 C.3   247  PHE247      0.1771
    116  C          6.6600    1.0140   11.3620 C.2   247  PHE247      0.2619
    117  O          7.4240    1.9380   11.6350 O.2   247  PHE247     -0.2715
    118  CB         5.9240    1.3820    8.9840 C.3   247  PHE247      0.0574
    119  CG         6.6080    0.1590    8.4400 C.ar  247  PHE247     -0.0200
    120  CD1        5.8700   -0.9480    8.0580 C.ar  247  PHE247     -0.0042
    121  CD2        7.9880    0.1140    8.3180 C.ar  247  PHE247     -0.0042
    122  CE1        6.4920   -2.0770    7.5580 C.ar  247  PHE247     -0.0003
    123  CE2        8.6180   -1.0090    7.8190 C.ar  247  PHE247     -0.0003
    124  CZ         7.8680   -2.1100    7.4360 C.ar  247  PHE247     -0.0000
    125  N          6.8060   -0.2130   11.8520 N.am  248  MET248     -0.1977
    126  CA         7.9260   -0.5690   12.7150 C.3   248  MET248      0.1605
    127  C          8.9130   -1.4250   11.9270 C.2   248  MET248      0.2287
    128  O          8.6950   -2.6190   11.7230 O.2   248  MET248     -0.2864
    129  CB         7.4220   -1.3020   13.9570 C.3   248  MET248      0.0413
    130  CG         6.4340   -0.4840   14.7820 C.3   248  MET248      0.0598
    131  SD         7.2110    0.9110   15.6170 S.3   248  MET248     -0.1393
    132  CE         8.0280    0.0660   16.9680 C.3   248  MET248      0.0692
    133  N         10.0670   -5.0970   12.6310 N.3   251  GLY251     -0.1210
    134  CA         9.0090   -6.0500   12.9220 C.3   251  GLY251      0.1956
    135  C          8.8660   -6.4230   14.3870 C.2   251  GLY251      0.2612
    136  O          9.0690   -5.5960   15.2770 O.2   251  GLY251     -0.2717
    137  N          8.5100   -7.6790   14.6360 N.am  252  SER252     -0.1952
    138  CA         8.2590   -8.1530   15.9920 C.3   252  SER252      0.1924
    139  C          9.5550   -8.3640   16.7570 C.2   252  SER252      0.2314
    140  O         10.6030   -8.6420   16.1690 O.2   252  SER252     -0.2863
    141  CB         7.4820   -9.4690   15.9710 C.3   252  SER252      0.2116
    142  OG         8.3570  -10.5660   15.7680 O.3   252  SER252     -0.2180
    143  N         10.7170  -12.0060   16.1700 N.3   255  ASP255     -0.1239
    144  CA        11.4780  -12.1990   14.9420 C.3   255  ASP255      0.1674
    145  C         12.8330  -11.5000   14.9990 C.2   255  ASP255      0.2266
    146  O         13.8330  -12.0360   14.5220 O.2   255  ASP255     -0.2867
    147  CB        10.6810  -11.7170   13.7260 C.3   255  ASP255      0.1410
    148  CG         9.4610  -12.5780   13.4470 C.2   255  ASP255      0.3668
    149  OD1        9.5200  -13.7980   13.7160 O.co2 255  ASP255     -0.2456
    150  OD2        8.4450  -12.0320   12.9610 O.co2 255  ASP255     -0.2456
    151  N          5.8570  -11.5670   20.5900 N.3   297  ALA297     -0.1245
    152  CA         5.2400  -11.4590   19.2720 C.3   297  ALA297      0.1562
    153  C          4.4050  -10.1860   19.1530 C.2   297  ALA297      0.2260
    154  O          4.1910   -9.6750   18.0520 O.2   297  ALA297     -0.2867
    155  CB         4.3840  -12.6910   18.9750 C.3   297  ALA297      0.0290
    156  N          6.7530   -4.5390   19.0770 N.3   300  LEU300     -0.1245
    157  CA         7.3600   -4.1660   17.8120 C.3   300  LEU300      0.1561
    158  C          8.6690   -3.4190   18.0300 C.2   300  LEU300      0.2260
    159  O          8.8050   -2.6330   18.9690 O.2   300  LEU300     -0.2867
    160  CB         6.3850   -3.3410   16.9700 C.3   300  LEU300      0.0270
    161  CG         5.1330   -4.1010   16.5280 C.3   300  LEU300      0.0019
    162  CD1        4.1710   -3.1930   15.7910 C.3   300  LEU300      0.0001
    163  CD2        5.5230   -5.2770   15.6560 C.3   300  LEU300      0.0001
    164  N          2.8180   -3.4200   20.7120 N.3   310  ALA310     -0.1231
    165  CA         1.8140   -3.5190   19.6570 C.3   310  ALA310      0.1694
    166  C          0.4450   -3.7780   20.2690 C.2   310  ALA310      0.2592
    167  O          0.2020   -4.7850   20.9310 O.2   310  ALA310     -0.2718
    168  CB         2.1720   -4.5740   18.6070 C.3   310  ALA310      0.0304
    169  N         -0.4530   -2.8300   20.0270 N.am  311  ASP311     -0.1974
    170  CA        -1.7400   -2.6880   20.7620 C.3   311  ASP311      0.1709
    171  C         -2.5380   -4.0140   20.7680 C.2   311  ASP311      0.2293
    172  O         -2.7150   -4.5400   19.6490 O.2   311  ASP311     -0.2864
    173  CB        -2.5400   -1.5420   20.1220 C.3   311  ASP311      0.1436
    174  CG        -1.7180   -0.2440   20.0310 C.2   311  ASP311      0.3671
    175  OD1       -2.2290    0.8070   20.4770 O.co2 311  ASP311     -0.2456
    176  OD2       -0.5710   -0.2730   19.4760 O.co2 311  ASP311     -0.2456
    177  N         -5.5190   -3.0300   22.2980 N.3   313  GLY313     -0.1210
    178  CA        -6.9540   -2.8820   22.1470 C.3   313  GLY313      0.1956
    179  C         -7.6530   -4.1030   21.5610 C.2   313  GLY313      0.2611
    180  O         -8.8840   -4.1570   21.5340 O.2   313  GLY313     -0.2717
    181  N         -6.8750   -5.0810   21.0950 N.am  314  LEU314     -0.1979
    182  CA        -7.4230   -6.2840   20.4560 C.3   314  LEU314      0.1596
    183  C         -8.1950   -7.1840   21.4280 C.2   314  LEU314      0.2287
    184  O         -8.9020   -8.1020   21.0110 O.2   314  LEU314     -0.2864
    185  CB        -6.3040   -7.0860   19.7830 C.3   314  LEU314      0.0297
    186  CG        -6.7160   -8.0820   18.6940 C.3   314  LEU314      0.0022
    187  CD1       -7.0290   -7.3600   17.3890 C.3   314  LEU314      0.0001
    188  CD2       -5.6550   -9.1560   18.4800 C.3   314  LEU314      0.0001
    189  N        -12.0160   -6.3170   21.6090 N.3   317  VAL317     -0.1245
    190  CA       -12.6940   -6.6240   20.3560 C.3   317  VAL317      0.1561
    191  C        -12.6890   -8.1230   20.0620 C.2   317  VAL317      0.2260
    192  O        -13.3100   -8.5780   19.1020 O.2   317  VAL317     -0.2867
    193  CB       -12.0530   -5.8720   19.1730 C.3   317  VAL317      0.0252
    194  CG1      -12.3090   -4.3800   19.2730 C.3   317  VAL317      0.0019
    195  CG2      -10.5610   -6.1930   19.0690 C.3   317  VAL317      0.0019
@<TRIPOS>BOND
     1     1     2    1
     2     8     6    1
     3     2     5    1
     4     2     3    1
     5     6     5    1
     6     6     7    1
     7    16    15    2
     8    15    14    1
     9   124   122   ar
    10   124   123   ar
    11   122   120   ar
    12     3     9   am
    13     3     4    2
    14     9    10    1
    15   123   121   ar
    16    37    36    2
    17   120   119   ar
    18    12    11    2
    19   121   119   ar
    20    13    14    1
    21    20    21    1
    22   119   118    1
    23    11    10    1
    24    14    17    1
    25    21    22    1
    26    21    24    1
    27    22    23    2
    28    34    35    1
    29   118   115    1
    30    36    35    1
    31    27    28    2
    32    27    26    1
    33    25    26    1
    34    17    18    1
    35    17    19    1
    36    35    38    1
    37    90    91    1
    38    26    29    1
    39    93    92    2
    40   115   114    1
    41   115   116    1
    42    92    91    1
    43   101   100    2
    44    38    39    1
    45   114   107   am
    46    91    94    1
    47    98    99    1
    48   116   117    2
    49   116   125   am
    50    29    30    1
    51   128   127    2
    52    39    40    1
    53   100    99    1
    54   100   105   am
    55   107   106    1
    56   107   108    2
    57   125   126    1
    58   127   126    1
    59    30    31    1
    60   106   105    1
    61   106   109    1
    62    94    95    1
    63    94    96    1
    64    99   102    1
    65   133   134    1
    66   126   129    1
    67    95    97    1
    68    40    41    1
    69   103   102    1
    70   134   135    1
    71   150   148   ar
    72   109   110    1
    73   102   104    1
    74    31    32    1
    75   148   149   ar
    76   148   147    1
    77   147   144    1
    78   129   130    1
    79    32    33    1
    80   135   137   am
    81   135   136    2
    82   146   145    2
    83   110   111    1
    84   137   138    1
    85    51    49   ar
    86    51    52   ar
    87   130   131    1
    88    49    47   ar
    89    84    85    2
    90    84    83    1
    91   144   145    1
    92   144   143    1
    93    52    50   ar
    94   112   111   ar
    95    47    46    1
    96    47    48   ar
    97    46    43    1
    98    50    48   ar
    99    88    87    1
   100   131   132    1
   101   111   113   ar
   102   163   161    1
   103   142   141    1
   104    83    82    1
   105    83    86    1
   106   162   161    1
   107   141   138    1
   108   138   139    1
   109   140   139    2
   110    80    79    1
   111   161   160    1
   112    86    87    1
   113    44    43    1
   114    44    45    2
   115    66    63    1
   116    43    42    1
   117    87    89    1
   118   160   157    1
   119   187   186    1
   120    79    81    1
   121    79    76    1
   122   157   158    1
   123   157   156    1
   124   158   159    2
   125   154   153    2
   126    77    76    1
   127    77    78    2
   128    63    64    1
   129    63    62    1
   130   188   186    1
   131    76    75    1
   132    64    65    2
   133   168   165    1
   134   186   185    1
   135    62    55   am
   136   155   152    1
   137   195   193    1
   138   192   191    2
   139   153   152    1
   140   193   194    1
   141   193   190    1
   142   152   151    1
   143   176   174   ar
   144   172   171    2
   145   165   166    1
   146   165   164    1
   147   185   182    1
   148   169   166   am
   149   169   170    1
   150   174   173    1
   151   174   175   ar
   152    53    54    1
   153   191   190    1
   154   173   170    1
   155    55    54    1
   156    55    56    2
   157   166   167    2
   158   190   189    1
   159   182   181    1
   160   182   183    1
   161   170   171    1
   162    54    57    1
   163    57    58    1
   164    71    72    1
   165    71    68    1
   166   184   183    2
   167   181   179   am
   168    69    70    2
   169    69    68    1
   170    58    59    1
   171    72    73    1
   172   180   179    2
   173   179   178    1
   174    68    67    1
   175   178   177    1
   176    59    61   ar
   177    59    60   ar
   178    73    74    1
