@<TRIPOS>MOLECULE
tmp/3vs2B00.pdb
 197 185 0 0 0
SMALL
GASTEIGER

@<TRIPOS>ATOM
      1  N         15.3820    8.8510   83.9510 N.3   189  LEU189     -0.1231
      2  CA        16.0570    9.0980   82.6830 C.3   189  LEU189      0.1693
      3  C         15.5340   10.3580   82.0060 C.2   189  LEU189      0.2593
      4  O         16.2760   11.0490   81.3110 O.2   189  LEU189     -0.2718
      5  CB        15.9120    7.8950   81.7480 C.3   189  LEU189      0.0284
      6  CG        16.6920    6.6450   82.1550 C.3   189  LEU189      0.0019
      7  CD1       16.4170    5.5020   81.1930 C.3   189  LEU189      0.0001
      8  CD2       18.1810    6.9490   82.2190 C.3   189  LEU189      0.0001
      9  N         14.2550   10.6570   82.2110 N.am  190  GLY190     -0.1942
     10  CA        13.6560   11.8380   81.6180 C.3   190  GLY190      0.2014
     11  C         12.1990   12.0420   81.9810 C.2   190  GLY190      0.2639
     12  O         11.4790   11.0870   82.2750 O.2   190  GLY190     -0.2714
     13  N         11.7640   13.2990   81.9530 N.am  191  ALA191     -0.1963
     14  CA        10.3910   13.6510   82.2950 C.3   191  ALA191      0.1728
     15  C          9.6880   14.3280   81.1240 C.2   191  ALA191      0.2616
     16  O         10.3350   14.8710   80.2280 O.2   191  ALA191     -0.2715
     17  CB        10.3670   14.5550   83.5190 C.3   191  ALA191      0.0334
     18  N          8.3590   14.2990   81.1400 N.am  192  GLY192     -0.1955
     19  CA         7.5730   14.8990   80.0790 C.3   192  GLY192      0.1869
     20  C          6.1930   15.3250   80.5390 C.2   192  GLY192      0.2309
     21  O          5.8660   15.2390   81.7230 O.2   192  GLY192     -0.2863
     22  N         10.3140    8.5680   82.3440 N.3   197  VAL197     -0.1245
     23  CA        10.9850    7.3420   81.9330 C.3   197  VAL197      0.1561
     24  C         12.1460    7.0470   82.8770 C.2   197  VAL197      0.2260
     25  O         12.9660    7.9230   83.1580 O.2   197  VAL197     -0.2867
     26  CB        11.5010    7.4190   80.4760 C.3   197  VAL197      0.0252
     27  CG1       12.2200    6.1300   80.0940 C.3   197  VAL197      0.0019
     28  CG2       10.3530    7.6910   79.5140 C.3   197  VAL197      0.0019
     29  N         13.5190   -0.7390   81.5340 N.3   209  ALA209     -0.1231
     30  CA        13.1370    0.6650   81.4550 C.3   209  ALA209      0.1694
     31  C         11.6330    0.8110   81.6610 C.2   209  ALA209      0.2592
     32  O         10.8460    0.0430   81.1090 O.2   209  ALA209     -0.2718
     33  CB        13.5560    1.2550   80.1260 C.3   209  ALA209      0.0304
     34  N         11.2330    1.7920   82.4610 N.am  210  VAL210     -0.1966
     35  CA         9.8250    1.9510   82.8020 C.3   210  VAL210      0.1727
     36  C          9.2820    3.3190   82.4200 C.2   210  VAL210      0.2616
     37  O          9.7930    4.3460   82.8670 O.2   210  VAL210     -0.2715
     38  CB         9.5740    1.7330   84.3090 C.3   210  VAL210      0.0290
     39  CG1        8.1050    1.9590   84.6390 C.3   210  VAL210      0.0023
     40  CG2       10.0120    0.3390   84.7280 C.3   210  VAL210      0.0023
     41  N          8.2420    3.3270   81.5940 N.am  211  LYS211     -0.1977
     42  CA         7.5360    4.5600   81.2830 C.3   211  LYS211      0.1596
     43  C          6.3480    4.7000   82.2260 C.2   211  LYS211      0.2287
     44  O          5.3550    3.9820   82.1020 O.2   211  LYS211     -0.2864
     45  CB         7.0670    4.5800   79.8270 C.3   211  LYS211      0.0298
     46  CG         6.8500    5.9820   79.2670 C.3   211  LYS211      0.0038
     47  CD         6.3360    5.9360   77.8350 C.3   211  LYS211      0.0206
     48  CE         6.3630    7.3110   77.1790 C.3   211  LYS211      0.1093
     49  NZ         7.7500    7.7650   76.8800 N.3   211  LYS211     -0.1314
     50  N         -6.8010    1.4440   77.5570 N.3   223  PHE223     -0.1241
     51  CA        -5.3570    1.2900   77.4330 C.3   223  PHE223      0.1605
     52  C         -4.9650   -0.1820   77.4900 C.2   223  PHE223      0.2264
     53  O         -4.0030   -0.6010   76.8470 O.2   223  PHE223     -0.2867
     54  CB        -4.6180    2.0780   78.5150 C.3   223  PHE223      0.0534
     55  CG        -3.1250    2.0880   78.3390 C.ar  223  PHE223     -0.0203
     56  CD1       -2.5140    3.0590   77.5640 C.ar  223  PHE223     -0.0042
     57  CD2       -2.3340    1.1220   78.9400 C.ar  223  PHE223     -0.0042
     58  CE1       -1.1430    3.0680   77.3950 C.ar  223  PHE223     -0.0003
     59  CE2       -0.9640    1.1250   78.7730 C.ar  223  PHE223     -0.0003
     60  CZ        -0.3680    2.1000   78.0000 C.ar  223  PHE223     -0.0000
     61  N         -0.2610   -4.2180   71.2510 N.3   230  MET230     -0.1245
     62  CA         1.1620   -3.8940   71.2480 C.3   230  MET230      0.1570
     63  C          2.0260   -5.0850   71.6520 C.2   230  MET230      0.2261
     64  O          3.1770   -5.1930   71.2290 O.2   230  MET230     -0.2867
     65  CB         1.4520   -2.7200   72.1850 C.3   230  MET230      0.0387
     66  CG         0.5340   -1.5230   72.0180 C.3   230  MET230      0.0595
     67  SD         1.0280   -0.1740   73.1100 S.3   230  MET230     -0.1393
     68  CE        -0.4850    0.7720   73.1990 C.3   230  MET230      0.0692
     69  N         10.9900   -1.6800   69.9080 N.3   239  VAL239     -0.1245
     70  CA        11.3870   -1.9690   71.2830 C.3   239  VAL239      0.1561
     71  C         10.4160   -2.9590   71.9220 C.2   239  VAL239      0.2260
     72  O          9.1990   -2.8120   71.8040 O.2   239  VAL239     -0.2867
     73  CB        11.4920   -0.6800   72.1290 C.3   239  VAL239      0.0252
     74  CG1       11.1190   -0.9390   73.5800 C.3   239  VAL239      0.0019
     75  CG2       12.8910   -0.0900   72.0260 C.3   239  VAL239      0.0019
     76  N          8.0770   -5.0080   74.4460 N.3   241  LEU241     -0.1245
     77  CA         7.2250   -4.7670   75.6030 C.3   241  LEU241      0.1561
     78  C          7.2860   -5.9580   76.5490 C.2   241  LEU241      0.2260
     79  O          6.6840   -7.0010   76.2910 O.2   241  LEU241     -0.2867
     80  CB         5.7780   -4.5220   75.1750 C.3   241  LEU241      0.0270
     81  CG         5.3310   -3.0640   75.0980 C.3   241  LEU241      0.0019
     82  CD1        6.0610   -2.3420   73.9850 C.3   241  LEU241      0.0001
     83  CD2        3.8260   -2.9740   74.9090 C.3   241  LEU241      0.0001
     84  N          4.7920    1.0980   82.0490 N.3   252  ILE252     -0.1245
     85  CA         5.1370    0.3390   80.8500 C.3   252  ILE252      0.1561
     86  C          6.5760   -0.1540   80.9370 C.2   252  ILE252      0.2260
     87  O          7.5120    0.6460   80.9500 O.2   252  ILE252     -0.2867
     88  CB         4.9850    1.1870   79.5750 C.3   252  ILE252      0.0252
     89  CG1        3.5780    1.7770   79.4890 C.3   252  ILE252      0.0019
     90  CG2        5.2870    0.3490   78.3440 C.3   252  ILE252      0.0019
     91  CD1        2.4900    0.7350   79.4730 C.3   252  ILE252      0.0001
     92  N          9.7870   -1.9970   79.4200 N.3   254  THR254     -0.1203
     93  CA        10.3990   -2.3300   78.1400 C.3   254  THR254      0.1994
     94  C         11.8760   -2.6610   78.2990 C.2   254  THR254      0.2618
     95  O         12.4630   -2.4340   79.3570 O.2   254  THR254     -0.2717
     96  CB        10.3060   -1.1590   77.1430 C.3   254  THR254      0.1784
     97  OG1       11.3850   -0.2450   77.3760 O.3   254  THR254     -0.2211
     98  CG2        8.9740   -0.4320   77.2670 C.3   254  THR254      0.0376
     99  N         12.4710   -3.1920   77.2340 N.am  255  GLU255     -0.1965
    100  CA        13.9080   -3.4360   77.1900 C.3   255  GLU255      0.1733
    101  C         14.6650   -2.1220   77.3470 C.2   255  GLU255      0.2616
    102  O         14.1670   -1.0600   76.9680 O.2   255  GLU255     -0.2715
    103  CB        14.2960   -4.1050   75.8690 C.3   255  GLU255      0.0429
    104  CG        13.8840   -3.3190   74.6300 C.3   255  GLU255      0.1163
    105  CD        14.3680   -3.9530   73.3350 C.2   255  GLU255      0.3649
    106  OE1       15.5600   -4.3170   73.2530 O.co2 255  GLU255     -0.2457
    107  OE2       13.5530   -4.0870   72.3980 O.co2 255  GLU255     -0.2457
    108  N         15.8650   -2.1920   77.9110 N.am  256  PHE256     -0.1960
    109  CA        16.6580   -0.9870   78.1160 C.3   256  PHE256      0.1771
    110  C         17.6140   -0.7210   76.9560 C.2   256  PHE256      0.2619
    111  O         18.5330   -1.4990   76.7020 O.2   256  PHE256     -0.2715
    112  CB        17.4310   -1.0520   79.4350 C.3   256  PHE256      0.0574
    113  CG        18.1900    0.2040   79.7450 C.ar  256  PHE256     -0.0200
    114  CD1       17.5310    1.3240   80.2270 C.ar  256  PHE256     -0.0042
    115  CD2       19.5580    0.2720   79.5430 C.ar  256  PHE256     -0.0042
    116  CE1       18.2240    2.4830   80.5090 C.ar  256  PHE256     -0.0003
    117  CE2       20.2560    1.4300   79.8210 C.ar  256  PHE256     -0.0003
    118  CZ        19.5880    2.5360   80.3060 C.ar  256  PHE256     -0.0000
    119  N         17.3900    0.3880   76.2600 N.am  257  MET257     -0.1977
    120  CA        18.2520    0.7910   75.1570 C.3   257  MET257      0.1605
    121  C         19.3870    1.6680   75.6760 C.2   257  MET257      0.2287
    122  O         19.1680    2.8010   76.1080 O.2   257  MET257     -0.2864
    123  CB        17.4380    1.5190   74.0890 C.3   257  MET257      0.0413
    124  CG        16.2110    0.7400   73.6410 C.3   257  MET257      0.0598
    125  SD        16.6250   -0.8680   72.9350 S.3   257  MET257     -0.1393
    126  CE        17.3840   -0.3650   71.3940 C.3   257  MET257      0.0692
    127  N         19.9370    5.4860   74.5300 N.3   260  GLY260     -0.1210
    128  CA        18.8050    6.3970   74.5460 C.3   260  GLY260      0.1956
    129  C         18.2310    6.7230   73.1800 C.2   260  GLY260      0.2612
    130  O         18.2380    5.8860   72.2790 O.2   260  GLY260     -0.2717
    131  N         17.7360    7.9490   73.0270 N.am  261  SER261     -0.1952
    132  CA        17.0560    8.3570   71.8010 C.3   261  SER261      0.1924
    133  C         18.0300    8.6190   70.6600 C.2   261  SER261      0.2314
    134  O         19.1960    8.9490   70.8840 O.2   261  SER261     -0.2863
    135  CB        16.2010    9.6050   72.0360 C.3   261  SER261      0.2116
    136  OG        16.9910   10.7800   71.9590 O.3   261  SER261     -0.2180
    137  N         19.3010   12.4080   70.6200 N.3   264  ASP264     -0.1239
    138  CA        20.3910   12.7090   71.5410 C.3   264  ASP264      0.1674
    139  C         21.6910   12.0120   71.1490 C.2   264  ASP264      0.2266
    140  O         22.7790   12.5280   71.4040 O.2   264  ASP264     -0.2867
    141  CB        19.9960   12.3490   72.9750 C.3   264  ASP264      0.1410
    142  CG        18.8900   13.2390   73.5140 C.2   264  ASP264      0.3668
    143  OD1       17.9200   12.7030   74.0920 O.co2 264  ASP264     -0.2456
    144  OD2       18.9910   14.4760   73.3610 O.co2 264  ASP264     -0.2456
    145  N         13.2220   11.6610   68.2950 N.3   306  ALA306     -0.1231
    146  CA        13.0200   11.6400   69.7390 C.3   306  ALA306      0.1694
    147  C         12.3630   10.3400   70.1930 C.2   306  ALA306      0.2592
    148  O         12.5690    9.8920   71.3220 O.2   306  ALA306     -0.2718
    149  CB        12.1900   12.8330   70.1740 C.3   306  ALA306      0.0304
    150  N         11.5730    9.7380   69.3090 N.am  307  ASN307     -0.1974
    151  CA        10.8990    8.4820   69.6210 C.3   307  ASN307      0.1688
    152  C         11.5350    7.2720   68.9390 C.2   307  ASN307      0.2292
    153  O         10.8660    6.2760   68.6610 O.2   307  ASN307     -0.2864
    154  CB         9.4080    8.5710   69.2930 C.3   307  ASN307      0.1181
    155  CG         8.6670    9.5150   70.2180 C.2   307  ASN307      0.2629
    156  OD1        9.2790   10.3180   70.9220 O.2   307  ASN307     -0.2716
    157  ND2        7.3410    9.4230   70.2230 N.am  307  ASN307     -0.0877
    158  N         14.8520    4.7500   69.6080 N.3   309  LEU309     -0.1245
    159  CA        15.8800    4.4020   70.5810 C.3   309  LEU309      0.1561
    160  C         17.0440    3.6610   69.9360 C.2   309  LEU309      0.2260
    161  O         16.8790    3.0040   68.9100 O.2   309  LEU309     -0.2867
    162  CB        15.2770    3.5720   71.7130 C.3   309  LEU309      0.0270
    163  CG        14.2200    4.2910   72.5540 C.3   309  LEU309      0.0019
    164  CD1       13.5630    3.3280   73.5280 C.3   309  LEU309      0.0001
    165  CD2       14.8250    5.4800   73.2890 C.3   309  LEU309      0.0001
    166  N          9.8110    3.1160   69.3230 N.3   319  ALA319     -0.1231
    167  CA         9.0010    3.0790   70.5370 C.3   319  ALA319      0.1694
    168  C          8.7800    4.4890   71.0530 C.2   319  ALA319      0.2592
    169  O          9.7440    5.1720   71.4020 O.2   319  ALA319     -0.2718
    170  CB         9.6870    2.2550   71.6050 C.3   319  ALA319      0.0304
    171  N          7.5260    4.9330   71.1140 N.am  320  ASP320     -0.1960
    172  CA         6.3610    4.1600   70.6890 C.3   320  ASP320      0.1840
    173  C          6.0340    4.5680   69.2470 C.2   320  ASP320      0.2622
    174  O          6.4490    5.6570   68.8530 O.2   320  ASP320     -0.2715
    175  CB         5.1790    4.4690   71.6140 C.3   320  ASP320      0.1450
    176  CG         4.4580    5.7560   71.2390 C.2   320  ASP320      0.3671
    177  OD1        4.7240    6.8060   71.8650 O.co2 320  ASP320     -0.2456
    178  OD2        3.6150    5.7170   70.3200 O.co2 320  ASP320     -0.2456
    179  N          5.3260    3.7640   68.4350 N.am  321  PHE321     -0.1974
    180  CA         4.8220    2.3940   68.6940 C.3   321  PHE321      0.1639
    181  C          3.6600    2.3220   69.7090 C.2   321  PHE321      0.2290
    182  O          3.7800    1.7410   70.7860 O.2   321  PHE321     -0.2864
    183  CB         5.9860    1.3970   68.9380 C.3   321  PHE321      0.0560
    184  CG         5.5700   -0.0070   69.3210 C.ar  321  PHE321     -0.0200
    185  CD1        4.4010   -0.5910   68.8520 C.ar  321  PHE321     -0.0042
    186  CD2        6.3870   -0.7490   70.1560 C.ar  321  PHE321     -0.0042
    187  CE1        4.0580   -1.8830   69.2320 C.ar  321  PHE321     -0.0003
    188  CE2        6.0530   -2.0340   70.5300 C.ar  321  PHE321     -0.0003
    189  CZ         4.8880   -2.6040   70.0700 C.ar  321  PHE321     -0.0000
    190  N          0.8510    4.2430   72.1130 N.3   323  LEU323     -0.1245
    191  CA         0.6340    5.4320   72.9570 C.3   323  LEU323      0.1561
    192  C         -0.0520    6.6640   72.3550 C.2   323  LEU323      0.2260
    193  O         -1.0830    7.1060   72.8600 O.2   323  LEU323     -0.2867
    194  CB         1.9380    5.8570   73.6400 C.3   323  LEU323      0.0270
    195  CG         2.2530    5.2100   74.9890 C.3   323  LEU323      0.0019
    196  CD1        3.5640    5.7480   75.5160 C.3   323  LEU323      0.0001
    197  CD2        1.1330    5.4550   75.9910 C.3   323  LEU323      0.0001
@<TRIPOS>BOND
     1   145   146    1
     2   179   180    1
     3   179   173   am
     4   153   152    2
     5   180   183    1
     6   180   181    1
     7   185   187   ar
     8   185   184   ar
     9   174   173    2
    10   161   160    2
    11   183   184    1
    12   152   151    1
    13   187   189   ar
    14   173   172    1
    15   154   151    1
    16   154   155    1
    17   150   151    1
    18   150   147   am
    19   184   186   ar
    20   166   167    1
    21   158   159    1
    22   181   182    2
    23   146   149    1
    24   146   147    1
    25    69    70    1
    26   160   159    1
    27   189   188   ar
    28   186   188   ar
    29   147   148    2
    30   155   157   am
    31   155   156    2
    32   178   176   ar
    33   167   168    1
    34   167   170    1
    35   159   162    1
    36   137   138    1
    37   133   134    2
    38   133   132    1
    39   172   171    1
    40   172   175    1
    41   168   171   am
    42   168   169    2
    43   139   140    2
    44   139   138    1
    45    64    63    2
    46   176   175    1
    47   176   177   ar
    48    62    61    1
    49    62    63    1
    50    62    65    1
    51    70    71    1
    52    70    73    1
    53   126   125    1
    54   138   141    1
    55   162   163    1
    56   132   135    1
    57   132   131    1
    58    72    71    2
    59   136   135    1
    60    66    65    1
    61    66    67    1
    62    75    73    1
    63   190   191    1
    64    73    74    1
    65   130   129    2
    66   192   193    2
    67   192   191    1
    68   107   105   ar
    69   163   165    1
    70   163   164    1
    71   125   124    1
    72   191   194    1
    73   141   142    1
    74   131   129   am
    75    67    68    1
    76   129   128    1
    77   106   105   ar
    78   105   104    1
    79   144   142   ar
    80   142   143   ar
    81   194   195    1
    82   124   123    1
    83    82    81    1
    84   123   120    1
    85    76    77    1
    86   127   128    1
    87   104   103    1
    88    83    81    1
    89   195   196    1
    90   195   197    1
    91    81    80    1
    92   120   121    1
    93   120   119    1
    94    80    77    1
    95    77    78    1
    96   121   122    2
    97   103   100    1
    98   119   110   am
    99    79    78    2
   100   111   110    2
   101    53    52    2
   102    49    48    1
   103   110   109    1
   104   102   101    2
   105    96    98    1
   106    96    97    1
   107    96    93    1
   108    48    47    1
   109   100    99    1
   110   100   101    1
   111    99    94   am
   112   101   108   am
   113    58    56   ar
   114    58    60   ar
   115    51    52    1
   116    51    50    1
   117    51    54    1
   118    56    55   ar
   119    47    46    1
   120   108   109    1
   121    60    59   ar
   122   109   112    1
   123    93    94    1
   124    93    92    1
   125    94    95    2
   126    55    54    1
   127    55    57   ar
   128    90    88    1
   129    59    57   ar
   130    46    45    1
   131   112   113    1
   132    91    89    1
   133    89    88    1
   134    28    26    1
   135   115   113   ar
   136   115   117   ar
   137    88    85    1
   138   113   114   ar
   139   117   118   ar
   140    45    42    1
   141    19    20    1
   142    19    18    1
   143    27    26    1
   144    33    30    1
   145   114   116   ar
   146    16    15    2
   147   118   116   ar
   148    26    23    1
   149    20    21    2
   150    85    86    1
   151    85    84    1
   152    86    87    2
   153    32    31    2
   154    15    18   am
   155    15    14    1
   156     7     6    1
   157    42    41    1
   158    42    43    1
   159     4     3    2
   160    30    29    1
   161    30    31    1
   162    41    36   am
   163    10    11    1
   164    10     9    1
   165    31    34   am
   166     5     6    1
   167     5     2    1
   168    23    22    1
   169    23    24    1
   170    13    11   am
   171    13    14    1
   172    11    12    2
   173     3     9   am
   174     3     2    1
   175    44    43    2
   176     6     8    1
   177    14    17    1
   178    36    35    1
   179    36    37    2
   180    34    35    1
   181     2     1    1
   182    35    38    1
   183    24    25    2
   184    38    39    1
   185    38    40    1
