@<TRIPOS>MOLECULE
tmp/3vs2A00.pdb
 192 179 0 0 0
SMALL
GASTEIGER

@<TRIPOS>ATOM
      1  N          3.0910   -9.4320    5.4850 N.3   186  LEU186     -0.1231
      2  CA         4.1380   -9.6810    6.4700 C.3   186  LEU186      0.1693
      3  C          3.8580  -10.9430    7.2730 C.2   186  LEU186      0.2593
      4  O          4.7740  -11.6890    7.6120 O.2   186  LEU186     -0.2718
      5  CB         4.2820   -8.4850    7.4140 C.3   186  LEU186      0.0284
      6  CG         4.8760   -7.2110    6.8140 C.3   186  LEU186      0.0019
      7  CD1        4.8060   -6.0640    7.8100 C.3   186  LEU186      0.0001
      8  CD2        6.3120   -7.4560    6.3730 C.3   186  LEU186      0.0001
      9  N          2.5860  -11.1730    7.5800 N.am  187  GLY187     -0.1942
     10  CA         2.1840  -12.3380    8.3440 C.3   187  GLY187      0.2014
     11  C          0.6810  -12.5350    8.3290 C.2   187  GLY187      0.2639
     12  O         -0.0730  -11.5970    8.0720 O.2   187  GLY187     -0.2714
     13  N          0.2450  -13.7610    8.6040 N.am  188  ALA188     -0.1963
     14  CA        -1.1770  -14.0790    8.6280 C.3   188  ALA188      0.1728
     15  C         -1.5490  -14.7930    9.9200 C.2   188  ALA188      0.2616
     16  O         -0.6800  -15.2900   10.6360 O.2   188  ALA188     -0.2715
     17  CB        -1.5520  -14.9280    7.4230 C.3   188  ALA188      0.0334
     18  N         -2.8440  -14.8420   10.2150 N.am  189  GLY189     -0.1955
     19  CA        -3.3130  -15.4740   11.4330 C.3   189  GLY189      0.1869
     20  C         -4.7500  -15.9550   11.3750 C.2   189  GLY189      0.2309
     21  O         -5.4130  -15.8720   10.3410 O.2   189  GLY189     -0.2863
     22  N         -6.8340  -12.6590   11.0900 N.3   192  GLY192     -0.1210
     23  CA        -6.5140  -11.7360   10.0170 C.3   192  GLY192      0.1956
     24  C         -5.0560  -11.7620    9.6030 C.2   192  GLY192      0.2612
     25  O         -4.3360  -12.7170    9.8920 O.2   192  GLY192     -0.2717
     26  N         -4.6180  -10.7070    8.9200 N.am  193  GLU193     -0.1965
     27  CA        -3.2470  -10.6300    8.4260 C.3   193  GLU193      0.1733
     28  C         -2.6110   -9.2640    8.6800 C.2   193  GLU193      0.2616
     29  O         -3.2790   -8.3280    9.1220 O.2   193  GLU193     -0.2715
     30  CB        -3.1980  -10.9680    6.9330 C.3   193  GLU193      0.0429
     31  CG        -4.5620  -11.2530    6.3160 C.3   193  GLU193      0.1163
     32  CD        -4.4640  -11.9180    4.9580 C.2   193  GLU193      0.3649
     33  OE1       -3.7970  -11.3570    4.0640 O.co2 193  GLU193     -0.2457
     34  OE2       -5.0530  -13.0070    4.7870 O.co2 193  GLU193     -0.2457
     35  N         -1.3130   -9.1610    8.4100 N.am  194  VAL194     -0.1977
     36  CA        -0.5980   -7.8970    8.5570 C.3   194  VAL194      0.1596
     37  C          0.2160   -7.5910    7.3050 C.2   194  VAL194      0.2287
     38  O          0.9810   -8.4280    6.8270 O.2   194  VAL194     -0.2864
     39  CB         0.3240   -7.8820    9.8040 C.3   194  VAL194      0.0276
     40  CG1        1.1770   -6.6120    9.8330 C.3   194  VAL194      0.0022
     41  CG2       -0.4970   -7.9900   11.0790 C.3   194  VAL194      0.0022
     42  N          1.9040    0.1500    8.4050 N.3   206  ALA206     -0.1245
     43  CA         1.5350   -1.2520    8.5550 C.3   206  ALA206      0.1562
     44  C          0.0270   -1.3760    8.7480 C.2   206  ALA206      0.2260
     45  O         -0.6010   -0.5080    9.3560 O.2   206  ALA206     -0.2867
     46  CB         2.2730   -1.8720    9.7170 C.3   206  ALA206      0.0290
     47  N         -3.1360   -4.0070    9.9120 N.3   208  LYS208     -0.1245
     48  CA        -3.7070   -5.2420   10.4280 C.3   208  LYS208      0.1561
     49  C         -5.1220   -5.3940    9.8880 C.2   208  LYS208      0.2260
     50  O         -6.0460   -4.7130   10.3370 O.2   208  LYS208     -0.2867
     51  CB        -3.7190   -5.2500   11.9570 C.3   208  LYS208      0.0271
     52  CG        -3.7800   -6.6470   12.5720 C.3   208  LYS208      0.0035
     53  CD        -3.8670   -6.5840   14.0910 C.3   208  LYS208      0.0206
     54  CE        -3.6600   -7.9530   14.7270 C.3   208  LYS208      0.1093
     55  NZ        -2.2550   -8.4320   14.5840 N.3   208  LYS208     -0.1314
     56  N         -8.2910    3.0590   22.2470 N.3   227  MET227     -0.1245
     57  CA        -6.8820    2.7630   21.9810 C.3   227  MET227      0.1570
     58  C         -6.0960    3.9640   21.4550 C.2   227  MET227      0.2261
     59  O         -4.9060    4.1050   21.7370 O.2   227  MET227     -0.2867
     60  CB        -6.7520    1.6010   20.9930 C.3   227  MET227      0.0387
     61  CG        -7.2880    0.2730   21.5000 C.3   227  MET227      0.0595
     62  SD        -7.3550   -0.9780   20.2000 S.3   227  MET227     -0.1393
     63  CE        -8.3590   -2.2360   20.9850 C.3   227  MET227      0.0692
     64  N          3.0110    1.1540   20.1940 N.3   236  VAL236     -0.1245
     65  CA         3.0490    1.4110   18.7580 C.3   236  VAL236      0.1561
     66  C          1.9760    2.4250   18.3600 C.2   236  VAL236      0.2260
     67  O          0.8330    2.3550   18.8150 O.2   236  VAL236     -0.2867
     68  CB         2.9270    0.1090   17.9210 C.3   236  VAL236      0.0252
     69  CG1        1.6020   -0.5860   18.1800 C.3   236  VAL236      0.0019
     70  CG2        3.0950    0.4090   16.4410 C.3   236  VAL236      0.0019
     71  N         -0.9000    4.2440   16.7680 N.3   238  LEU238     -0.1245
     72  CA        -2.1080    3.8820   16.0350 C.3   238  LEU238      0.1561
     73  C         -2.5970    5.0630   15.1960 C.2   238  LEU238      0.2260
     74  O         -3.2210    5.9900   15.7090 O.2   238  LEU238     -0.2867
     75  CB        -3.1970    3.4130   17.0030 C.3   238  LEU238      0.0270
     76  CG        -4.5890    3.1350   16.4350 C.3   238  LEU238      0.0019
     77  CD1       -4.5110    2.1950   15.2440 C.3   238  LEU238      0.0001
     78  CD2       -5.4910    2.5560   17.5130 C.3   238  LEU238      0.0001
     79  N         -6.6190   -1.8370   10.3930 N.3   249  ILE249     -0.1245
     80  CA        -5.9520   -1.0540   11.4300 C.3   249  ILE249      0.1561
     81  C         -4.6100   -0.5290   10.9290 C.2   249  ILE249      0.2260
     82  O         -3.6860   -1.3030   10.6790 O.2   249  ILE249     -0.2867
     83  CB        -5.7290   -1.8800   12.7080 C.3   249  ILE249      0.0252
     84  CG1       -7.0700   -2.3110   13.3000 C.3   249  ILE249      0.0019
     85  CG2       -4.9390   -1.0790   13.7250 C.3   249  ILE249      0.0019
     86  CD1       -8.0150   -1.1580   13.5460 C.3   249  ILE249      0.0001
     87  N         -1.1860    1.3960   11.3950 N.3   251  THR251     -0.1203
     88  CA        -0.2450    1.7910   12.4350 C.3   251  THR251      0.1994
     89  C          1.1310    2.1250   11.8810 C.2   251  THR251      0.2618
     90  O          1.4160    1.9200   10.7020 O.2   251  THR251     -0.2717
     91  CB        -0.0430    0.6770   13.4890 C.3   251  THR251      0.1784
     92  OG1        0.9040   -0.2830   13.0020 O.3   251  THR251     -0.2211
     93  CG2       -1.3570   -0.0150   13.8260 C.3   251  THR251      0.0376
     94  N          1.9750    2.6390   12.7680 N.am  252  GLU252     -0.1965
     95  CA         3.3930    2.8590   12.5160 C.3   252  GLU252      0.1733
     96  C          4.0690    1.5600   12.0680 C.2   252  GLU252      0.2616
     97  O          3.6920    0.4720   12.5070 O.2   252  GLU252     -0.2715
     98  CB         4.0270    3.3920   13.8050 C.3   252  GLU252      0.0429
     99  CG         5.5340    3.2760   13.9240 C.3   252  GLU252      0.1163
    100  CD         6.0160    3.6420   15.3190 C.2   252  GLU252      0.3649
    101  OE1        7.1820    4.0680   15.4620 O.co2 252  GLU252     -0.2457
    102  OE2        5.2230    3.5020   16.2760 O.co2 252  GLU252     -0.2457
    103  N          5.0540    1.6730   11.1820 N.am  253  PHE253     -0.1960
    104  CA         5.7640    0.4970   10.6860 C.3   253  PHE253      0.1771
    105  C          7.0550    0.2200   11.4570 C.2   253  PHE253      0.2619
    106  O          7.9320    1.0790   11.5530 O.2   253  PHE253     -0.2715
    107  CB         6.0580    0.6290    9.1880 C.3   253  PHE253      0.0574
    108  CG         6.8110   -0.5400    8.6160 C.ar  253  PHE253     -0.0200
    109  CD1        6.1630   -1.7380    8.3540 C.ar  253  PHE253     -0.0042
    110  CD2        8.1660   -0.4430    8.3410 C.ar  253  PHE253     -0.0042
    111  CE1        6.8530   -2.8180    7.8290 C.ar  253  PHE253     -0.0003
    112  CE2        8.8610   -1.5180    7.8180 C.ar  253  PHE253     -0.0003
    113  CZ         8.2040   -2.7070    7.5620 C.ar  253  PHE253     -0.0000
    114  N          7.1630   -0.9910   11.9970 N.am  254  MET254     -0.1977
    115  CA         8.3470   -1.4090   12.7410 C.3   254  MET254      0.1605
    116  C          9.2780   -2.2410   11.8610 C.2   254  MET254      0.2287
    117  O          8.9620   -3.3750   11.5050 O.2   254  MET254     -0.2864
    118  CB         7.9400   -2.2020   13.9840 C.3   254  MET254      0.0413
    119  CG         8.2270   -1.5010   15.3050 C.3   254  MET254      0.0598
    120  SD         7.3090    0.0300   15.5440 S.3   254  MET254     -0.1393
    121  CE         8.5670    1.2400   15.1540 C.3   254  MET254      0.0692
    122  N         10.2960   -6.0460   12.8240 N.3   257  GLY257     -0.1210
    123  CA         9.2510   -6.9920   13.1730 C.3   257  GLY257      0.1956
    124  C          9.0610   -7.2350   14.6580 C.2   257  GLY257      0.2612
    125  O          9.2860   -6.3460   15.4790 O.2   257  GLY257     -0.2717
    126  N          8.6380   -8.4480   15.0010 N.am  258  SER258     -0.1952
    127  CA         8.3490   -8.7930   16.3870 C.3   258  SER258      0.1924
    128  C          9.6270   -9.0670   17.1660 C.2   258  SER258      0.2314
    129  O         10.6710   -9.3620   16.5830 O.2   258  SER258     -0.2863
    130  CB         7.4230  -10.0080   16.4690 C.3   258  SER258      0.2116
    131  OG         8.1480  -11.2130   16.2910 O.3   258  SER258     -0.2180
    132  N         10.9090  -12.8290   16.6620 N.3   261  ASP261     -0.1239
    133  CA        11.6650  -13.0310   15.4310 C.3   261  ASP261      0.1674
    134  C         13.0420  -12.3770   15.4870 C.2   261  ASP261      0.2266
    135  O         14.0310  -12.9630   15.0460 O.2   261  ASP261     -0.2867
    136  CB        10.8850  -12.5000   14.2260 C.3   261  ASP261      0.1410
    137  CG         9.6010  -13.2660   13.9790 C.2   261  ASP261      0.3668
    138  OD1        9.5010  -14.4270   14.4340 O.co2 261  ASP261     -0.2456
    139  OD2        8.6930  -12.7090   13.3230 O.co2 261  ASP261     -0.2456
    140  N          5.9260  -12.1060   20.8760 N.3   303  ALA303     -0.1231
    141  CA         5.2960  -12.0560   19.5590 C.3   303  ALA303      0.1694
    142  C          4.4610  -10.7910   19.3850 C.2   303  ALA303      0.2592
    143  O          4.3230  -10.2780   18.2740 O.2   303  ALA303     -0.2718
    144  CB         4.4440  -13.2920   19.3280 C.3   303  ALA303      0.0304
    145  N          3.9090  -10.2890   20.4850 N.am  304  ASN304     -0.1974
    146  CA         3.1140   -9.0660   20.4470 C.3   304  ASN304      0.1688
    147  C          3.9220   -7.8220   20.8100 C.2   304  ASN304      0.2292
    148  O          3.3620   -6.7750   21.1320 O.2   304  ASN304     -0.2864
    149  CB         1.8790   -9.1900   21.3420 C.3   304  ASN304      0.1181
    150  CG         0.8470  -10.1460   20.7770 C.2   304  ASN304      0.2629
    151  OD1        0.8660  -10.4650   19.5880 O.2   304  ASN304     -0.2716
    152  ND2       -0.0670  -10.6010   21.6270 N.am  304  ASN304     -0.0877
    153  N          6.8440   -5.2730   19.2200 N.3   306  LEU306     -0.1245
    154  CA         7.4760   -4.8970   17.9630 C.3   306  LEU306      0.1561
    155  C          8.8090   -4.1930   18.1990 C.2   306  LEU306      0.2260
    156  O          9.0340   -3.6130   19.2610 O.2   306  LEU306     -0.2867
    157  CB         6.5380   -4.0140   17.1400 C.3   306  LEU306      0.0270
    158  CG         5.1530   -4.5990   16.8490 C.3   306  LEU306      0.0019
    159  CD1        4.3600   -3.6710   15.9480 C.3   306  LEU306      0.0001
    160  CD2        5.2690   -5.9800   16.2290 C.3   306  LEU306      0.0001
    161  N          2.2850   -3.9360   21.1310 N.3   316  ALA316     -0.1231
    162  CA         1.2330   -3.9980   20.1250 C.3   316  ALA316      0.1694
    163  C          0.0610   -4.8460   20.6120 C.2   316  ALA316      0.2592
    164  O          0.1620   -5.5290   21.6340 O.2   316  ALA316     -0.2718
    165  CB         1.7860   -4.5500   18.8210 C.3   316  ALA316      0.0304
    166  N         -1.0470   -4.7830   19.8780 N.am  317  ASP317     -0.1960
    167  CA        -2.2410   -5.5840   20.1640 C.3   317  ASP317      0.1840
    168  C         -2.8540   -5.3200   21.5400 C.2   317  ASP317      0.2622
    169  O         -3.5790   -6.1620   22.0710 O.2   317  ASP317     -0.2715
    170  CB        -1.9590   -7.0860   19.9950 C.3   317  ASP317      0.1450
    171  CG        -1.6670   -7.4700   18.5550 C.2   317  ASP317      0.3671
    172  OD1       -2.1360   -6.7590   17.6410 O.co2 317  ASP317     -0.2456
    173  OD2       -0.9720   -8.4880   18.3380 O.co2 317  ASP317     -0.2456
    174  N         -2.5690   -4.1570   22.1150 N.am  318  PHE318     -0.1974
    175  CA        -3.1340   -3.8050   23.4150 C.3   318  PHE318      0.1639
    176  C         -4.6350   -3.5430   23.3050 C.2   318  PHE318      0.2290
    177  O         -5.0910   -2.8490   22.3950 O.2   318  PHE318     -0.2864
    178  CB        -2.4090   -2.6020   24.0330 C.3   318  PHE318      0.0560
    179  CG        -2.2050   -1.4540   23.0800 C.ar  318  PHE318     -0.0200
    180  CD1       -3.1880   -0.4920   22.9070 C.ar  318  PHE318     -0.0042
    181  CD2       -1.0230   -1.3310   22.3670 C.ar  318  PHE318     -0.0042
    182  CE1       -3.0000    0.5620   22.0340 C.ar  318  PHE318     -0.0003
    183  CE2       -0.8300   -0.2770   21.4930 C.ar  318  PHE318     -0.0003
    184  CZ        -1.8190    0.6700   21.3270 C.ar  318  PHE318     -0.0000
    185  N         -6.8700   -5.0220   22.0380 N.3   320  LEU320     -0.1245
    186  CA        -7.3710   -5.8480   20.9440 C.3   320  LEU320      0.1561
    187  C         -7.5500   -7.3060   21.3620 C.2   320  LEU320      0.2260
    188  O         -8.3580   -8.0340   20.7850 O.2   320  LEU320     -0.2867
    189  CB        -6.4290   -5.7360   19.7380 C.3   320  LEU320      0.0270
    190  CG        -6.5130   -6.7520   18.5980 C.3   320  LEU320      0.0019
    191  CD1       -6.3710   -6.0580   17.2550 C.3   320  LEU320      0.0001
    192  CD2       -5.4360   -7.8160   18.7580 C.3   320  LEU320      0.0001
@<TRIPOS>BOND
     1    33    32   ar
     2    34    32   ar
     3    32    31    1
     4     1     2    1
     5    31    30    1
     6     8     6    1
     7     2     3    1
     8     2     5    1
     9     6     5    1
    10     6     7    1
    11    38    37    2
    12    30    27    1
    13     3     9   am
    14     3     4    2
    15    37    36    1
    16    17    14    1
    17   113   112   ar
    18   113   111   ar
    19     9    10    1
    20   112   110   ar
    21   111   109   ar
    22    12    11    2
    23    11    10    1
    24    11    13   am
    25   110   108   ar
    26   109   108   ar
    27    42    43    1
    28    35    36    1
    29    35    28   am
    30    27    28    1
    31    27    26    1
    32    43    44    1
    33    43    46    1
    34    36    39    1
    35    13    14    1
    36   108   107    1
    37    14    15    1
    38    28    29    2
    39    44    45    2
    40    26    24   am
    41   107   104    1
    42    24    25    2
    43    24    23    1
    44    39    40    1
    45    39    41    1
    46    49    50    2
    47    49    48    1
    48    47    48    1
    49    15    18   am
    50    15    16    2
    51    23    22    1
    52    18    19    1
    53    21    20    2
    54    79    80    1
    55    48    51    1
    56    82    81    2
    57   104   103    1
    58   104   105    1
    59    90    89    2
    60    81    80    1
    61   103    96   am
    62    20    19    1
    63    87    88    1
    64    80    83    1
    65   105   106    2
    66   105   114   am
    67   117   116    2
    68   116   115    1
    69    89    88    1
    70    89    94   am
    71    51    52    1
    72   114   115    1
    73    96    97    2
    74    96    95    1
    75    88    91    1
    76    95    94    1
    77    95    98    1
    78    52    53    1
    79    83    84    1
    80    83    85    1
    81   115   118    1
    82   122   123    1
    83    92    91    1
    84   123   124    1
    85    84    86    1
    86   139   137   ar
    87    91    93    1
    88    98    99    1
    89    99   100    1
    90   137   136    1
    91   137   138   ar
    92   118   119    1
    93    53    54    1
    94   136   133    1
    95    55    54    1
    96   124   126   am
    97   124   125    2
    98   126   127    1
    99   135   134    2
   100   121   120    1
   101    73    74    2
   102    73    72    1
   103    77    76    1
   104   119   120    1
   105   100   101   ar
   106   100   102   ar
   107   133   134    1
   108   133   132    1
   109   159   158    1
   110    72    71    1
   111    72    75    1
   112   160   158    1
   113   131   130    1
   114   127   130    1
   115   127   128    1
   116    76    75    1
   117    76    78    1
   118    70    68    1
   119   129   128    2
   120   158   157    1
   121   157   154    1
   122   191   190    1
   123   172   171   ar
   124    68    69    1
   125    68    65    1
   126   154   155    1
   127   154   153    1
   128   155   156    2
   129   143   142    2
   130   173   171   ar
   131    66    65    1
   132    66    67    2
   133   171   170    1
   134   190   192    1
   135   190   189    1
   136    65    64    1
   137   165   162    1
   138   144   141    1
   139   142   141    1
   140   142   145   am
   141   141   140    1
   142   151   150    2
   143   189   186    1
   144   166   167    1
   145   166   163   am
   146   170   167    1
   147   162   163    1
   148   162   161    1
   149   167   168    1
   150    62    63    1
   151    62    61    1
   152   146   145    1
   153   146   147    1
   154   146   149    1
   155   163   164    2
   156   150   149    1
   157   150   152   am
   158   188   187    2
   159   147   148    2
   160   186   187    1
   161   186   185    1
   162    60    61    1
   163    60    57    1
   164   184   183   ar
   165   184   182   ar
   166    58    59    2
   167    58    57    1
   168   183   181   ar
   169   168   169    2
   170   168   174   am
   171    57    56    1
   172   182   180   ar
   173   174   175    1
   174   181   179   ar
   175   177   176    2
   176   180   179   ar
   177   179   178    1
   178   176   175    1
   179   175   178    1
