@<TRIPOS>MOLECULE
tmp/3vs5A00.pdb
 162 149 0 0 0
SMALL
GASTEIGER

@<TRIPOS>ATOM
      1  N         -9.4050   -2.7360    9.4900 N.3   185  LEU185     -0.1231
      2  CA        -9.6160   -3.6040   10.6440 C.3   185  LEU185      0.1693
      3  C        -10.8290   -3.1390   11.4320 C.2   185  LEU185      0.2592
      4  O        -11.5660   -3.9420   12.0080 O.2   185  LEU185     -0.2718
      5  CB        -8.3830   -3.5850   11.5550 C.3   185  LEU185      0.0284
      6  CG        -7.0950   -4.2000   11.0090 C.3   185  LEU185      0.0019
      7  CD1       -5.9130   -3.9090   11.9170 C.3   185  LEU185      0.0001
      8  CD2       -7.2820   -5.6890   10.8450 C.3   185  LEU185      0.0001
      9  N        -11.0300   -1.8290   11.4550 N.am  186  GLY186     -0.1957
     10  CA       -12.1040   -1.2480   12.2310 C.3   186  GLY186      0.1869
     11  C        -12.3770    0.1790   11.8190 C.2   186  GLY186      0.2309
     12  O        -11.4990    0.8600   11.2860 O.2   186  GLY186     -0.2863
     13  N         -8.8510    2.0800   11.4850 N.3   193  VAL193     -0.1245
     14  CA        -7.6180    1.3630   11.8070 C.3   193  VAL193      0.1561
     15  C         -7.3310    0.3640   10.6880 C.2   193  VAL193      0.2260
     16  O         -8.2180   -0.3860   10.2790 O.2   193  VAL193     -0.2867
     17  CB        -7.7100    0.6160   13.1610 C.3   193  VAL193      0.0252
     18  CG1       -6.4000   -0.0920   13.4650 C.3   193  VAL193      0.0019
     19  CG2       -8.0590    1.5790   14.2850 C.3   193  VAL193      0.0019
     20  N          0.4990   -1.1900   12.0390 N.3   205  ALA205     -0.1245
     21  CA        -0.9240   -0.8810   12.1370 C.3   205  ALA205      0.1562
     22  C         -1.1210    0.6330   12.0600 C.2   205  ALA205      0.2260
     23  O         -0.4100    1.3930   12.7030 O.2   205  ALA205     -0.2867
     24  CB        -1.4930   -1.4300   13.4150 C.3   205  ALA205      0.0290
     25  N         -3.6370    3.8790   12.5480 N.3   207  LYS207     -0.1245
     26  CA        -4.8660    4.5600   12.9280 C.3   207  LYS207      0.1561
     27  C         -4.9860    5.8820   12.1550 C.2   207  LYS207      0.2260
     28  O         -4.2200    6.8190   12.3750 O.2   207  LYS207     -0.2867
     29  CB        -4.9020    4.7980   14.4380 C.3   207  LYS207      0.0271
     30  CG        -6.2290    5.3190   14.9700 C.3   207  LYS207      0.0035
     31  CD        -6.4210    4.9110   16.4280 C.3   207  LYS207      0.0206
     32  CE        -7.6320    5.5840   17.0400 C.3   207  LYS207      0.1093
     33  NZ        -8.1040    4.8290   18.2190 N.3   207  LYS207     -0.1314
     34  N          3.4540   10.7160   23.8900 N.3   226  MET226     -0.1245
     35  CA         3.1380    9.2980   23.7940 C.3   226  MET226      0.1570
     36  C          4.3570    8.5020   23.3290 C.2   226  MET226      0.2261
     37  O          4.5330    7.3490   23.7040 O.2   226  MET226     -0.2867
     38  CB         1.9460    9.0710   22.8550 C.3   226  MET226      0.0387
     39  CG         0.7190    9.9220   23.1550 C.3   226  MET226      0.0595
     40  SD        -0.5580    9.6820   21.9060 S.3   226  MET226     -0.1393
     41  CE        -1.4580   11.2210   22.0010 C.3   226  MET226      0.0692
     42  N          1.3680   -0.3140   23.8610 N.3   235  VAL235     -0.1245
     43  CA         1.6000   -0.5250   22.4320 C.3   235  VAL235      0.1561
     44  C          2.7350    0.4000   21.9660 C.2   235  VAL235      0.2260
     45  O          2.8930    1.5120   22.4770 O.2   235  VAL235     -0.2867
     46  CB         0.3000   -0.3070   21.6040 C.3   235  VAL235      0.0252
     47  CG1        0.1120    1.1430   21.3050 C.3   235  VAL235      0.0019
     48  CG2        0.3330   -1.0990   20.3070 C.3   235  VAL235      0.0019
     49  N          4.3660    2.9950   19.6750 N.3   237  LEU237     -0.1245
     50  CA         4.1150    4.0250   18.6750 C.3   237  LEU237      0.1561
     51  C          5.3870    4.1820   17.8120 C.2   237  LEU237      0.2260
     52  O          6.4360    4.6030   18.2990 O.2   237  LEU237     -0.2867
     53  CB         3.7270    5.3220   19.3980 C.3   237  LEU237      0.0270
     54  CG         3.3450    6.6250   18.6890 C.3   237  LEU237      0.0019
     55  CD1        2.2310    6.4050   17.7000 C.3   237  LEU237      0.0001
     56  CD2        2.9200    7.6770   19.7100 C.3   237  LEU237      0.0001
     57  N         -1.5950    7.4590   12.5900 N.3   248  ILE248     -0.1245
     58  CA        -0.8350    7.0050   13.7560 C.3   248  ILE248      0.1561
     59  C         -0.2970    5.5900   13.5010 C.2   248  ILE248      0.2260
     60  O         -1.0670    4.6190   13.4650 O.2   248  ILE248     -0.2867
     61  CB        -1.7170    7.0200   15.0420 C.3   248  ILE248      0.0252
     62  CG1       -2.1390    8.4570   15.3840 C.3   248  ILE248      0.0019
     63  CG2       -0.9940    6.3720   16.2180 C.3   248  ILE248      0.0019
     64  CD1       -3.2890    8.5650   16.3680 C.3   248  ILE248      0.0001
     65  N          1.6520    2.3180   14.5380 N.3   250  THR250     -0.1203
     66  CA         2.0440    1.5340   15.7100 C.3   250  THR250      0.1994
     67  C          2.4850    0.1240   15.2980 C.2   250  THR250      0.2618
     68  O          2.4270   -0.2280   14.1170 O.2   250  THR250     -0.2717
     69  CB         0.9000    1.4460   16.7600 C.3   250  THR250      0.1784
     70  OG1       -0.0950    0.5130   16.3330 O.3   250  THR250     -0.2211
     71  CG2        0.2740    2.8060   16.9860 C.3   250  THR250      0.0376
     72  N          2.9300   -0.6740   16.2680 N.am  251  GLU251     -0.1965
     73  CA         3.2410   -2.0790   16.0240 C.3   251  GLU251      0.1733
     74  C          1.9460   -2.8210   15.7200 C.2   251  GLU251      0.2616
     75  O          0.8950   -2.4860   16.2810 O.2   251  GLU251     -0.2715
     76  CB         3.9330   -2.7050   17.2390 C.3   251  GLU251      0.0429
     77  CG         3.2020   -2.4980   18.5640 C.3   251  GLU251      0.1163
     78  CD         3.9430   -3.0920   19.7530 C.2   251  GLU251      0.3649
     79  OE1        4.7190   -4.0530   19.5510 O.co2 251  GLU251     -0.2457
     80  OE2        3.7570   -2.6010   20.8920 O.co2 251  GLU251     -0.2457
     81  N          2.0080   -3.8050   14.8180 N.am  252  PHE252     -0.1960
     82  CA         0.8350   -4.6300   14.5250 C.3   252  PHE252      0.1771
     83  C          0.6380   -5.7290   15.5650 C.2   252  PHE252      0.2619
     84  O          1.4900   -6.6060   15.7340 O.2   252  PHE252     -0.2715
     85  CB         0.9020   -5.2690   13.1420 C.3   252  PHE252      0.0574
     86  CG        -0.3310   -6.0630   12.7960 C.ar  252  PHE252     -0.0200
     87  CD1       -1.5130   -5.4140   12.4500 C.ar  252  PHE252     -0.0042
     88  CD2       -0.3240   -7.4510   12.8380 C.ar  252  PHE252     -0.0042
     89  CE1       -2.6590   -6.1340   12.1420 C.ar  252  PHE252     -0.0003
     90  CE2       -1.4740   -8.1760   12.5320 C.ar  252  PHE252     -0.0003
     91  CZ        -2.6380   -7.5160   12.1830 C.ar  252  PHE252     -0.0000
     92  N         -0.5040   -5.6860   16.2420 N.am  253  MET253     -0.1977
     93  CA        -0.8280   -6.6770   17.2540 C.3   253  MET253      0.1605
     94  C         -1.6940   -7.8010   16.6900 C.2   253  MET253      0.2287
     95  O         -2.8870   -7.6230   16.4540 O.2   253  MET253     -0.2864
     96  CB        -1.4810   -5.9910   18.4510 C.3   253  MET253      0.0413
     97  CG        -0.5310   -5.0870   19.2110 C.3   253  MET253      0.0598
     98  SD         0.6200   -6.0490   20.2150 S.3   253  MET253     -0.1393
     99  CE         2.0600   -6.1020   19.1710 C.3   253  MET253      0.0692
    100  N         -5.6550   -8.7360   17.6400 N.3   256  GLY256     -0.1210
    101  CA        -6.6980   -7.7340   17.7070 C.3   256  GLY256      0.1956
    102  C         -6.9220   -7.2790   19.1280 C.2   256  GLY256      0.2612
    103  O         -5.9820   -7.2560   19.9210 O.2   256  GLY256     -0.2717
    104  N         -8.1580   -6.9190   19.4610 N.am  257  SER257     -0.1952
    105  CA        -8.4610   -6.4080   20.8020 C.3   257  SER257      0.1924
    106  C         -8.6840   -7.5180   21.8160 C.2   257  SER257      0.2314
    107  O         -8.8950   -8.6700   21.4550 O.2   257  SER257     -0.2863
    108  CB        -9.6670   -5.4560   20.7790 C.3   257  SER257      0.2116
    109  OG       -10.8660   -6.1250   20.4540 O.3   257  SER257     -0.2180
    110  N        -12.4870   -8.6330   21.4010 N.3   260  ASP260     -0.1239
    111  CA       -12.7470   -9.5770   20.3210 C.3   260  ASP260      0.1674
    112  C        -12.0420  -10.9000   20.5980 C.2   260  ASP260      0.2266
    113  O        -12.4690  -11.9480   20.1160 O.2   260  ASP260     -0.2867
    114  CB       -12.3360   -9.0130   18.9460 C.3   260  ASP260      0.1410
    115  CG       -13.2550   -7.8920   18.4620 C.2   260  ASP260      0.3668
    116  OD1      -14.3320   -7.6630   19.0620 O.co2 260  ASP260     -0.2456
    117  OD2      -12.8970   -7.2390   17.4600 O.co2 260  ASP260     -0.2456
    118  N        -11.7930   -2.9300   24.7170 N.3   302  ALA302     -0.1245
    119  CA       -11.7040   -2.5550   23.3100 C.3   302  ALA302      0.1562
    120  C        -10.4440   -1.7490   23.0030 C.2   302  ALA302      0.2260
    121  O        -10.0370   -1.6400   21.8470 O.2   302  ALA302     -0.2867
    122  CB       -12.9240   -1.7810   22.9050 C.3   302  ALA302      0.0290
    123  N         -4.8230   -4.3230   23.4440 N.3   305  LEU305     -0.1245
    124  CA        -4.4930   -5.2050   22.3180 C.3   305  LEU305      0.1561
    125  C         -3.8340   -6.5150   22.7750 C.2   305  LEU305      0.2260
    126  O         -3.1690   -6.5640   23.8110 O.2   305  LEU305     -0.2867
    127  CB        -3.6270   -4.4830   21.2690 C.3   305  LEU305      0.0270
    128  CG        -4.1790   -3.1960   20.6460 C.3   305  LEU305      0.0019
    129  CD1       -3.1460   -2.5650   19.7300 C.3   305  LEU305      0.0001
    130  CD2       -5.4780   -3.4540   19.8900 C.3   305  LEU305      0.0001
    131  N         -3.5850    0.4360   24.3670 N.3   315  ALA315     -0.1231
    132  CA        -3.6720    1.3380   23.2180 C.3   315  ALA315      0.1694
    133  C         -4.4660    2.6150   23.5340 C.2   315  ALA315      0.2592
    134  O         -5.2180    2.6560   24.5030 O.2   315  ALA315     -0.2718
    135  CB        -4.2860    0.6180   22.0290 C.3   315  ALA315      0.0304
    136  N         -4.3100    3.6300   22.6820 N.am  316  ASP316     -0.1960
    137  CA        -4.8800    4.9720   22.8580 C.3   316  ASP316      0.1840
    138  C         -4.7480    5.5770   24.2390 C.2   316  ASP316      0.2622
    139  O         -5.7270    6.1020   24.7700 O.2   316  ASP316     -0.2715
    140  CB        -6.3670    5.0420   22.4930 C.3   316  ASP316      0.1450
    141  CG        -6.7890    3.9870   21.5240 C.2   316  ASP316      0.3671
    142  OD1       -5.9190    3.4160   20.8400 O.co2 316  ASP316     -0.2456
    143  OD2       -8.0090    3.7420   21.4590 O.co2 316  ASP316     -0.2456
    144  N         -3.5680    5.5260   24.8350 N.am  317  PHE317     -0.1974
    145  CA        -3.4010    6.2390   26.0900 C.3   317  PHE317      0.1639
    146  C         -3.4090    7.7440   25.8050 C.2   317  PHE317      0.2290
    147  O         -2.6550    8.2280   24.9580 O.2   317  PHE317     -0.2864
    148  CB        -2.1290    5.8020   26.8290 C.3   317  PHE317      0.0560
    149  CG        -1.0250    5.3300   25.9290 C.ar  317  PHE317     -0.0200
    150  CD1        0.0110    6.1870   25.5680 C.ar  317  PHE317     -0.0042
    151  CD2       -1.0080    4.0250   25.4570 C.ar  317  PHE317     -0.0042
    152  CE1        1.0420    5.7510   24.7390 C.ar  317  PHE317     -0.0003
    153  CE2        0.0170    3.5820   24.6230 C.ar  317  PHE317     -0.0003
    154  CZ         1.0470    4.4480   24.2650 C.ar  317  PHE317     -0.0000
    155  N         -5.3270    9.7800   24.1390 N.3   319  LEU319     -0.1245
    156  CA        -6.1480   10.1840   22.9870 C.3   319  LEU319      0.1561
    157  C         -7.4460   10.9260   23.3150 C.2   319  LEU319      0.2260
    158  O         -7.8100   11.8670   22.6140 O.2   319  LEU319     -0.2867
    159  CB        -6.4630    8.9720   22.1040 C.3   319  LEU319      0.0270
    160  CG        -5.9560    9.0540   20.6600 C.3   319  LEU319      0.0019
    161  CD1       -4.4420    9.1770   20.6280 C.3   319  LEU319      0.0001
    162  CD2       -6.4150    7.8480   19.8490 C.3   319  LEU319      0.0001
@<TRIPOS>BOND
     1     1     2    1
     2    16    15    2
     3     2     3    1
     4     2     5    1
     5    15    14    1
     6     8     6    1
     7     6     5    1
     8     6     7    1
     9    12    11    2
    10     3     9   am
    11     3     4    2
    12     9    10    1
    13    13    14    1
    14    14    17    1
    15    11    10    1
    16    20    21    1
    17    22    21    1
    18    22    23    2
    19    21    24    1
    20    89    91   ar
    21    89    87   ar
    22    27    28    2
    23    27    26    1
    24    91    90   ar
    25    87    86   ar
    26    90    88   ar
    27    25    26    1
    28    57    58    1
    29    86    88   ar
    30    86    85    1
    31    26    29    1
    32    85    82    1
    33    17    18    1
    34    17    19    1
    35    60    59    2
    36    59    58    1
    37    58    61    1
    38    68    67    2
    39    29    30    1
    40    82    81    1
    41    82    83    1
    42    65    66    1
    43    81    74   am
    44    30    31    1
    45    61    62    1
    46    61    63    1
    47    67    66    1
    48    67    72   am
    49    62    64    1
    50    83    84    2
    51    83    92   am
    52    66    69    1
    53    74    73    1
    54    74    75    2
    55    73    72    1
    56    73    76    1
    57    92    93    1
    58    70    69    1
    59    31    32    1
    60    95    94    2
    61    94    93    1
    62    69    71    1
    63    32    33    1
    64    76    77    1
    65    93    96    1
    66   117   115   ar
    67   100   101    1
    68    55    54    1
    69   101   102    1
    70    51    52    2
    71    51    50    1
    72    96    97    1
    73   115   114    1
    74   115   116   ar
    75    77    78    1
    76    50    53    1
    77    50    49    1
    78    54    53    1
    79    54    56    1
    80   114   111    1
    81   102   104   am
    82   102   103    2
    83    99    98    1
    84    97    98    1
    85   104   105    1
    86    79    78   ar
    87   129   128    1
    88    78    80   ar
    89   162   160    1
    90   130   128    1
    91   113   112    2
    92    48    46    1
    93   111   112    1
    94   111   110    1
    95   109   108    1
    96   161   160    1
    97   128   127    1
    98   160   159    1
    99   108   105    1
   100   105   106    1
   101   142   141   ar
   102   127   124    1
   103    47    46    1
   104   107   106    2
   105   143   141   ar
   106   141   140    1
   107    46    43    1
   108   121   120    2
   109    40    41    1
   110    40    39    1
   111    44    43    1
   112    44    45    2
   113   135   132    1
   114   159   156    1
   115   124   125    1
   116   124   123    1
   117    43    42    1
   118   140   137    1
   119   158   157    2
   120   136   137    1
   121   136   133   am
   122   125   126    2
   123    38    39    1
   124    38    35    1
   125   137   138    1
   126   122   119    1
   127   156   157    1
   128   156   155    1
   129   120   119    1
   130   132   133    1
   131   132   131    1
   132   119   118    1
   133    36    37    2
   134    36    35    1
   135   133   134    2
   136    35    34    1
   137   138   139    2
   138   138   144   am
   139   154   153   ar
   140   154   152   ar
   141   153   151   ar
   142   152   150   ar
   143   144   145    1
   144   147   146    2
   145   151   149   ar
   146   150   149   ar
   147   146   145    1
   148   149   148    1
   149   145   148    1
