@<TRIPOS>MOLECULE
tmp/3vs6B00.pdb
 185 172 0 0 0
SMALL
GASTEIGER

@<TRIPOS>ATOM
      1  N          9.2370    1.4640    2.2980 N.3   189  LEU189     -0.1231
      2  CA         9.4620    2.3760    3.4100 C.3   189  LEU189      0.1693
      3  C         10.6330    1.9030    4.2570 C.2   189  LEU189      0.2592
      4  O         11.3910    2.7130    4.7980 O.2   189  LEU189     -0.2718
      5  CB         8.2010    2.4680    4.2690 C.3   189  LEU189      0.0284
      6  CG         6.9670    2.9430    3.5120 C.3   189  LEU189      0.0019
      7  CD1        5.7110    2.9680    4.3850 C.3   189  LEU189      0.0001
      8  CD2        7.2340    4.3250    2.9450 C.3   189  LEU189      0.0001
      9  N         10.7730    0.5860    4.3690 N.am  190  GLY190     -0.1957
     10  CA        11.8510    0.0010    5.1400 C.3   190  GLY190      0.1869
     11  C         12.2360   -1.3740    4.6280 C.2   190  GLY190      0.2309
     12  O         11.4020   -2.1080    4.0790 O.2   190  GLY190     -0.2863
     13  N          8.9260   -3.3140    4.4720 N.3   197  VAL197     -0.1245
     14  CA         7.6930   -2.6010    4.7750 C.3   197  VAL197      0.1561
     15  C          7.3790   -1.6880    3.5990 C.2   197  VAL197      0.2260
     16  O          8.2380   -0.9090    3.1640 O.2   197  VAL197     -0.2867
     17  CB         7.7800   -1.8010    6.1000 C.3   197  VAL197      0.0252
     18  CG1        6.5930   -0.8340    6.2370 C.3   197  VAL197      0.0019
     19  CG2        7.8240   -2.7480    7.2900 C.3   197  VAL197      0.0019
     20  N         -0.5200   -0.2280    5.0140 N.3   209  ALA209     -0.1231
     21  CA         0.8940   -0.5980    5.0730 C.3   209  ALA209      0.1694
     22  C          1.0310   -2.1190    4.9610 C.2   209  ALA209      0.2592
     23  O          0.2240   -2.8660    5.5410 O.2   209  ALA209     -0.2718
     24  CB         1.5410   -0.0960    6.3530 C.3   209  ALA209      0.0304
     25  N          2.0480   -2.5830    4.2280 N.am  210  VAL210     -0.1966
     26  CA         2.2620   -4.0290    4.0620 C.3   210  VAL210      0.1727
     27  C          3.6500   -4.4520    4.5300 C.2   210  VAL210      0.2616
     28  O          4.6520   -3.7890    4.2160 O.2   210  VAL210     -0.2715
     29  CB         2.0350   -4.5020    2.6000 C.3   210  VAL210      0.0290
     30  CG1        2.1730   -6.0400    2.4910 C.3   210  VAL210      0.0023
     31  CG2        0.6690   -4.0650    2.0940 C.3   210  VAL210      0.0023
     32  N          3.6980   -5.5550    5.2780 N.am  211  LYS211     -0.1977
     33  CA         4.9520   -6.1170    5.7670 C.3   211  LYS211      0.1596
     34  C          5.1710   -7.4800    5.1070 C.2   211  LYS211      0.2287
     35  O          4.4030   -8.4270    5.3240 O.2   211  LYS211     -0.2864
     36  CB         4.9190   -6.2610    7.2940 C.3   211  LYS211      0.0298
     37  CG         6.2440   -6.7020    7.9280 C.3   211  LYS211      0.0038
     38  CD         6.2370   -6.4560    9.4450 C.3   211  LYS211      0.0206
     39  CE         7.6480   -6.4860   10.0240 C.3   211  LYS211      0.1093
     40  NZ         7.8390   -5.4160   11.0460 N.3   211  LYS211     -0.1314
     41  N          2.3090  -19.0480   12.3580 N.3   223  PHE223     -0.1241
     42  CA         2.0930  -17.6220   12.1770 C.3   223  PHE223      0.1605
     43  C          0.6080  -17.3070   12.0400 C.2   223  PHE223      0.2264
     44  O          0.0930  -16.3960   12.6950 O.2   223  PHE223     -0.2867
     45  CB         2.8250  -17.0990   10.9410 C.3   223  PHE223      0.0534
     46  CG         2.3480  -15.7460   10.5050 C.ar  223  PHE223     -0.0203
     47  CD1        2.7700  -14.6040   11.1730 C.ar  223  PHE223     -0.0042
     48  CD2        1.4500  -15.6140    9.4540 C.ar  223  PHE223     -0.0042
     49  CE1        2.3160  -13.3480   10.7920 C.ar  223  PHE223     -0.0003
     50  CE2        0.9880  -14.3640    9.0700 C.ar  223  PHE223     -0.0003
     51  CZ         1.4260  -13.2270    9.7380 C.ar  223  PHE223     -0.0000
     52  N         -1.6150  -14.8080   14.2980 N.3   227  ALA227     -0.1245
     53  CA        -2.3240  -13.6590   13.7460 C.3   227  ALA227      0.1562
     54  C         -3.7830  -13.5980   14.2090 C.2   227  ALA227      0.2260
     55  O         -4.3470  -12.5120   14.3720 O.2   227  ALA227     -0.2867
     56  CB        -2.2470  -13.6770   12.2320 C.3   227  ALA227      0.0290
     57  N         -3.5580  -12.0860   17.6610 N.3   230  MET230     -0.1245
     58  CA        -3.1720  -10.6930   17.4220 C.3   230  MET230      0.1570
     59  C         -4.3170   -9.8290   16.8890 C.2   230  MET230      0.2261
     60  O         -4.4170   -8.6430   17.2140 O.2   230  MET230     -0.2867
     61  CB        -2.0080  -10.6430   16.4310 C.3   230  MET230      0.0387
     62  CG        -0.7080  -11.2400   16.9330 C.3   230  MET230      0.0595
     63  SD         0.4320  -11.5140   15.5550 S.3   230  MET230     -0.1393
     64  CE         2.0170  -11.3410   16.3810 C.3   230  MET230      0.0692
     65  N         -1.4120   -0.5600   16.8050 N.3   239  VAL239     -0.1245
     66  CA        -1.6300   -0.5210   15.3530 C.3   239  VAL239      0.1561
     67  C         -2.7510   -1.5020   14.9620 C.2   239  VAL239      0.2260
     68  O         -2.8230   -2.6210   15.4820 O.2   239  VAL239     -0.2867
     69  CB        -0.3170   -0.8000   14.5490 C.3   239  VAL239      0.0252
     70  CG1        0.1560   -2.2420   14.7180 C.3   239  VAL239      0.0019
     71  CG2       -0.5200   -0.5040   13.0860 C.3   239  VAL239      0.0019
     72  N         -4.4040   -4.2630   12.9650 N.3   241  LEU241     -0.1245
     73  CA        -4.2020   -5.3520   11.9880 C.3   241  LEU241      0.1561
     74  C         -5.4750   -5.6030   11.1620 C.2   241  LEU241      0.2260
     75  O         -6.5230   -5.9450   11.7120 O.2   241  LEU241     -0.2867
     76  CB        -3.7660   -6.6470   12.6950 C.3   241  LEU241      0.0270
     77  CG        -3.5660   -7.9350   11.8820 C.3   241  LEU241      0.0019
     78  CD1       -2.6230   -7.7230   10.7040 C.3   241  LEU241      0.0001
     79  CD2       -3.0290   -9.0600   12.7630 C.3   241  LEU241      0.0001
     80  N          1.4790   -9.0640    5.5520 N.3   252  ILE252     -0.1245
     81  CA         0.7150   -8.5540    6.7010 C.3   252  ILE252      0.1561
     82  C          0.1850   -7.1510    6.3800 C.2   252  ILE252      0.2260
     83  O          0.9430   -6.2810    5.9270 O.2   252  ILE252     -0.2867
     84  CB         1.5990   -8.4920    7.9630 C.3   252  ILE252      0.0252
     85  CG1        2.0770   -9.8960    8.3360 C.3   252  ILE252      0.0019
     86  CG2        0.8580   -7.8440    9.1330 C.3   252  ILE252      0.0019
     87  CD1        3.0660   -9.9340    9.4800 C.3   252  ILE252      0.0001
     88  N         -1.6760   -3.7710    7.8240 N.3   254  THR254     -0.1203
     89  CA        -2.1230   -2.9360    8.9400 C.3   254  THR254      0.1994
     90  C         -2.5160   -1.5630    8.4260 C.2   254  THR254      0.2618
     91  O         -2.2870   -1.2440    7.2520 O.2   254  THR254     -0.2717
     92  CB        -1.0160   -2.7210    9.9870 C.3   254  THR254      0.1784
     93  OG1       -0.0530   -1.7850    9.4790 O.3   254  THR254     -0.2211
     94  CG2       -0.3410   -4.0300   10.3350 C.3   254  THR254      0.0376
     95  N         -3.0870   -0.7480    9.3090 N.am  255  GLU255     -0.1965
     96  CA        -3.3670    0.6490    8.9830 C.3   255  GLU255      0.1733
     97  C         -2.0600    1.3920    8.6850 C.2   255  GLU255      0.2616
     98  O         -0.9870    0.9910    9.1560 O.2   255  GLU255     -0.2715
     99  CB        -4.1240    1.3320   10.1220 C.3   255  GLU255      0.0429
    100  CG        -3.4750    1.1980   11.4960 C.3   255  GLU255      0.1163
    101  CD        -4.2310    1.9720   12.5690 C.2   255  GLU255      0.3649
    102  OE1       -4.9390    2.9460   12.2180 O.co2 255  GLU255     -0.2457
    103  OE2       -4.1180    1.6080   13.7620 O.co2 255  GLU255     -0.2457
    104  N         -2.1480    2.4530    7.8860 N.am  256  PHE256     -0.1960
    105  CA        -0.9770    3.2520    7.5540 C.3   256  PHE256      0.1771
    106  C         -0.8450    4.4570    8.4840 C.2   256  PHE256      0.2619
    107  O         -1.7850    5.2490    8.6320 O.2   256  PHE256     -0.2715
    108  CB        -1.0390    3.7230    6.0990 C.3   256  PHE256      0.0574
    109  CG         0.1830    4.4920    5.6560 C.ar  256  PHE256     -0.0200
    110  CD1        1.3350    3.8190    5.2560 C.ar  256  PHE256     -0.0042
    111  CD2        0.1750    5.8870    5.6220 C.ar  256  PHE256     -0.0042
    112  CE1        2.4630    4.5220    4.8370 C.ar  256  PHE256     -0.0003
    113  CE2        1.3020    6.5990    5.2050 C.ar  256  PHE256     -0.0003
    114  CZ         2.4450    5.9140    4.8110 C.ar  256  PHE256     -0.0000
    115  N          0.3330    4.6100    9.0870 N.am  257  MET257     -0.1977
    116  CA         0.5920    5.7200   10.0040 C.3   257  MET257      0.1605
    117  C          1.4820    6.7820    9.3460 C.2   257  MET257      0.2287
    118  O          2.6460    6.5200    9.0050 O.2   257  MET257     -0.2864
    119  CB         1.2240    5.1880   11.2910 C.3   257  MET257      0.0413
    120  CG         0.3920    4.1010   11.9730 C.3   257  MET257      0.0598
    121  SD        -1.2150    4.6910   12.6020 S.3   257  MET257     -0.1393
    122  CE        -0.6240    5.7550   13.8970 C.3   257  MET257      0.0692
    123  N          5.2270    7.5540   10.3620 N.3   260  GLY260     -0.1210
    124  CA         6.1470    6.4320   10.4860 C.3   260  GLY260      0.1956
    125  C          6.6370    6.1530   11.9050 C.2   260  GLY260      0.2612
    126  O          5.8750    6.2350   12.8690 O.2   260  GLY260     -0.2717
    127  N          7.9190    5.8200   12.0320 N.am  261  SER261     -0.1952
    128  CA         8.5130    5.4420   13.3210 C.3   261  SER261      0.1924
    129  C          8.5800    6.5870   14.3390 C.2   261  SER261      0.2314
    130  O          8.7630    7.7600   13.9700 O.2   261  SER261     -0.2863
    131  CB         9.9300    4.9180   13.0940 C.3   261  SER261      0.2116
    132  OG        10.4460    4.3330   14.2650 O.3   261  SER261     -0.2180
    133  N         12.2590    7.7990   14.1640 N.3   264  ASP264     -0.1239
    134  CA        12.4830    8.7620   13.0880 C.3   264  ASP264      0.1674
    135  C         11.8000   10.1110   13.3460 C.2   264  ASP264      0.2266
    136  O         12.3390   11.1610   12.9890 O.2   264  ASP264     -0.2867
    137  CB        12.0290    8.1910   11.7340 C.3   264  ASP264      0.1410
    138  CG        12.8860    7.0220   11.2700 C.2   264  ASP264      0.3668
    139  OD1       14.0720    6.9540   11.6650 O.co2 264  ASP264     -0.2456
    140  OD2       12.3670    6.1740   10.5080 O.co2 264  ASP264     -0.2456
    141  N         11.6770    2.2290   17.6480 N.3   306  ALA306     -0.1245
    142  CA        11.5610    1.7290   16.2770 C.3   306  ALA306      0.1562
    143  C         10.2560    0.9500   16.0570 C.2   306  ALA306      0.2260
    144  O          9.8130    0.7790   14.9220 O.2   306  ALA306     -0.2867
    145  CB        12.7600    0.8730   15.9200 C.3   306  ALA306      0.0290
    146  N          4.6210    3.5320   16.2520 N.3   309  LEU309     -0.1245
    147  CA         4.2840    4.3640   15.0880 C.3   309  LEU309      0.1561
    148  C          3.5480    5.6310   15.5300 C.2   309  LEU309      0.2260
    149  O          2.9840    5.6720   16.6280 O.2   309  LEU309     -0.2867
    150  CB         3.4440    3.5840   14.0750 C.3   309  LEU309      0.0270
    151  CG         4.1260    2.3640   13.4640 C.3   309  LEU309      0.0019
    152  CD1        3.1530    1.5350   12.6320 C.3   309  LEU309      0.0001
    153  CD2        5.3160    2.7930   12.6200 C.3   309  LEU309      0.0001
    154  N          3.5720   -1.1860   17.5540 N.3   319  ALA319     -0.1231
    155  CA         3.6250   -2.1120   16.4160 C.3   319  ALA319      0.1694
    156  C          4.5160   -3.3220   16.7300 C.2   319  ALA319      0.2592
    157  O          5.2830   -3.2930   17.7020 O.2   319  ALA319     -0.2718
    158  CB         4.1010   -1.3970   15.1600 C.3   319  ALA319      0.0304
    159  N          4.4200   -4.3650   15.9020 N.am  320  ASP320     -0.1960
    160  CA         5.2480   -5.5820   16.0290 C.3   320  ASP320      0.1840
    161  C          5.1060   -6.3640   17.3400 C.2   320  ASP320      0.2622
    162  O          6.0160   -7.1060   17.7160 O.2   320  ASP320     -0.2715
    163  CB         6.7370   -5.2680   15.7920 C.3   320  ASP320      0.1450
    164  CG         7.0650   -5.0160   14.3320 C.2   320  ASP320      0.3671
    165  OD1        6.2680   -5.4270   13.4660 O.co2 320  ASP320     -0.2456
    166  OD2        8.1280   -4.4150   14.0580 O.co2 320  ASP320     -0.2456
    167  N          3.9800   -6.2090   18.0300 N.am  321  PHE321     -0.1974
    168  CA         3.7750   -6.9410   19.2840 C.3   321  PHE321      0.1639
    169  C          3.6800   -8.4620   19.0820 C.2   321  PHE321      0.2290
    170  O          2.9120   -8.9430   18.2400 O.2   321  PHE321     -0.2864
    171  CB         2.5480   -6.4230   20.0550 C.3   321  PHE321      0.0560
    172  CG         1.3630   -6.0880   19.1820 C.ar  321  PHE321     -0.0200
    173  CD1        0.4060   -7.0530   18.8880 C.ar  321  PHE321     -0.0042
    174  CD2        1.1930   -4.7990   18.6800 C.ar  321  PHE321     -0.0042
    175  CE1       -0.6950   -6.7500   18.0910 C.ar  321  PHE321     -0.0003
    176  CE2        0.0990   -4.4850   17.8850 C.ar  321  PHE321     -0.0003
    177  CZ        -0.8510   -5.4640   17.5900 C.ar  321  PHE321     -0.0000
    178  N          5.8260  -10.6530   17.8160 N.3   323  LEU323     -0.1245
    179  CA         6.2730  -11.1410   16.5170 C.3   323  LEU323      0.1561
    180  C          7.6330  -11.8320   16.6190 C.2   323  LEU323      0.2260
    181  O          7.9330  -12.7380   15.8390 O.2   323  LEU323     -0.2867
    182  CB         6.3140  -10.0030   15.4950 C.3   323  LEU323      0.0270
    183  CG         6.1580  -10.4270   14.0350 C.3   323  LEU323      0.0019
    184  CD1        4.7490  -10.9390   13.7910 C.3   323  LEU323      0.0001
    185  CD2        6.4850   -9.2910   13.0770 C.3   323  LEU323      0.0001
@<TRIPOS>BOND
     1    31    29    1
     2     1     2    1
     3    30    29    1
     4    29    26    1
     5     8     6    1
     6    16    15    2
     7     2     3    1
     8     2     5    1
     9     6     5    1
    10     6     7    1
    11    15    14    1
    12    26    25    1
    13    26    27    1
    14    12    11    2
    15    28    27    2
    16    25    22   am
    17     3     9   am
    18     3     4    2
    19     9    10    1
    20    13    14    1
    21    27    32   am
    22    11    10    1
    23    14    17    1
    24   114   112   ar
    25   114   113   ar
    26   112   110   ar
    27    22    21    1
    28    22    23    2
    29    20    21    1
    30    21    24    1
    31    34    35    2
    32    34    33    1
    33   113   111   ar
    34   110   109   ar
    35    32    33    1
    36    80    81    1
    37   111   109   ar
    38   109   108    1
    39    33    36    1
    40    83    82    2
    41   108   105    1
    42    17    18    1
    43    17    19    1
    44    82    81    1
    45    81    84    1
    46    91    90    2
    47    36    37    1
    48   105   104    1
    49   105   106    1
    50    88    89    1
    51   104    97   am
    52    37    38    1
    53    84    85    1
    54    84    86    1
    55    85    87    1
    56    90    89    1
    57    90    95   am
    58   106   107    2
    59   106   115   am
    60    97    96    1
    61    97    98    2
    62    89    92    1
    63    96    95    1
    64    96    99    1
    65   118   117    2
    66    50    48   ar
    67    50    51   ar
    68   115   116    1
    69   117   116    1
    70    38    39    1
    71    48    46   ar
    72    93    92    1
    73    51    49   ar
    74    92    94    1
    75   116   119    1
    76    39    40    1
    77    99   100    1
    78   123   124    1
    79   124   125    1
    80    46    45    1
    81    46    47   ar
    82   140   138   ar
    83    78    77    1
    84    49    47   ar
    85    45    42    1
    86    74    75    2
    87    74    73    1
    88   138   139   ar
    89   138   137    1
    90   119   120    1
    91   100   101    1
    92   137   134    1
    93    77    76    1
    94    77    79    1
    95   125   127   am
    96   125   126    2
    97   120   121    1
    98    73    76    1
    99    73    72    1
   100   127   128    1
   101    43    42    1
   102    43    44    2
   103    42    41    1
   104   102   101   ar
   105    56    53    1
   106   101   103   ar
   107   121   122    1
   108   153   151    1
   109   152   151    1
   110   136   135    2
   111   185   183    1
   112    71    69    1
   113   134   135    1
   114   134   133    1
   115   131   128    1
   116   131   132    1
   117   128   129    1
   118   151   150    1
   119   165   164   ar
   120    53    54    1
   121    53    52    1
   122   184   183    1
   123   130   129    2
   124   183   182    1
   125   166   164   ar
   126   150   147    1
   127    54    55    2
   128   164   163    1
   129    69    70    1
   130    69    66    1
   131   144   143    2
   132    67    66    1
   133    67    68    2
   134   147   148    1
   135   147   146    1
   136   158   155    1
   137    66    65    1
   138   182   179    1
   139   148   149    2
   140    63    64    1
   141    63    62    1
   142   163   160    1
   143   181   180    2
   144   159   160    1
   145   159   156   am
   146   145   142    1
   147   160   161    1
   148   143   142    1
   149   142   141    1
   150   155   156    1
   151   155   154    1
   152    61    62    1
   153    61    58    1
   154   179   180    1
   155   179   178    1
   156   156   157    2
   157    59    60    2
   158    59    58    1
   159   161   162    2
   160   161   167   am
   161    58    57    1
   162   177   176   ar
   163   177   175   ar
   164   176   174   ar
   165   167   168    1
   166   175   173   ar
   167   170   169    2
   168   174   172   ar
   169   173   172   ar
   170   169   168    1
   171   172   171    1
   172   168   171    1
