@<TRIPOS>MOLECULE
tmp/3vs7A00.pdb
 143 130 0 0 0
SMALL
GASTEIGER

@<TRIPOS>ATOM
      1  N        -45.7120   -1.9070    9.8780 N.3   189  LEU189     -0.1231
      2  CA       -45.9690   -2.6890   11.0800 C.3   189  LEU189      0.1693
      3  C        -47.1360   -2.1320   11.8920 C.2   189  LEU189      0.2592
      4  O        -47.9230   -2.8880   12.4600 O.2   189  LEU189     -0.2718
      5  CB       -44.7120   -2.7620   11.9470 C.3   189  LEU189      0.0284
      6  CG       -43.5050   -3.4630   11.3250 C.3   189  LEU189      0.0019
      7  CD1      -42.2940   -3.3330   12.2300 C.3   189  LEU189      0.0001
      8  CD2      -43.8210   -4.9250   11.0510 C.3   189  LEU189      0.0001
      9  N        -47.2430   -0.8090   11.9490 N.am  190  GLY190     -0.1957
     10  CA       -48.2890   -0.1780   12.7320 C.3   190  GLY190      0.1869
     11  C        -48.5390    1.2660   12.3470 C.2   190  GLY190      0.2309
     12  O        -47.6220    1.9800   11.9460 O.2   190  GLY190     -0.2863
     13  N        -45.1010    2.9460   11.6200 N.3   197  VAL197     -0.1245
     14  CA       -43.9120    2.1880   11.9990 C.3   197  VAL197      0.1561
     15  C        -43.6540    1.0720   10.9920 C.2   197  VAL197      0.2260
     16  O        -44.5220    0.2330   10.7410 O.2   197  VAL197     -0.2867
     17  CB       -44.0320    1.5880   13.4210 C.3   197  VAL197      0.0252
     18  CG1      -43.0060    0.4840   13.6290 C.3   197  VAL197      0.0019
     19  CG2      -43.8690    2.6720   14.4730 C.3   197  VAL197      0.0019
     20  N        -35.8970   -0.7180   12.3800 N.3   209  ALA209     -0.1245
     21  CA       -37.2810   -0.2780   12.5250 C.3   209  ALA209      0.1562
     22  C        -37.3820    1.2400   12.3990 C.2   209  ALA209      0.2260
     23  O        -36.6610    1.9770   13.0690 O.2   209  ALA209     -0.2867
     24  CB       -37.8500   -0.7420   13.8580 C.3   209  ALA209      0.0290
     25  N        -39.8020    4.7720   12.4470 N.3   211  LYS211     -0.1245
     26  CA       -41.0440    5.4460   12.7960 C.3   211  LYS211      0.1561
     27  C        -41.1590    6.7550   12.0240 C.2   211  LYS211      0.2260
     28  O        -40.4150    7.7050   12.2730 O.2   211  LYS211     -0.2867
     29  CB       -41.1260    5.7000   14.3030 C.3   211  LYS211      0.0271
     30  CG       -42.5150    6.0950   14.7900 C.3   211  LYS211      0.0035
     31  CD       -42.6900    5.7990   16.2750 C.3   211  LYS211      0.0206
     32  CE       -44.1420    5.9480   16.7090 C.3   211  LYS211      0.1093
     33  NZ       -44.3780    5.3990   18.0750 N.3   211  LYS211     -0.1314
     34  N        -35.1390    0.8260   24.2010 N.3   239  VAL239     -0.1245
     35  CA       -34.9390    0.5740   22.7780 C.3   239  VAL239      0.1561
     36  C        -33.9050    1.5560   22.2100 C.2   239  VAL239      0.2260
     37  O        -33.9590    2.7590   22.4760 O.2   239  VAL239     -0.2867
     38  CB       -36.2830    0.5900   21.9930 C.3   239  VAL239      0.0252
     39  CG1      -36.8080    2.0090   21.8070 C.3   239  VAL239      0.0019
     40  CG2      -36.1290   -0.1050   20.6570 C.3   239  VAL239      0.0019
     41  N        -31.9380    4.0580   20.0400 N.3   241  LEU241     -0.1245
     42  CA       -32.1590    5.0580   19.0060 C.3   241  LEU241      0.1561
     43  C        -30.9180    5.2040   18.1210 C.2   241  LEU241      0.2260
     44  O        -29.9140    5.7840   18.5320 O.2   241  LEU241     -0.2867
     45  CB       -32.5270    6.3970   19.6480 C.3   241  LEU241      0.0270
     46  CG       -32.8010    7.5740   18.7120 C.3   241  LEU241      0.0019
     47  CD1      -33.8210    7.1920   17.6500 C.3   241  LEU241      0.0001
     48  CD2      -33.2800    8.7750   19.5120 C.3   241  LEU241      0.0001
     49  N        -37.5580    8.2630   12.3500 N.3   252  ILE252     -0.1245
     50  CA       -36.7960    7.7990   13.5070 C.3   252  ILE252      0.1561
     51  C        -36.3540    6.3490   13.3110 C.2   252  ILE252      0.2260
     52  O        -37.1810    5.4440   13.1910 O.2   252  ILE252     -0.2867
     53  CB       -37.5900    7.9390   14.8250 C.3   252  ILE252      0.0252
     54  CG1      -37.5380    9.3820   15.3360 C.3   252  ILE252      0.0019
     55  CG2      -37.0210    7.0190   15.8920 C.3   252  ILE252      0.0019
     56  CD1      -38.4310   10.3510   14.5910 C.3   252  ILE252      0.0001
     57  N        -34.5830    3.0450   14.6940 N.3   254  THR254     -0.1203
     58  CA       -34.1770    2.3320   15.9010 C.3   254  THR254      0.1994
     59  C        -33.9140    0.8650   15.6030 C.2   254  THR254      0.2618
     60  O        -34.0550    0.4160   14.4680 O.2   254  THR254     -0.2717
     61  CB       -35.2470    2.4110   17.0070 C.3   254  THR254      0.1784
     62  OG1      -36.4300    1.7200   16.5860 O.3   254  THR254     -0.2211
     63  CG2      -35.5810    3.8580   17.3330 C.3   254  THR254      0.0376
     64  N        -33.5340    0.1190   16.6330 N.am  255  GLU255     -0.1965
     65  CA       -33.3290   -1.3140   16.4890 C.3   255  GLU255      0.1733
     66  C        -34.6590   -2.0040   16.2110 C.2   255  GLU255      0.2616
     67  O        -35.7250   -1.5020   16.5820 O.2   255  GLU255     -0.2715
     68  CB       -32.6720   -1.9000   17.7420 C.3   255  GLU255      0.0429
     69  CG       -33.2890   -1.4230   19.0440 C.3   255  GLU255      0.1163
     70  CD       -32.7140   -2.1210   20.2630 C.2   255  GLU255      0.3649
     71  OE1      -32.1660   -3.2340   20.1140 O.co2 255  GLU255     -0.2457
     72  OE2      -32.8100   -1.5560   21.3730 O.co2 255  GLU255     -0.2457
     73  N        -34.5900   -3.1510   15.5470 N.am  256  PHE256     -0.1960
     74  CA       -35.7860   -3.9170   15.2310 C.3   256  PHE256      0.1771
     75  C        -36.0030   -5.0600   16.2220 C.2   256  PHE256      0.2619
     76  O        -35.2990   -6.0700   16.1850 O.2   256  PHE256     -0.2715
     77  CB       -35.7170   -4.4570   13.8000 C.3   256  PHE256      0.0574
     78  CG       -36.8890   -5.3130   13.4210 C.ar  256  PHE256     -0.0200
     79  CD1      -38.1310   -4.7450   13.1870 C.ar  256  PHE256     -0.0042
     80  CD2      -36.7520   -6.6850   13.3020 C.ar  256  PHE256     -0.0042
     81  CE1      -39.2130   -5.5300   12.8440 C.ar  256  PHE256     -0.0003
     82  CE2      -37.8300   -7.4740   12.9580 C.ar  256  PHE256     -0.0003
     83  CZ       -39.0630   -6.8960   12.7290 C.ar  256  PHE256     -0.0000
     84  N        -36.9780   -4.8910   17.1100 N.am  257  MET257     -0.1977
     85  CA       -37.3350   -5.9410   18.0570 C.3   257  MET257      0.1605
     86  C        -38.1100   -7.0360   17.3310 C.2   257  MET257      0.2287
     87  O        -39.2320   -6.8180   16.8730 O.2   257  MET257     -0.2864
     88  CB       -38.1540   -5.3660   19.2120 C.3   257  MET257      0.0413
     89  CG       -37.5430   -4.1170   19.8350 C.3   257  MET257      0.0598
     90  SD       -35.8840   -4.3560   20.5050 S.3   257  MET257     -0.1393
     91  CE       -36.1880   -5.5790   21.7720 C.3   257  MET257      0.0692
     92  N        -42.0770   -7.9870   18.0520 N.3   260  GLY260     -0.1210
     93  CA       -43.0880   -6.9510   18.1590 C.3   260  GLY260      0.1956
     94  C        -43.2720   -6.3880   19.5530 C.2   260  GLY260      0.2612
     95  O        -42.3170   -6.2680   20.3180 O.2   260  GLY260     -0.2717
     96  N        -44.5100   -6.0350   19.8830 N.am  261  SER261     -0.1952
     97  CA       -44.8100   -5.4720   21.1930 C.3   261  SER261      0.1924
     98  C        -45.1480   -6.5730   22.1920 C.2   261  SER261      0.2314
     99  O        -45.4960   -7.6920   21.8110 O.2   261  SER261     -0.2863
    100  CB       -45.9590   -4.4660   21.1070 C.3   261  SER261      0.2116
    101  OG       -47.2060   -5.1240   20.9840 O.3   261  SER261     -0.2180
    102  N        -48.8230   -7.7710   22.0080 N.3   264  ASP264     -0.1239
    103  CA       -49.0370   -8.6790   20.8930 C.3   264  ASP264      0.1674
    104  C        -48.4630  -10.0470   21.2190 C.2   264  ASP264      0.2266
    105  O        -49.0410  -11.0750   20.8690 O.2   264  ASP264     -0.2867
    106  CB       -48.3900   -8.1300   19.6190 C.3   264  ASP264      0.1410
    107  CG       -49.0220   -6.8290   19.1530 C.2   264  ASP264      0.3668
    108  OD1      -49.6870   -6.1610   19.9710 O.co2 264  ASP264     -0.2456
    109  OD2      -48.8460   -6.4740   17.9670 O.co2 264  ASP264     -0.2456
    110  N        -48.2600   -2.2950   25.3920 N.3   306  ALA306     -0.1245
    111  CA       -48.1970   -1.9060   23.9890 C.3   306  ALA306      0.1562
    112  C        -46.9290   -1.1040   23.6990 C.2   306  ALA306      0.2260
    113  O        -46.4190   -1.1220   22.5790 O.2   306  ALA306     -0.2867
    114  CB       -49.4330   -1.1150   23.6010 C.3   306  ALA306      0.0290
    115  N        -41.4070   -3.5500   23.9680 N.3   309  LEU309     -0.1245
    116  CA       -41.0770   -4.3910   22.8240 C.3   309  LEU309      0.1561
    117  C        -40.2430   -5.6060   23.2260 C.2   309  LEU309      0.2260
    118  O        -39.4900   -5.5570   24.1990 O.2   309  LEU309     -0.2867
    119  CB       -40.3600   -3.5690   21.7550 C.3   309  LEU309      0.0270
    120  CG       -41.0030   -2.2320   21.3880 C.3   309  LEU309      0.0019
    121  CD1      -40.1820   -1.5140   20.3310 C.3   309  LEU309      0.0001
    122  CD2      -42.4290   -2.4340   20.9090 C.3   309  LEU309      0.0001
    123  N        -40.0780    1.4790   24.6490 N.3   319  ALA319     -0.1231
    124  CA       -40.1110    2.1540   23.3530 C.3   319  ALA319      0.1694
    125  C        -40.1360    3.6830   23.4470 C.2   319  ALA319      0.2592
    126  O        -39.2700    4.2920   24.0750 O.2   319  ALA319     -0.2718
    127  CB       -41.2870    1.6480   22.5300 C.3   319  ALA319      0.0304
    128  N        -41.1340    4.2940   22.8130 N.am  320  ASP320     -0.1974
    129  CA       -41.2160    5.7510   22.7170 C.3   320  ASP320      0.1709
    130  C        -41.3710    6.4380   24.0740 C.2   320  ASP320      0.2293
    131  O        -42.4620    6.8620   24.4540 O.2   320  ASP320     -0.2864
    132  CB       -42.3350    6.1760   21.7540 C.3   320  ASP320      0.1436
    133  CG       -43.6450    5.4430   22.0070 C.2   320  ASP320      0.3671
    134  OD1      -44.4850    5.9580   22.7780 O.co2 320  ASP320     -0.2456
    135  OD2      -43.8390    4.3540   21.4240 O.co2 320  ASP320     -0.2456
    136  N        -42.1530   10.7790   24.7850 N.3   323  LEU323     -0.1245
    137  CA       -42.8610   11.2980   23.6170 C.3   323  LEU323      0.1561
    138  C        -44.1710   11.9780   24.0020 C.2   323  LEU323      0.2260
    139  O        -45.0120   12.2530   23.1470 O.2   323  LEU323     -0.2867
    140  CB       -43.1170   10.1950   22.5850 C.3   323  LEU323      0.0270
    141  CG       -42.2180   10.2330   21.3460 C.3   323  LEU323      0.0019
    142  CD1      -40.8000    9.7900   21.6870 C.3   323  LEU323      0.0001
    143  CD2      -42.8020    9.3980   20.2090 C.3   323  LEU323      0.0001
@<TRIPOS>BOND
     1     1     2    1
     2    16    15    2
     3    15    14    1
     4     8     6    1
     5     2     3    1
     6     2     5    1
     7     6     5    1
     8     6     7    1
     9    13    14    1
    10     3     9   am
    11     3     4    2
    12    12    11    2
    13     9    10    1
    14    14    17    1
    15    27    28    2
    16    27    26    1
    17    11    10    1
    18    49    50    1
    19    20    21    1
    20    22    21    1
    21    22    23    2
    22    25    26    1
    23    21    24    1
    24    83    81   ar
    25    83    82   ar
    26    26    29    1
    27    81    79   ar
    28    82    80   ar
    29    79    78   ar
    30    52    51    2
    31    80    78   ar
    32    51    50    1
    33    17    18    1
    34    17    19    1
    35    78    77    1
    36    50    53    1
    37    77    74    1
    38    29    30    1
    39    60    59    2
    40    56    54    1
    41    57    58    1
    42    30    31    1
    43    53    54    1
    44    53    55    1
    45    74    73    1
    46    74    75    1
    47    73    66   am
    48    59    58    1
    49    59    64   am
    50    58    61    1
    51    76    75    2
    52    66    65    1
    53    66    67    2
    54    75    84   am
    55    31    32    1
    56    65    64    1
    57    65    68    1
    58    62    61    1
    59    32    33    1
    60    87    86    2
    61    61    63    1
    62    84    85    1
    63    86    85    1
    64    47    46    1
    65    68    69    1
    66   109   107   ar
    67    92    93    1
    68    85    88    1
    69    43    44    2
    70    43    42    1
    71    93    94    1
    72    46    48    1
    73    46    45    1
    74    42    45    1
    75    42    41    1
    76    69    70    1
    77   107   106    1
    78   107   108   ar
    79    88    89    1
    80    94    96   am
    81    94    95    2
    82   106   103    1
    83    89    90    1
    84    96    97    1
    85    71    70   ar
    86   143   141    1
    87    70    72   ar
    88   121   120    1
    89    90    91    1
    90    40    38    1
    91   105   104    2
    92   103   104    1
    93   103   102    1
    94   122   120    1
    95   101   100    1
    96   100    97    1
    97    97    98    1
    98   141   142    1
    99   141   140    1
   100   120   119    1
   101   135   133   ar
   102   132   133    1
   103   132   129    1
   104   119   116    1
   105    39    38    1
   106    99    98    2
   107    38    35    1
   108   133   134   ar
   109    36    37    2
   110    36    35    1
   111   127   124    1
   112   113   112    2
   113   140   137    1
   114   129   128    1
   115   129   130    1
   116    35    34    1
   117   128   125   am
   118   116   117    1
   119   116   115    1
   120   139   138    2
   121   117   118    2
   122   124   125    1
   123   124   123    1
   124   125   126    2
   125   114   111    1
   126   137   138    1
   127   137   136    1
   128   112   111    1
   129   111   110    1
   130   130   131    2
