@<TRIPOS>MOLECULE
tmp/3vs9F00.pdb
 199 194 0 0 0
SMALL
GASTEIGER

@<TRIPOS>ATOM
      1  N         -9.2630   50.2430   95.7060 N.3    27  LEU27      -0.1231
      2  CA        -8.4050   49.0710   95.6080 C.3    27  LEU27       0.1693
      3  C         -9.1710   47.7500   95.8460 C.2    27  LEU27       0.2592
      4  O         -8.8540   46.7230   95.1910 O.2    27  LEU27      -0.2718
      5  CB        -7.0870   49.2250   96.3890 C.3    27  LEU27       0.0284
      6  CG        -6.0010   48.1600   96.0950 C.3    27  LEU27       0.0019
      7  CD1       -5.2550   48.4410   94.8010 C.3    27  LEU27       0.0001
      8  CD2       -4.9990   48.0120   97.2600 C.3    27  LEU27       0.0001
      9  N        -10.2030   47.7880   96.7080 N.am   28  THR28      -0.1953
     10  CA       -11.0290   46.5880   96.9790 C.3    28  THR28       0.1897
     11  C        -11.8530   46.1890   95.7110 C.2    28  THR28       0.2313
     12  O        -11.8600   44.9880   95.2870 O.2    28  THR28      -0.2863
     13  CB       -11.8510   46.7500   98.2900 C.3    28  THR28       0.1794
     14  OG1      -10.9290   46.9710   99.3620 O.3    28  THR28      -0.2208
     15  CG2      -12.6110   45.4720   98.6580 C.3    28  THR28       0.0378
     16  N        -11.1400   46.9040   92.5790 N.3    30  TYR30      -0.1227
     17  CA       -10.0510   46.3330   91.8320 C.3    30  TYR30       0.1736
     18  C         -9.7340   44.8910   92.1780 C.2    30  TYR30       0.2596
     19  O         -9.6490   44.0210   91.2660 O.2    30  TYR30      -0.2718
     20  CB        -8.8040   47.2090   91.9320 C.3    30  TYR30       0.0548
     21  CG        -7.7090   46.7570   90.9910 C.ar   30  TYR30      -0.0200
     22  CD1       -7.8580   46.8850   89.6150 C.ar   30  TYR30      -0.0009
     23  CD2       -6.5360   46.1720   91.4780 C.ar   30  TYR30      -0.0009
     24  CE1       -6.8910   46.4510   88.7500 C.ar   30  TYR30       0.0417
     25  CE2       -5.5510   45.7090   90.6040 C.ar   30  TYR30       0.0417
     26  CZ        -5.7440   45.8610   89.2390 C.ar   30  TYR30       0.1957
     27  OH        -4.7780   45.4260   88.3490 O.3    30  TYR30      -0.2866
     28  N         -9.6010   44.5890   93.4600 N.am   31  GLY31      -0.1957
     29  CA        -9.2800   43.2190   93.8820 C.3    31  GLY31       0.1869
     30  C        -10.4040   42.2280   93.5990 C.2    31  GLY31       0.2309
     31  O        -10.1280   41.1230   93.1820 O.2    31  GLY31      -0.2863
     32  N        -10.0690   53.4320  107.9220 N.3    72  ARG72      -0.1245
     33  CA       -10.0590   52.2410  108.7210 C.3    72  ARG72       0.1563
     34  C         -8.6100   51.7350  109.0050 C.2    72  ARG72       0.2260
     35  O         -7.7390   51.8450  108.1250 O.2    72  ARG72      -0.2867
     36  CB       -10.8550   51.1970  107.9690 C.3    72  ARG72       0.0307
     37  CG       -12.3580   51.4380  108.0400 C.3    72  ARG72       0.0489
     38  CD       -13.0490   50.2550  107.3570 C.3    72  ARG72       0.2205
     39  NE       -12.7810   50.3020  105.9290 N.pl3  72  ARG72      -0.0865
     40  CZ       -12.7300   49.2580  105.0900 C.cat  72  ARG72       0.5346
     41  NH1      -12.8960   47.9690  105.4690 N.pl3  72  ARG72       0.1354
     42  NH2      -12.4640   49.5080  103.8310 N.pl3  72  ARG72       0.1354
     43  N         -6.4080   48.9100  108.7650 N.3    74  LEU74      -0.1245
     44  CA        -6.4520   47.6330  108.1310 C.3    74  LEU74       0.1561
     45  C         -5.0220   47.0970  107.9810 C.2    74  LEU74       0.2260
     46  O         -4.3600   47.2950  106.9610 O.2    74  LEU74      -0.2867
     47  CB        -7.1270   47.7890  106.7650 C.3    74  LEU74       0.0270
     48  CG        -8.5550   48.3760  106.7150 C.3    74  LEU74       0.0019
     49  CD1       -8.9930   48.6480  105.2120 C.3    74  LEU74       0.0001
     50  CD2       -9.5740   47.5210  107.3930 C.3    74  LEU74       0.0001
     51  N         -3.9510   44.3690  107.0660 N.3    76  TYR76      -0.1227
     52  CA        -3.7630   43.4150  105.9650 C.3    76  TYR76       0.1736
     53  C         -4.1740   44.0370  104.5960 C.2    76  TYR76       0.2595
     54  O         -4.3200   43.3360  103.5910 O.2    76  TYR76      -0.2718
     55  CB        -4.5160   42.1250  106.2670 C.3    76  TYR76       0.0548
     56  CG        -3.8850   41.3630  107.3950 C.ar   76  TYR76      -0.0200
     57  CD1       -2.7080   40.6350  107.1830 C.ar   76  TYR76      -0.0009
     58  CD2       -4.4210   41.3970  108.6810 C.ar   76  TYR76      -0.0009
     59  CE1       -2.0960   39.9130  108.2280 C.ar   76  TYR76       0.0417
     60  CE2       -3.8330   40.6980  109.7380 C.ar   76  TYR76       0.0417
     61  CZ        -2.6480   39.9600  109.5050 C.ar   76  TYR76       0.1957
     62  OH        -2.0150   39.2280  110.5020 O.3    76  TYR76      -0.2866
     63  N         -4.3630   45.3480  104.6270 N.am   77  PHE77      -0.1963
     64  CA        -4.4480   46.2440  103.4360 C.3    77  PHE77       0.1756
     65  C         -3.0600   46.8850  103.1330 C.2    77  PHE77       0.2461
     66  O         -2.3820   47.3790  104.0210 O.2    77  PHE77      -0.2730
     67  CB        -5.4540   47.3800  103.7060 C.3    77  PHE77       0.0574
     68  CG        -5.7830   48.2010  102.4900 C.ar   77  PHE77      -0.0200
     69  CD1       -6.8660   47.8580  101.6810 C.ar   77  PHE77      -0.0042
     70  CD2       -5.0140   49.2940  102.1490 C.ar   77  PHE77      -0.0042
     71  CE1       -7.1860   48.6060  100.5420 C.ar   77  PHE77      -0.0003
     72  CE2       -5.3240   50.0800  101.0070 C.ar   77  PHE77      -0.0003
     73  CZ        -6.4130   49.7130  100.2020 C.ar   77  PHE77      -0.0000
     74  N         -2.6390   46.9050  101.8610 N.am   78  PRO78      -0.2727
     75  CA        -1.3320   47.5440  101.6710 C.3    78  PRO78       0.1402
     76  C         -1.2310   49.0250  102.1450 C.2    78  PRO78       0.2269
     77  O         -2.2040   49.7910  102.1100 O.2    78  PRO78      -0.2865
     78  CB        -1.0840   47.4190  100.1400 C.3    78  PRO78       0.0296
     79  CG        -2.4200   47.1700   99.5150 C.3    78  PRO78       0.0237
     80  CD        -3.2790   46.4960  100.6000 C.3    78  PRO78       0.0939
     81  N          0.6270   46.3710   93.3170 N.3    89  ILE89      -0.1245
     82  CA         1.1190   46.3710   94.6820 C.3    89  ILE89       0.1561
     83  C          2.5800   45.9530   94.6840 C.2    89  ILE89       0.2260
     84  O          2.9170   44.8850   94.1740 O.2    89  ILE89      -0.2867
     85  CB         0.3330   45.3490   95.5720 C.3    89  ILE89       0.0252
     86  CG1       -1.1860   45.3990   95.2930 C.3    89  ILE89       0.0019
     87  CG2        0.6880   45.5350   97.0530 C.3    89  ILE89       0.0019
     88  CD1       -1.9170   46.6100   95.8580 C.3    89  ILE89       0.0001
     89  N         -3.6770   38.2980  100.7820 N.3   102  PHE102     -0.1241
     90  CA        -4.4560   38.1740   99.5220 C.3   102  PHE102      0.1605
     91  C         -3.5220   37.9200   98.3780 C.2   102  PHE102      0.2264
     92  O         -2.3260   38.0410   98.5300 O.2   102  PHE102     -0.2867
     93  CB        -5.2470   39.4420   99.2630 C.3   102  PHE102      0.0534
     94  CG        -4.3700   40.6440   99.0810 C.ar  102  PHE102     -0.0203
     95  CD1       -3.8140   40.9260   97.8470 C.ar  102  PHE102     -0.0042
     96  CD2       -4.0230   41.4340  100.1710 C.ar  102  PHE102     -0.0042
     97  CE1       -2.9740   42.0480   97.6810 C.ar  102  PHE102     -0.0003
     98  CE2       -3.1870   42.5420  100.0290 C.ar  102  PHE102     -0.0003
     99  CZ        -2.6730   42.8560   98.7650 C.ar  102  PHE102     -0.0000
    100  N         -3.6440   38.4050   93.9960 N.3   104  ILE104     -0.1245
    101  CA        -4.4960   38.7910   92.8810 C.3   104  ILE104      0.1561
    102  C         -3.7580   38.5390   91.6140 C.2   104  ILE104      0.2260
    103  O         -3.9840   39.2270   90.6510 O.2   104  ILE104     -0.2867
    104  CB        -4.8900   40.2840   92.8830 C.3   104  ILE104      0.0252
    105  CG1       -3.6710   41.1910   93.0620 C.3   104  ILE104      0.0019
    106  CG2       -5.9640   40.5770   93.9100 C.3   104  ILE104      0.0019
    107  CD1       -4.0600   42.6980   93.2010 C.3   104  ILE104      0.0001
    108  N         -9.9880   41.9680  111.7500 N.3   214  MET214     -0.1230
    109  CA       -10.9750   41.6360  110.7490 C.3   214  MET214      0.1702
    110  C        -10.4330   41.5690  109.3250 C.2   214  MET214      0.2593
    111  O        -10.9780   40.8330  108.4590 O.2   214  MET214     -0.2718
    112  CB       -12.1630   42.6180  110.8610 C.3   214  MET214      0.0401
    113  CG       -12.6380   42.7190  112.3100 C.3   214  MET214      0.0596
    114  SD       -13.3240   41.1240  112.9250 S.3   214  MET214     -0.1393
    115  CE       -14.6600   40.7390  111.8060 C.3   214  MET214      0.0692
    116  N         -9.4010   42.3560  109.0570 N.am  215  SER215     -0.1952
    117  CA        -8.8890   42.4750  107.6920 C.3   215  SER215      0.1924
    118  C         -8.0780   41.2210  107.3450 C.2   215  SER215      0.2314
    119  O         -7.8400   40.9160  106.1680 O.2   215  SER215     -0.2863
    120  CB        -8.0690   43.7820  107.5380 C.3   215  SER215      0.2116
    121  OG        -6.8330   43.7610  108.2790 O.3   215  SER215     -0.2180
    122  N         -9.3400   38.6040  107.4560 N.3   217  HIS217     -0.1226
    123  CA       -10.3500   37.7110  106.9040 C.3   217  HIS217      0.1752
    124  C        -10.8400   38.2410  105.5840 C.2   217  HIS217      0.2596
    125  O        -11.8160   37.7790  105.0040 O.2   217  HIS217     -0.2718
    126  CB       -11.4160   37.4280  107.9370 C.3   217  HIS217      0.0759
    127  CG       -10.8430   36.7330  109.1300 C.ar  217  HIS217      0.0818
    128  ND1      -10.5280   35.3930  109.1110 N.ar  217  HIS217     -0.2268
    129  CD2      -10.4130   37.2090  110.3270 C.ar  217  HIS217      0.1154
    130  CE1       -9.9390   35.0650  110.2560 C.ar  217  HIS217      0.1986
    131  NE2       -9.8550   36.1470  111.0130 N.ar  217  HIS217     -0.2212
    132  N        -10.1060   39.1810  105.0190 N.am  218  ASN218     -0.1960
    133  CA       -10.5390   39.5970  103.6630 C.3   218  ASN218      0.1819
    134  C        -10.8570   38.4450  102.7480 C.2   218  ASN218      0.2621
    135  O        -10.1590   37.4150  102.7550 O.2   218  ASN218     -0.2715
    136  CB        -9.4990   40.4850  102.9760 C.3   218  ASN218      0.1195
    137  CG        -8.1940   39.7480  102.6510 C.2   218  ASN218      0.2630
    138  OD1       -7.2490   39.7160  103.4660 O.2   218  ASN218     -0.2716
    139  ND2       -8.0770   39.2790  101.4310 N.am  218  ASN218     -0.0877
    140  N        -11.8920   38.6610  101.9200 N.am  219  ASN219     -0.1958
    141  CA       -12.4920   37.6700  101.0740 C.3   219  ASN219      0.1819
    142  C        -12.8400   38.4400   99.8350 C.2   219  ASN219      0.2621
    143  O        -13.8220   39.1650   99.8270 O.2   219  ASN219     -0.2715
    144  CB       -13.7760   37.1090  101.6790 C.3   219  ASN219      0.1195
    145  CG       -14.3620   35.9510  100.8500 C.2   219  ASN219      0.2630
    146  OD1      -13.8050   35.5410   99.8020 O.2   219  ASN219     -0.2716
    147  ND2      -15.4870   35.4090  101.3260 N.am  219  ASN219     -0.0877
    148  N        -11.9990   38.3750   98.8290 N.am  220  ILE220     -0.1977
    149  CA       -12.2400   39.1400   97.6230 C.3   220  ILE220      0.1596
    150  C        -12.7490   38.2300   96.4990 C.2   220  ILE220      0.2287
    151  O        -13.1000   38.7070   95.4130 O.2   220  ILE220     -0.2864
    152  CB       -10.9570   39.8550   97.1810 C.3   220  ILE220      0.0276
    153  CG1       -9.8140   38.8510   97.0080 C.3   220  ILE220      0.0022
    154  CG2      -10.4920   40.9180   98.2950 C.3   220  ILE220      0.0022
    155  CD1       -8.6920   39.4180   96.1630 C.3   220  ILE220      0.0001
    156  N        -19.4030   43.6900  103.8820 N.3   230  SER230     -0.1202
    157  CA       -18.5010   43.3220  104.9550 C.3   230  SER230      0.2020
    158  C        -17.1710   43.8570  104.6690 C.2   230  SER230      0.2618
    159  O        -16.4860   44.3410  105.5640 O.2   230  SER230     -0.2717
    160  CB       -18.3130   41.8120  105.0460 C.3   230  SER230      0.2103
    161  OG       -19.3590   41.3700  105.8270 O.3   230  SER230     -0.2182
    162  N        -16.7570   43.6920  103.4220 N.am  231  ALA231     -0.1979
    163  CA       -15.3960   44.0300  103.0620 C.3   231  ALA231      0.1597
    164  C        -15.0990   45.5230  103.3600 C.2   231  ALA231      0.2287
    165  O        -13.9670   45.9080  103.6570 O.2   231  ALA231     -0.2864
    166  CB       -15.1500   43.7150  101.5510 C.3   231  ALA231      0.0319
    167  N        -15.7190   46.5580  107.9770 N.3   234  PHE234     -0.1241
    168  CA       -14.9790   46.0480  109.1600 C.3   234  PHE234      0.1605
    169  C        -13.5530   46.5590  109.1810 C.2   234  PHE234      0.2264
    170  O        -12.9500   46.8190  108.1230 O.2   234  PHE234     -0.2867
    171  CB       -15.0430   44.5000  109.2200 C.3   234  PHE234      0.0534
    172  CG       -16.4150   43.9850  109.6500 C.ar  234  PHE234     -0.0203
    173  CD1      -16.7280   43.8040  111.0180 C.ar  234  PHE234     -0.0042
    174  CD2      -17.3880   43.7650  108.7140 C.ar  234  PHE234     -0.0042
    175  CE1      -17.9850   43.3610  111.3990 C.ar  234  PHE234     -0.0003
    176  CE2      -18.6750   43.3410  109.1040 C.ar  234  PHE234     -0.0003
    177  CZ       -18.9700   43.1270  110.4270 C.ar  234  PHE234     -0.0000
    178  N        -20.8570   33.4410  110.6750 N.3   276  TRP276     -0.1241
    179  CA       -19.4310   33.7430  110.7390 C.3   276  TRP276      0.1605
    180  C        -18.8590   32.3830  111.0360 C.2   276  TRP276      0.2264
    181  O        -19.0220   31.8640  112.1680 O.2   276  TRP276     -0.2867
    182  CB       -19.1910   34.7810  111.8620 C.3   276  TRP276      0.0550
    183  CG       -17.7490   35.2920  112.1000 C.ar  276  TRP276      0.0003
    184  CD1      -17.0170   35.2250  113.2930 C.ar  276  TRP276      0.0946
    185  CD2      -16.8930   35.9430  111.1470 C.ar  276  TRP276      0.0152
    186  NE1      -15.7700   35.8200  113.1250 N.ar  276  TRP276     -0.2442
    187  CE2      -15.6810   36.2850  111.8280 C.ar  276  TRP276      0.0810
    188  CE3      -17.0450   36.3150  109.7880 C.ar  276  TRP276      0.0012
    189  CZ2      -14.6290   36.9610  111.1830 C.ar  276  TRP276      0.0191
    190  CZ3      -16.0130   36.9900  109.1650 C.ar  276  TRP276      0.0001
    191  CH2      -14.8060   37.2820  109.8510 C.ar  276  TRP276      0.0015
    192  N        -18.3060   35.2920  106.3390 N.3   285  MET285     -0.1245
    193  CA       -19.4610   36.0390  106.8650 C.3   285  MET285      0.1570
    194  C        -20.5660   35.9900  105.8380 C.2   285  MET285      0.2261
    195  O        -20.3010   36.0150  104.6580 O.2   285  MET285     -0.2867
    196  CB       -19.0880   37.5200  107.1010 C.3   285  MET285      0.0387
    197  CG       -20.1180   38.2840  107.8770 C.3   285  MET285      0.0595
    198  SD       -19.5800   39.9400  108.4640 S.3   285  MET285     -0.1393
    199  CE       -17.9180   39.5990  109.0520 C.3   285  MET285      0.0692
@<TRIPOS>BOND
     1    27    26    1
     2    24    26   ar
     3    24    22   ar
     4    26    25   ar
     5    22    21   ar
     6    25    23   ar
     7   103   102    2
     8    21    23   ar
     9    21    20    1
    10    19    18    2
    11   102   101    1
    12    17    20    1
    13    17    18    1
    14    17    16    1
    15    18    28   am
    16   101   104    1
    17   101   100    1
    18   104   105    1
    19   104   106    1
    20   105   107    1
    21    31    30    2
    22    81    82    1
    23    28    29    1
    24    30    29    1
    25    84    83    2
    26    82    83    1
    27    82    85    1
    28     7     6    1
    29     4     3    2
    30    12    11    2
    31    86    85    1
    32    86    88    1
    33   151   150    2
    34    85    87    1
    35     2     1    1
    36     2     3    1
    37     2     5    1
    38    11    10    1
    39     3     9   am
    40     6     5    1
    41     6     8    1
    42   155   153    1
    43   150   149    1
    44     9    10    1
    45    10    13    1
    46   153   152    1
    47   152   149    1
    48   152   154    1
    49   149   148    1
    50    97    95   ar
    51    97    99   ar
    52    95    94   ar
    53    13    15    1
    54    13    14    1
    55    91    92    2
    56    91    90    1
    57    99    98   ar
    58   148   142   am
    59    94    93    1
    60    94    96   ar
    61    93    90    1
    62    79    78    1
    63    79    80    1
    64    90    89    1
    65   146   145    2
    66   143   142    2
    67   142   141    1
    68    98    96   ar
    69    78    75    1
    70    73    71   ar
    71    73    72   ar
    72    71    69   ar
    73    80    74    1
    74   145   147   am
    75   145   144    1
    76    72    70   ar
    77   141   144    1
    78   141   140    1
    79   139   137   am
    80   166   163    1
    81    75    74    1
    82    75    76    1
    83    69    68   ar
    84    74    65   am
    85   140   134   am
    86    77    76    2
    87    70    68   ar
    88    68    67    1
    89   137   136    1
    90   137   138    2
    91   134   135    2
    92   134   133    1
    93   136   133    1
    94   163   164    1
    95   163   162    1
    96    65    64    1
    97    65    66    2
    98   164   165    2
    99   162   158   am
   100    64    67    1
   101    64    63    1
   102    54    53    2
   103   133   132    1
   104    42    40    1
   105   156   157    1
   106    53    63   am
   107    53    52    1
   108   195   194    2
   109   158   157    1
   110   158   159    2
   111   157   160    1
   112   125   124    2
   113   132   124   am
   114   160   161    1
   115    40    41    1
   116    40    39    2
   117    49    48    1
   118   124   123    1
   119   194   193    1
   120    39    38    1
   121    52    55    1
   122    52    51    1
   123   119   118    2
   124    55    56    1
   125   192   193    1
   126    48    47    1
   127    48    50    1
   128    47    44    1
   129   193   196    1
   130   123   122    1
   131   123   126    1
   132    46    45    2
   133   196   197    1
   134    57    56   ar
   135    57    59   ar
   136   118   117    1
   137    38    37    1
   138    56    58   ar
   139   120   117    1
   140   120   121    1
   141   117   116    1
   142   197   198    1
   143    32    33    1
   144   126   127    1
   145    36    37    1
   146    36    33    1
   147   167   168    1
   148    45    44    1
   149   170   169    2
   150    35    34    2
   151    44    43    1
   152    59    61   ar
   153   111   110    2
   154   198   199    1
   155    58    60   ar
   156   174   176   ar
   157   174   172   ar
   158    33    34    1
   159   116   110   am
   160   176   177   ar
   161   128   127   ar
   162   128   130   ar
   163   127   129   ar
   164   168   169    1
   165   168   171    1
   166   190   188   ar
   167   190   191   ar
   168   171   172    1
   169   110   109    1
   170    61    60   ar
   171    61    62    1
   172   172   173   ar
   173   188   185   ar
   174   191   189   ar
   175   130   131   ar
   176   129   131   ar
   177   177   175   ar
   178   178   179    1
   179   179   180    1
   180   179   182    1
   181   109   112    1
   182   109   108    1
   183   112   113    1
   184   173   175   ar
   185   180   181    2
   186   185   187   ar
   187   185   183   ar
   188   189   187   ar
   189   115   114    1
   190   187   186   ar
   191   182   183    1
   192   183   184   ar
   193   113   114    1
   194   186   184   ar
