@<TRIPOS>MOLECULE
tmp/3vscA01.pdb
 112 107 0 0 0
SMALL
GASTEIGER

@<TRIPOS>ATOM
      1  N         -4.0150  -39.4970   -5.3970 N.3   125  VAL125     -0.1231
      2  CA        -4.9920  -39.6640   -4.3150 C.3   125  VAL125      0.1692
      3  C         -4.5870  -38.8940   -2.9910 C.2   125  VAL125      0.2591
      4  O         -5.4550  -38.6470   -2.1730 O.2   125  VAL125     -0.2718
      5  CB        -5.0910  -41.1470   -4.0160 C.3   125  VAL125      0.0266
      6  CG1       -3.7920  -41.6830   -3.3760 C.3   125  VAL125      0.0020
      7  CG2       -6.3080  -41.4300   -3.1470 C.3   125  VAL125      0.0020
      8  N         -3.3100  -38.4580   -2.8420 N.am  126  ALA126     -0.1980
      9  CA        -2.8510  -37.8040   -1.6390 C.3   126  ALA126      0.1597
     10  C         -3.3190  -36.3280   -1.5500 C.2   126  ALA126      0.2287
     11  O         -3.2490  -35.7030   -0.5150 O.2   126  ALA126     -0.2864
     12  CB        -1.3110  -37.9130   -1.5290 C.3   126  ALA126      0.0319
     13  N          7.0000  -38.2350    3.7320 N.3   151  THR151     -0.1203
     14  CA         6.1850  -38.7510    2.6340 C.3   151  THR151      0.1994
     15  C          7.0430  -39.6470    1.7370 C.2   151  THR151      0.2618
     16  O          8.2750  -39.4780    1.7340 O.2   151  THR151     -0.2717
     17  CB         5.7150  -37.5490    1.7960 C.3   151  THR151      0.1784
     18  OG1        4.9690  -38.0250    0.6880 O.3   151  THR151     -0.2211
     19  CG2        6.9440  -36.8160    1.2600 C.3   151  THR151      0.0376
     20  N          6.3970  -40.4870    0.9260 N.am  152  SER152     -0.1951
     21  CA         7.0810  -41.2380   -0.1430 C.3   152  SER152      0.1924
     22  C          7.2710  -40.3900   -1.3990 C.2   152  SER152      0.2314
     23  O          8.1810  -40.7070   -2.1840 O.2   152  SER152     -0.2863
     24  CB         6.3450  -42.5240   -0.5000 C.3   152  SER152      0.2116
     25  OG         4.9650  -42.2600   -0.7650 O.3   152  SER152     -0.2180
     26  N          4.1340  -38.2980   -3.0100 N.3   154  ASN154     -0.1225
     27  CA         2.8170  -37.7030   -3.3210 C.3   154  ASN154      0.1785
     28  C          2.2200  -36.7490   -2.2860 C.2   154  ASN154      0.2597
     29  O          1.8280  -35.5670   -2.5910 O.2   154  ASN154     -0.2718
     30  CB         1.7840  -38.8370   -3.6550 C.3   154  ASN154      0.1169
     31  CG         1.9450  -39.3320   -5.0950 C.2   154  ASN154      0.2627
     32  OD1        2.2280  -38.5350   -6.0250 O.2   154  ASN154     -0.2716
     33  ND2        1.7200  -40.6010   -5.3080 N.am  154  ASN154     -0.0877
     34  N          2.1720  -37.2420   -1.0420 N.am  155  PHE155     -0.1976
     35  CA         1.5570  -36.4390    0.0030 C.3   155  PHE155      0.1639
     36  C          2.3610  -35.1220    0.2250 C.2   155  PHE155      0.2290
     37  O          1.7980  -34.0600    0.4540 O.2   155  PHE155     -0.2864
     38  CB         1.5070  -37.2090    1.2730 C.3   155  PHE155      0.0560
     39  CG         0.8590  -36.4120    2.3590 C.ar  155  PHE155     -0.0200
     40  CD1       -0.5420  -36.1640    2.3110 C.ar  155  PHE155     -0.0042
     41  CD2        1.6230  -35.8450    3.4040 C.ar  155  PHE155     -0.0042
     42  CE1       -1.1770  -35.3920    3.3650 C.ar  155  PHE155     -0.0003
     43  CE2        0.9930  -35.0470    4.4170 C.ar  155  PHE155     -0.0003
     44  CZ        -0.4140  -34.8360    4.3830 C.ar  155  PHE155     -0.0000
     45  N          9.6690  -44.5640    4.3570 N.3   202  THR202     -0.1203
     46  CA         9.1620  -43.3070    4.8990 C.3   202  THR202      0.1994
     47  C          8.8160  -43.2790    6.3850 C.2   202  THR202      0.2617
     48  O          8.9860  -42.2520    7.0640 O.2   202  THR202     -0.2717
     49  CB         8.1370  -42.5490    3.9400 C.3   202  THR202      0.1784
     50  OG1        6.9420  -42.1530    4.6400 O.3   202  THR202     -0.2211
     51  CG2        7.8750  -43.2980    2.7050 C.3   202  THR202      0.0376
     52  N          8.3750  -44.4000    6.9230 N.am  203  VAL203     -0.1979
     53  CA         8.1390  -44.4690    8.3790 C.3   203  VAL203      0.1595
     54  C          9.4660  -44.3790    9.1640 C.2   203  VAL203      0.2287
     55  O          9.5000  -43.8720   10.2530 O.2   203  VAL203     -0.2864
     56  CB         7.2060  -45.6530    8.8410 C.3   203  VAL203      0.0276
     57  CG1        5.8440  -45.5870    8.1300 C.3   203  VAL203      0.0022
     58  CG2        7.8270  -46.9940    8.5710 C.3   203  VAL203      0.0022
     59  N          0.3640  -37.7550    8.5770 N.3   223  GLN223     -0.1231
     60  CA        -0.6750  -38.3100    7.7240 C.3   223  GLN223      0.1698
     61  C         -0.8820  -39.7910    8.1580 C.2   223  GLN223      0.2592
     62  O         -1.9300  -40.3600    7.9030 O.2   223  GLN223     -0.2718
     63  CB        -0.2680  -38.2300    6.2300 C.3   223  GLN223      0.0381
     64  CG         1.0680  -38.9920    5.9790 C.3   223  GLN223      0.0905
     65  CD         1.3570  -39.2910    4.5290 C.2   223  GLN223      0.2608
     66  OE1        0.4260  -39.6200    3.7850 O.2   223  GLN223     -0.2717
     67  NE2        2.6540  -39.1710    4.1080 N.am  223  GLN223     -0.0878
     68  N          0.1240  -40.3920    8.8350 N.am  224  PHE224     -0.1976
     69  CA         0.0320  -41.7990    9.3580 C.3   224  PHE224      0.1639
     70  C         -0.9110  -42.0360   10.5150 C.2   224  PHE224      0.2290
     71  O         -1.4080  -43.1620   10.7870 O.2   224  PHE224     -0.2864
     72  CB         1.4410  -42.1860    9.7910 C.3   224  PHE224      0.0560
     73  CG         2.4030  -42.1990    8.6070 C.ar  224  PHE224     -0.0200
     74  CD1        2.4860  -43.3090    7.8080 C.ar  224  PHE224     -0.0042
     75  CD2        3.1010  -41.0600    8.2360 C.ar  224  PHE224     -0.0042
     76  CE1        3.2920  -43.2870    6.6990 C.ar  224  PHE224     -0.0003
     77  CE2        3.8800  -41.0390    7.1020 C.ar  224  PHE224     -0.0003
     78  CZ         3.9650  -42.1600    6.3480 C.ar  224  PHE224     -0.0000
     79  N         -0.7510  -47.3730    2.0940 N.3   260  GLY260     -0.1210
     80  CA         0.4430  -46.6240    2.4470 C.3   260  GLY260      0.1956
     81  C          0.2800  -46.2980    3.9000 C.2   260  GLY260      0.2612
     82  O          0.7070  -47.0690    4.7670 O.2   260  GLY260     -0.2717
     83  N         -0.3980  -45.1930    4.1680 N.am  261  THR261     -0.1952
     84  CA        -0.9000  -44.9280    5.5080 C.3   261  THR261      0.1897
     85  C         -2.1390  -45.8070    5.8050 C.2   261  THR261      0.2313
     86  O         -2.4900  -46.0540    7.0060 O.2   261  THR261     -0.2863
     87  CB        -1.3740  -43.4820    5.6300 C.3   261  THR261      0.1794
     88  OG1       -2.5910  -43.3290    4.8710 O.3   261  THR261     -0.2208
     89  CG2       -0.3270  -42.4830    5.0850 C.3   261  THR261      0.0378
     90  N          5.2790  -45.7170   -2.8480 N.3   294  GLY294     -0.1210
     91  CA         4.0820  -45.1970   -2.2290 C.3   294  GLY294      0.1956
     92  C          3.4120  -46.1470   -1.2940 C.2   294  GLY294      0.2612
     93  O          2.5150  -45.7450   -0.5520 O.2   294  GLY294     -0.2717
     94  N          3.8380  -47.4190   -1.3320 N.am  295  ILE295     -0.1965
     95  CA         3.1270  -48.3930   -0.5610 C.3   295  ILE295      0.1727
     96  C          3.9900  -49.3130    0.2900 C.2   295  ILE295      0.2616
     97  O          5.2200  -49.3520    0.1660 O.2   295  ILE295     -0.2715
     98  CB         2.1610  -49.2090   -1.4540 C.3   295  ILE295      0.0290
     99  CG1        2.9390  -50.0850   -2.4610 C.3   295  ILE295      0.0022
    100  CG2        1.1850  -48.2340   -2.1020 C.3   295  ILE295      0.0023
    101  CD1        2.0410  -51.1970   -3.2510 C.3   295  ILE295      0.0001
    102  N          3.3420  -50.0300    1.1890 N.am  296  ARG296     -0.1977
    103  CA         4.1370  -50.9060    2.0900 C.3   296  ARG296      0.1597
    104  C          3.3170  -52.0480    2.6190 C.2   296  ARG296      0.2287
    105  O          2.0670  -52.1440    2.3680 O.2   296  ARG296     -0.2864
    106  CB         4.8070  -50.0740    3.2220 C.3   296  ARG296      0.0334
    107  CG         3.8330  -49.4210    4.1600 C.3   296  ARG296      0.0492
    108  CD         4.4850  -48.3700    5.0760 C.3   296  ARG296      0.2205
    109  NE         3.3960  -47.6960    5.7880 N.pl3 296  ARG296     -0.0865
    110  CZ         3.0340  -47.9050    7.0420 C.cat 296  ARG296      0.5346
    111  NH1        2.0010  -47.2240    7.5510 N.pl3 296  ARG296      0.1354
    112  NH2        3.7180  -48.7420    7.8160 N.pl3 296  ARG296      0.1354
@<TRIPOS>BOND
     1    32    31    2
     2     1     2    1
     3    33    31   am
     4    31    30    1
     5     2     5    1
     6     2     3    1
     7     5     6    1
     8     5     7    1
     9    30    27    1
    10    27    26    1
    11    27    28    1
    12   101    99    1
    13     3     8   am
    14     3     4    2
    15    90    91    1
    16     8     9    1
    17    29    28    2
    18    99    98    1
    19    28    34   am
    20    91    92    1
    21    23    22    2
    22   100    98    1
    23     9    10    1
    24     9    12    1
    25    10    11    2
    26    98    95    1
    27    22    21    1
    28    94    92   am
    29    94    95    1
    30    92    93    2
    31    34    35    1
    32    25    24    1
    33    95    96    1
    34    24    21    1
    35    21    20    1
    36    35    36    1
    37    35    38    1
    38    97    96    2
    39    36    37    2
    40    96   102   am
    41    18    17    1
    42    20    15   am
    43   102   103    1
    44    19    17    1
    45    38    39    1
    46    16    15    2
    47    15    14    1
    48    17    14    1
    49   103   104    1
    50   103   106    1
    51    79    80    1
    52    40    39   ar
    53    40    42   ar
    54    39    41   ar
    55   105   104    2
    56    80    81    1
    57    14    13    1
    58    51    49    1
    59   106   107    1
    60    42    44   ar
    61    41    43   ar
    62    66    65    2
    63    81    83   am
    64    81    82    2
    65    49    50    1
    66    49    46    1
    67    67    65   am
    68   107   108    1
    69    83    84    1
    70    45    46    1
    71    44    43   ar
    72    65    64    1
    73    88    87    1
    74    46    47    1
    75   108   109    1
    76    89    87    1
    77    84    87    1
    78    84    85    1
    79   109   110    2
    80    85    86    2
    81    64    63    1
    82    63    60    1
    83    78    76   ar
    84    78    77   ar
    85    47    52   am
    86    47    48    2
    87    76    74   ar
    88    52    53    1
    89   110   111    1
    90   110   112    1
    91    77    75   ar
    92    60    61    1
    93    60    59    1
    94    74    73   ar
    95    62    61    2
    96    57    56    1
    97    61    68   am
    98    75    73   ar
    99    53    56    1
   100    53    54    1
   101    58    56    1
   102    73    72    1
   103    68    69    1
   104    54    55    2
   105    69    72    1
   106    69    70    1
   107    70    71    2
