@<TRIPOS>MOLECULE
tmp/3vsdB01.pdb
 169 164 0 0 0
SMALL
GASTEIGER

@<TRIPOS>ATOM
      1  N         32.8540    3.3580   24.5770 N.3   125  VAL125     -0.1231
      2  CA        32.3710    4.2670   25.5850 C.3   125  VAL125      0.1692
      3  C         33.2060    4.1870   26.8460 C.2   125  VAL125      0.2591
      4  O         33.3210    5.1660   27.5430 O.2   125  VAL125     -0.2718
      5  CB        30.8530    4.0080   25.9030 C.3   125  VAL125      0.0266
      6  CG1       30.6120    2.6660   26.5360 C.3   125  VAL125      0.0020
      7  CG2       30.2670    5.1040   26.7170 C.3   125  VAL125      0.0020
      8  N         33.8020    3.0250   27.1080 N.am  126  ALA126     -0.1980
      9  CA        34.6400    2.8280   28.2690 C.3   126  ALA126      0.1597
     10  C         35.8870    3.6860   28.2580 C.2   126  ALA126      0.2287
     11  O         36.5670    3.7560   29.2650 O.2   126  ALA126     -0.2864
     12  CB        35.0150    1.3410   28.4340 C.3   126  ALA126      0.0319
     13  N         35.0220   -6.6170   31.1360 N.3   152  SER152     -0.1217
     14  CA        34.4500   -7.4980   30.1080 C.3   152  SER152      0.1889
     15  C         35.2880   -7.4320   28.8490 C.2   152  SER152      0.2288
     16  O         35.3290   -8.4180   28.1120 O.2   152  SER152     -0.2866
     17  CB        32.9830   -7.1660   29.7960 C.3   152  SER152      0.2089
     18  OG        32.8640   -5.7930   29.4190 O.3   152  SER152     -0.2183
     19  N         36.4530   -3.8170   27.1180 N.3   154  ASN154     -0.1225
     20  CA        36.6550   -2.4750   26.6320 C.3   154  ASN154      0.1785
     21  C         37.4400   -1.6590   27.6190 C.2   154  ASN154      0.2597
     22  O         38.6200   -1.2920   27.3490 O.2   154  ASN154     -0.2718
     23  CB        35.2760   -1.8450   26.3850 C.3   154  ASN154      0.1169
     24  CG        34.8310   -1.9590   24.9340 C.2   154  ASN154      0.2627
     25  OD1       35.6510   -1.9120   24.0430 O.2   154  ASN154     -0.2716
     26  ND2       33.5170   -2.0700   24.7020 N.am  154  ASN154     -0.0877
     27  N         36.8280   -1.4540   28.7910 N.am  155  PHE155     -0.1976
     28  CA        37.4980   -0.8130   29.9120 C.3   155  PHE155      0.1639
     29  C         38.9440   -1.2790   30.1100 C.2   155  PHE155      0.2290
     30  O         39.8590   -0.4560   30.2900 O.2   155  PHE155     -0.2864
     31  CB        36.7060   -0.8890   31.2170 C.3   155  PHE155      0.0560
     32  CG        37.2720   -0.0030   32.2700 C.ar  155  PHE155     -0.0200
     33  CD1       37.0500    1.3730   32.2200 C.ar  155  PHE155     -0.0042
     34  CD2       38.1100   -0.5170   33.2520 C.ar  155  PHE155     -0.0042
     35  CE1       37.6430    2.2340   33.1600 C.ar  155  PHE155     -0.0003
     36  CE2       38.7070    0.3140   34.1780 C.ar  155  PHE155     -0.0003
     37  CZ        38.4690    1.7140   34.1350 C.ar  155  PHE155     -0.0000
     38  N         36.0240    0.3970   38.5490 N.3   223  GLN223     -0.1245
     39  CA        35.0180    1.0950   37.7500 C.3   223  GLN223      0.1566
     40  C         33.5740    0.8160   38.1720 C.2   223  GLN223      0.2260
     41  O         32.6740    1.6360   37.8790 O.2   223  GLN223     -0.2867
     42  CB        35.1900    0.6860   36.2750 C.3   223  GLN223      0.0367
     43  CG        35.2190   -0.8820   36.0090 C.3   223  GLN223      0.0905
     44  CD        34.8240   -1.2590   34.5840 C.2   223  GLN223      0.2608
     45  OE1       34.2310   -0.4470   33.8630 O.2   223  GLN223     -0.2717
     46  NE2       35.1350   -2.4990   34.1750 N.am  223  GLN223     -0.0878
     47  N         33.8910    7.3060   37.1640 N.3   229  ASN229     -0.1240
     48  CA        33.0690    6.6880   36.1190 C.3   229  ASN229      0.1653
     49  C         31.7940    7.4740   35.8460 C.2   229  ASN229      0.2266
     50  O         31.6030    7.9570   34.7400 O.2   229  ASN229     -0.2867
     51  CB        32.7600    5.2120   36.4710 C.3   229  ASN229      0.1155
     52  CG        31.9090    4.5030   35.4210 C.2   229  ASN229      0.2627
     53  OD1       31.2180    5.1430   34.6340 O.2   229  ASN229     -0.2716
     54  ND2       31.9590    3.1530   35.4020 N.am  229  ASN229     -0.0877
     55  N         30.8300   10.2770   32.5190 N.3   233  HIS233     -0.1241
     56  CA        29.6360   10.2520   31.6850 C.3   233  HIS233      0.1621
     57  C         28.6580   11.4010   31.9520 C.2   233  HIS233      0.2264
     58  O         27.9440   11.8210   31.0550 O.2   233  HIS233     -0.2867
     59  CB        28.9460    8.9260   31.8490 C.3   233  HIS233      0.0745
     60  CG        29.7410    7.7680   31.3300 C.ar  233  HIS233      0.0817
     61  ND1       30.2180    7.7160   30.0390 N.ar  233  HIS233     -0.2268
     62  CD2       30.0410    6.5750   31.8870 C.ar  233  HIS233      0.1154
     63  CE1       30.8160    6.5600   29.8400 C.ar  233  HIS233      0.1986
     64  NE2       30.7130    5.8430   30.9420 N.ar  233  HIS233     -0.2212
     65  N         22.4670    0.2690   27.4490 N.3   258  SER258     -0.1202
     66  CA        22.7690   -1.0320   28.0310 C.3   258  SER258      0.2020
     67  C         23.3560   -0.7870   29.4310 C.2   258  SER258      0.2619
     68  O         23.6940    0.3820   29.7520 O.2   258  SER258     -0.2717
     69  CB        23.7620   -1.7420   27.1420 C.3   258  SER258      0.2103
     70  OG        24.9080   -0.9150   26.8520 O.3   258  SER258     -0.2182
     71  N         23.4350   -1.8410   30.2720 N.am  259  LEU259     -0.1965
     72  CA        24.0550   -1.7200   31.6210 C.3   259  LEU259      0.1728
     73  C         25.1860   -2.6440   31.9150 C.2   259  LEU259      0.2617
     74  O         25.0240   -3.9060   31.8870 O.2   259  LEU259     -0.2715
     75  CB        23.0680   -1.8620   32.7370 C.3   259  LEU259      0.0311
     76  CG        21.9200   -0.8630   32.6900 C.3   259  LEU259      0.0022
     77  CD1       20.8310   -1.4180   33.5310 C.3   259  LEU259      0.0001
     78  CD2       22.3190    0.5620   33.1620 C.3   259  LEU259      0.0001
     79  N         26.3240   -2.0030   32.2110 N.am  260  GLY260     -0.1940
     80  CA        27.5530   -2.6270   32.6930 C.3   260  GLY260      0.2014
     81  C         27.7740   -2.3080   34.1770 C.2   260  GLY260      0.2640
     82  O         27.1970   -2.9710   35.0270 O.2   260  GLY260     -0.2714
     83  N         28.6310   -1.3000   34.4730 N.am  261  THR261     -0.1936
     84  CA        28.6600   -0.6350   35.7480 C.3   261  THR261      0.2028
     85  C         27.3750    0.1990   35.9790 C.2   261  THR261      0.2643
     86  O         26.9560    0.4830   37.1510 O.2   261  THR261     -0.2714
     87  CB        29.8650    0.3510   35.7880 C.3   261  THR261      0.1808
     88  OG1       29.6260    1.5150   34.9350 O.3   261  THR261     -0.2208
     89  CG2       31.1500   -0.3610   35.3230 C.3   261  THR261      0.0379
     90  N         26.7850    0.6130   34.8650 N.am  262  SER262     -0.1935
     91  CA        25.6420    1.5710   34.8150 C.3   262  SER262      0.2055
     92  C         26.1260    2.9840   34.8000 C.2   262  SER262      0.2644
     93  O         25.2650    3.9440   34.8980 O.2   262  SER262     -0.2714
     94  CB        24.5920    1.4500   35.9230 C.3   262  SER262      0.2130
     95  OG        25.0480    1.7360   37.2650 O.3   262  SER262     -0.2179
     96  N         27.4480    3.1270   34.7180 N.am  263  GLY263     -0.1939
     97  CA        28.0080    4.4870   34.6050 C.3   263  GLY263      0.2014
     98  C         27.2820    5.4440   33.6590 C.2   263  GLY263      0.2639
     99  O         26.5530    6.3800   34.0980 O.2   263  GLY263     -0.2714
    100  N         27.4390    5.1890   32.3500 N.am  264  HIS264     -0.1959
    101  CA        26.9430    6.0560   31.2930 C.3   264  HIS264      0.1787
    102  C         25.3990    6.1690   31.2650 C.2   264  HIS264      0.2620
    103  O         24.8330    7.2940   31.0930 O.2   264  HIS264     -0.2715
    104  CB        27.5860    5.7110   29.9170 C.3   264  HIS264      0.0785
    105  CG        26.8670    4.6740   29.0950 C.ar  264  HIS264      0.0821
    106  ND1       27.2950    3.3580   29.0080 N.ar  264  HIS264     -0.2267
    107  CD2       25.7830    4.7750   28.2830 C.ar  264  HIS264      0.1154
    108  CE1       26.5060    2.6980   28.1790 C.ar  264  HIS264      0.1986
    109  NE2       25.5670    3.5300   27.7450 N.ar  264  HIS264     -0.2212
    110  N         24.7170    5.0510   31.4920 N.am  265  MET265     -0.1977
    111  CA        23.2610    5.1820   31.4800 C.3   265  MET265      0.1605
    112  C         22.6320    5.9430   32.6820 C.2   265  MET265      0.2287
    113  O         21.5360    6.5250   32.5350 O.2   265  MET265     -0.2864
    114  CB        22.5530    3.8580   31.1930 C.3   265  MET265      0.0413
    115  CG        22.6170    3.4820   29.6960 C.3   265  MET265      0.0598
    116  SD        22.4310    4.8080   28.4320 S.3   265  MET265     -0.1393
    117  CE        20.6700    5.1430   28.5570 C.3   265  MET265      0.0692
    118  N         27.7650   -9.3110   25.2530 N.3   293  PRO293     -0.2102
    119  CA        29.0950   -8.9080   25.7950 C.3   293  PRO293      0.1504
    120  C         29.0980   -7.4740   26.3280 C.2   293  PRO293      0.2576
    121  O         28.5800   -6.5620   25.6400 O.2   293  PRO293     -0.2718
    122  CB        30.0240   -9.0120   24.5750 C.3   293  PRO293      0.0282
    123  CG        29.2990   -9.8470   23.6020 C.3   293  PRO293      0.0208
    124  CD        27.8350   -9.6010   23.8080 C.3   293  PRO293      0.0893
    125  N         29.6190   -7.3140   27.5590 N.am  294  GLY294     -0.1943
    126  CA        29.7910   -6.0160   28.2190 C.3   294  GLY294      0.2014
    127  C         28.6070   -5.5830   29.0610 C.2   294  GLY294      0.2638
    128  O         28.6310   -4.5080   29.6780 O.2   294  GLY294     -0.2714
    129  N         27.5420   -6.3920   29.0700 N.am  295  ILE295     -0.1977
    130  CA        26.3520   -6.0080   29.8080 C.3   295  ILE295      0.1596
    131  C         25.7800   -7.1040   30.6940 C.2   295  ILE295      0.2287
    132  O         26.0970   -8.2780   30.5060 O.2   295  ILE295     -0.2864
    133  CB        25.2700   -5.3300   28.9030 C.3   295  ILE295      0.0276
    134  CG1       24.8460   -6.2220   27.7590 C.3   295  ILE295      0.0022
    135  CG2       25.7670   -3.9690   28.3310 C.3   295  ILE295      0.0022
    136  CD1       23.5060   -5.8670   27.2530 C.3   295  ILE295      0.0001
    137  N         25.6730   -4.8580   22.2470 N.3   340  SER340     -0.1217
    138  CA        25.0610   -4.0930   23.3090 C.3   340  SER340      0.1889
    139  C         24.2340   -2.9740   22.6790 C.2   340  SER340      0.2288
    140  O         23.1160   -2.6560   23.1820 O.2   340  SER340     -0.2866
    141  CB        26.0610   -3.6190   24.3880 C.3   340  SER340      0.2089
    142  OG        27.0530   -2.6930   23.9380 O.3   340  SER340     -0.2183
    143  N         27.5010    1.6280   22.3980 N.3   367  PRO367     -0.2102
    144  CA        28.7330    1.4630   23.1290 C.3   367  PRO367      0.1504
    145  C         29.9390    1.2520   22.2420 C.2   367  PRO367      0.2575
    146  O         30.9020    2.0250   22.3470 O.2   367  PRO367     -0.2718
    147  CB        28.4320    0.2600   24.0190 C.3   367  PRO367      0.0282
    148  CG        26.9960    0.3840   24.2370 C.3   367  PRO367      0.0208
    149  CD        26.4670    0.7320   22.9080 C.3   367  PRO367      0.0893
    150  N         29.9010    0.2600   21.3450 N.am  368  ASP368     -0.1974
    151  CA        31.1000    0.0300   20.5580 C.3   368  ASP368      0.1708
    152  C         30.8180   -0.3100   19.1360 C.2   368  ASP368      0.2293
    153  O         29.6970   -0.1650   18.7260 O.2   368  ASP368     -0.2864
    154  CB        32.1150   -0.8950   21.2450 C.3   368  ASP368      0.1436
    155  CG        31.6450   -2.3180   21.3500 C.2   368  ASP368      0.3671
    156  OD1       30.4070   -2.6010   21.1350 O.co2 368  ASP368     -0.2456
    157  OD2       32.5400   -3.1450   21.6860 O.co2 368  ASP368     -0.2456
    158  N         33.0850   -7.6610   16.8610 N.3   373  TYR373     -0.1241
    159  CA        32.3330   -8.8790   17.2260 C.3   373  TYR373      0.1605
    160  C         32.0820   -9.8890   16.1070 C.2   373  TYR373      0.2264
    161  O         30.9420  -10.2850   15.8630 O.2   373  TYR373     -0.2867
    162  CB        31.0080   -8.4570   17.8610 C.3   373  TYR373      0.0534
    163  CG        31.2450   -7.6410   19.0990 C.ar  373  TYR373     -0.0201
    164  CD1       31.3100   -6.2440   19.0280 C.ar  373  TYR373     -0.0009
    165  CD2       31.4770   -8.2650   20.3310 C.ar  373  TYR373     -0.0009
    166  CE1       31.5380   -5.5110   20.1210 C.ar  373  TYR373      0.0417
    167  CE2       31.7490   -7.5170   21.4490 C.ar  373  TYR373      0.0417
    168  CZ        31.7600   -6.1340   21.3300 C.ar  373  TYR373      0.1957
    169  OH        32.0030   -5.3780   22.4290 O.3   373  TYR373     -0.2866
@<TRIPOS>BOND
     1   161   160    2
     2   160   159    1
     3   158   159    1
     4   159   162    1
     5   162   163    1
     6   153   152    2
     7   164   163   ar
     8   164   166   ar
     9   163   165   ar
    10   152   151    1
    11   166   168   ar
    12   165   167   ar
    13   151   154    1
    14   151   150    1
    15   156   155   ar
    16   154   155    1
    17   168   167   ar
    18   168   169    1
    19   150   145   am
    20   155   157   ar
    21   145   146    2
    22   145   144    1
    23   137   138    1
    24   143   149    1
    25   143   144    1
    26   139   140    2
    27   139   138    1
    28   149   148    1
    29   144   147    1
    30   138   141    1
    31   123   124    1
    32   123   122    1
    33   124   118    1
    34   142   141    1
    35   147   148    1
    36    25    24    2
    37   122   119    1
    38     1     2    1
    39    26    24   am
    40    24    23    1
    41   118   119    1
    42     2     5    1
    43     2     3    1
    44   121   120    2
    45   119   120    1
    46     5     6    1
    47     5     7    1
    48   120   125   am
    49    23    20    1
    50    20    19    1
    51    20    21    1
    52     3     8   am
    53     3     4    2
    54    70    69    1
    55     8     9    1
    56    69    66    1
    57   136   134    1
    58    22    21    2
    59    65    66    1
    60   125   126    1
    61    21    27   am
    62   109   108   ar
    63   109   107   ar
    64   134   133    1
    65    66    67    1
    66    16    15    2
    67   108   106   ar
    68   126   127    1
    69    10     9    1
    70    10    11    2
    71     9    12    1
    72   107   105   ar
    73   135   133    1
    74   116   117    1
    75   116   115    1
    76    27    28    1
    77    15    14    1
    78   133   130    1
    79   106   105   ar
    80   127   129   am
    81   127   128    2
    82   129   130    1
    83   105   104    1
    84    18    17    1
    85    67    68    2
    86    67    71   am
    87   115   114    1
    88    17    14    1
    89   130   131    1
    90    63    61   ar
    91    63    64   ar
    92    28    29    1
    93    28    31    1
    94   104   101    1
    95    61    60   ar
    96    14    13    1
    97    29    30    2
    98    71    72    1
    99   132   131    2
   100    64    62   ar
   101    58    57    2
   102   103   102    2
   103   114   111    1
   104    31    32    1
   105   102   101    1
   106   102   110   am
   107   101   100    1
   108    60    59    1
   109    60    62   ar
   110   111   110    1
   111   111   112    1
   112    72    73    1
   113    72    75    1
   114    56    59    1
   115    56    57    1
   116    56    55    1
   117    74    73    2
   118    73    79   am
   119    79    80    1
   120    33    32   ar
   121    33    35   ar
   122    32    34   ar
   123   100    98   am
   124   113   112    2
   125    76    75    1
   126    76    78    1
   127    76    77    1
   128    80    81    1
   129    35    37   ar
   130    34    36   ar
   131    98    99    2
   132    98    97    1
   133    45    44    2
   134    37    36   ar
   135    46    44   am
   136    81    83   am
   137    81    82    2
   138    83    84    1
   139    44    43    1
   140    97    96    1
   141    53    52    2
   142    96    92   am
   143    50    49    2
   144    92    91    1
   145    92    93    2
   146    91    90    1
   147    91    94    1
   148    90    85   am
   149    88    87    1
   150    89    87    1
   151    54    52   am
   152    52    51    1
   153    84    87    1
   154    84    85    1
   155    49    48    1
   156    94    95    1
   157    85    86    2
   158    43    42    1
   159    48    51    1
   160    48    47    1
   161    42    39    1
   162    39    40    1
   163    39    38    1
   164    41    40    2
