@<TRIPOS>MOLECULE
tmp/3vsdB02.pdb
 98 93 0 0 0
SMALL
GASTEIGER

@<TRIPOS>ATOM
      1  N         33.8020    3.0250   27.1080 N.3   126  ALA126     -0.1245
      2  CA        34.6400    2.8280   28.2690 C.3   126  ALA126      0.1562
      3  C         35.8870    3.6860   28.2580 C.2   126  ALA126      0.2260
      4  O         36.5670    3.7560   29.2650 O.2   126  ALA126     -0.2867
      5  CB        35.0150    1.3410   28.4340 C.3   126  ALA126      0.0290
      6  N         37.3380   -6.3560   33.9800 N.3   151  THR151     -0.1203
      7  CA        36.7130   -5.8800   32.7430 C.3   151  THR151      0.1994
      8  C         36.0720   -6.9900   31.8890 C.2   151  THR151      0.2618
      9  O         36.5070   -8.1590   31.9380 O.2   151  THR151     -0.2717
     10  CB        37.7280   -5.1310   31.8910 C.3   151  THR151      0.1784
     11  OG1       37.0550   -4.3620   30.9040 O.3   151  THR151     -0.2211
     12  CG2       38.7270   -6.0520   31.2710 C.3   151  THR151      0.0376
     13  N         35.0220   -6.6170   31.1360 N.am  152  SER152     -0.1951
     14  CA        34.4500   -7.4980   30.1080 C.3   152  SER152      0.1924
     15  C         35.2880   -7.4320   28.8490 C.2   152  SER152      0.2314
     16  O         35.3290   -8.4180   28.1120 O.2   152  SER152     -0.2863
     17  CB        32.9830   -7.1660   29.7960 C.3   152  SER152      0.2116
     18  OG        32.8640   -5.7930   29.4190 O.3   152  SER152     -0.2180
     19  N         36.4530   -3.8170   27.1180 N.3   154  ASN154     -0.1225
     20  CA        36.6550   -2.4750   26.6320 C.3   154  ASN154      0.1785
     21  C         37.4400   -1.6590   27.6190 C.2   154  ASN154      0.2597
     22  O         38.6200   -1.2920   27.3490 O.2   154  ASN154     -0.2718
     23  CB        35.2760   -1.8450   26.3850 C.3   154  ASN154      0.1169
     24  CG        34.8310   -1.9590   24.9340 C.2   154  ASN154      0.2627
     25  OD1       35.6510   -1.9120   24.0430 O.2   154  ASN154     -0.2716
     26  ND2       33.5170   -2.0700   24.7020 N.am  154  ASN154     -0.0877
     27  N         36.8280   -1.4540   28.7910 N.am  155  PHE155     -0.1976
     28  CA        37.4980   -0.8130   29.9120 C.3   155  PHE155      0.1639
     29  C         38.9440   -1.2790   30.1100 C.2   155  PHE155      0.2290
     30  O         39.8590   -0.4560   30.2900 O.2   155  PHE155     -0.2864
     31  CB        36.7060   -0.8890   31.2170 C.3   155  PHE155      0.0560
     32  CG        37.2720   -0.0030   32.2700 C.ar  155  PHE155     -0.0200
     33  CD1       37.0500    1.3730   32.2200 C.ar  155  PHE155     -0.0042
     34  CD2       38.1100   -0.5170   33.2520 C.ar  155  PHE155     -0.0042
     35  CE1       37.6430    2.2340   33.1600 C.ar  155  PHE155     -0.0003
     36  CE2       38.7070    0.3140   34.1780 C.ar  155  PHE155     -0.0003
     37  CZ        38.4690    1.7140   34.1350 C.ar  155  PHE155     -0.0000
     38  N         32.1550  -10.9050   34.7740 N.3   202  THR202     -0.1218
     39  CA        33.1260   -9.8520   35.0950 C.3   202  THR202      0.1862
     40  C         33.1150   -9.5110   36.5840 C.2   202  THR202      0.2287
     41  O         34.1700   -9.5060   37.2140 O.2   202  THR202     -0.2866
     42  CB        32.8320   -8.6070   34.2350 C.3   202  THR202      0.1770
     43  OG1       33.0250   -8.9450   32.8540 O.3   202  THR202     -0.2211
     44  CG2       33.7290   -7.4230   34.5990 C.3   202  THR202      0.0375
     45  N         36.0240    0.3970   38.5490 N.3   223  GLN223     -0.1231
     46  CA        35.0180    1.0950   37.7500 C.3   223  GLN223      0.1698
     47  C         33.5740    0.8160   38.1720 C.2   223  GLN223      0.2592
     48  O         32.6740    1.6360   37.8790 O.2   223  GLN223     -0.2718
     49  CB        35.1900    0.6860   36.2750 C.3   223  GLN223      0.0381
     50  CG        35.2190   -0.8820   36.0090 C.3   223  GLN223      0.0905
     51  CD        34.8240   -1.2590   34.5840 C.2   223  GLN223      0.2608
     52  OE1       34.2310   -0.4470   33.8630 O.2   223  GLN223     -0.2717
     53  NE2       35.1350   -2.4990   34.1750 N.am  223  GLN223     -0.0878
     54  N         33.3350   -0.3380   38.8200 N.am  224  PHE224     -0.1976
     55  CA        31.9880   -0.6410   39.3590 C.3   224  PHE224      0.1639
     56  C         31.6950    0.2570   40.5160 C.2   224  PHE224      0.2290
     57  O         30.5260    0.5540   40.7600 O.2   224  PHE224     -0.2864
     58  CB        31.8070   -2.1180   39.7440 C.3   224  PHE224      0.0560
     59  CG        32.0170   -3.0300   38.5830 C.ar  224  PHE224     -0.0200
     60  CD1       30.9560   -3.3680   37.7510 C.ar  224  PHE224     -0.0042
     61  CD2       33.3100   -3.4430   38.2410 C.ar  224  PHE224     -0.0042
     62  CE1       31.1780   -4.1420   36.6320 C.ar  224  PHE224     -0.0003
     63  CE2       33.5360   -4.2060   37.1170 C.ar  224  PHE224     -0.0003
     64  CZ        32.4780   -4.5400   36.3010 C.ar  224  PHE224     -0.0000
     65  N         26.3240   -2.0030   32.2110 N.3   260  GLY260     -0.1210
     66  CA        27.5530   -2.6270   32.6930 C.3   260  GLY260      0.1956
     67  C         27.7740   -2.3080   34.1770 C.2   260  GLY260      0.2612
     68  O         27.1970   -2.9710   35.0270 O.2   260  GLY260     -0.2717
     69  N         28.6310   -1.3000   34.4730 N.am  261  THR261     -0.1952
     70  CA        28.6600   -0.6350   35.7480 C.3   261  THR261      0.1897
     71  C         27.3750    0.1990   35.9790 C.2   261  THR261      0.2313
     72  O         26.9560    0.4830   37.1510 O.2   261  THR261     -0.2863
     73  CB        29.8650    0.3510   35.7880 C.3   261  THR261      0.1794
     74  OG1       29.6260    1.5150   34.9350 O.3   261  THR261     -0.2208
     75  CG2       31.1500   -0.3610   35.3230 C.3   261  THR261      0.0378
     76  N         29.6190   -7.3140   27.5590 N.3   294  GLY294     -0.1210
     77  CA        29.7910   -6.0160   28.2190 C.3   294  GLY294      0.1956
     78  C         28.6070   -5.5830   29.0610 C.2   294  GLY294      0.2612
     79  O         28.6310   -4.5080   29.6780 O.2   294  GLY294     -0.2717
     80  N         27.5420   -6.3920   29.0700 N.am  295  ILE295     -0.1965
     81  CA        26.3520   -6.0080   29.8080 C.3   295  ILE295      0.1727
     82  C         25.7800   -7.1040   30.6940 C.2   295  ILE295      0.2616
     83  O         26.0970   -8.2780   30.5060 O.2   295  ILE295     -0.2715
     84  CB        25.2700   -5.3300   28.9030 C.3   295  ILE295      0.0290
     85  CG1       24.8460   -6.2220   27.7590 C.3   295  ILE295      0.0022
     86  CG2       25.7670   -3.9690   28.3310 C.3   295  ILE295      0.0023
     87  CD1       23.5060   -5.8670   27.2530 C.3   295  ILE295      0.0001
     88  N         24.9640   -6.6880   31.6700 N.am  296  ARG296     -0.1977
     89  CA        24.3510   -7.5340   32.7290 C.3   296  ARG296      0.1597
     90  C         22.9040   -7.0830   33.0120 C.2   296  ARG296      0.2287
     91  O         22.5110   -5.9370   32.7120 O.2   296  ARG296     -0.2864
     92  CB        25.0990   -7.4150   34.0570 C.3   296  ARG296      0.0334
     93  CG        26.6370   -7.4360   34.0230 C.3   296  ARG296      0.0492
     94  CD        27.2050   -6.3530   34.9830 C.3   296  ARG296      0.2205
     95  NE        26.6380   -6.4040   36.3310 N.pl3 296  ARG296     -0.0865
     96  CZ        26.8880   -5.5450   37.3240 C.cat 296  ARG296      0.5346
     97  NH1       27.6930   -4.5140   37.1590 N.pl3 296  ARG296      0.1354
     98  NH2       26.3180   -5.7190   38.5060 N.pl3 296  ARG296      0.1354
@<TRIPOS>BOND
     1    25    24    2
     2    26    24   am
     3    24    23    1
     4    23    20    1
     5    20    19    1
     6    20    21    1
     7     1     2    1
     8    87    85    1
     9    22    21    2
    10    76    77    1
    11    21    27   am
    12    85    84    1
    13    16    15    2
    14    77    78    1
    15     3     2    1
    16     3     4    2
    17     2     5    1
    18    86    84    1
    19    27    28    1
    20    15    14    1
    21    84    81    1
    22    78    80   am
    23    78    79    2
    24    80    81    1
    25    18    17    1
    26    17    14    1
    27    81    82    1
    28    28    29    1
    29    28    31    1
    30    14    13    1
    31    29    30    2
    32    83    82    2
    33    82    88   am
    34    11    10    1
    35    13     8   am
    36    31    32    1
    37    12    10    1
    38    88    89    1
    39     8     9    2
    40     8     7    1
    41    10     7    1
    42    65    66    1
    43    33    32   ar
    44    33    35   ar
    45    32    34   ar
    46    66    67    1
    47    91    90    2
    48    89    90    1
    49    89    92    1
    50     7     6    1
    51    43    42    1
    52    35    37   ar
    53    34    36   ar
    54    52    51    2
    55    93    92    1
    56    93    94    1
    57    37    36   ar
    58    53    51   am
    59    67    69   am
    60    67    68    2
    61    42    44    1
    62    42    39    1
    63    69    70    1
    64    51    50    1
    65    38    39    1
    66    74    73    1
    67    94    95    1
    68    39    40    1
    69    75    73    1
    70    70    73    1
    71    70    71    1
    72    71    72    2
    73    50    49    1
    74    49    46    1
    75    64    62   ar
    76    64    63   ar
    77    95    96    2
    78    40    41    2
    79    62    60   ar
    80    63    61   ar
    81    97    96    1
    82    96    98    1
    83    46    47    1
    84    46    45    1
    85    60    59   ar
    86    48    47    2
    87    47    54   am
    88    61    59   ar
    89    59    58    1
    90    54    55    1
    91    55    58    1
    92    55    56    1
    93    56    57    2
