@<TRIPOS>MOLECULE
tmp/3vseB00.pdb
 223 218 0 0 0
SMALL
GASTEIGER

@<TRIPOS>ATOM
      1  N         38.5780   -7.6960   27.0070 N.3   189  MET189     -0.1245
      2  CA        37.3510   -8.4080   26.9430 C.3   189  MET189      0.1570
      3  C         37.4090   -9.7560   26.2220 C.2   189  MET189      0.2261
      4  O         38.2920   -9.9990   25.4600 O.2   189  MET189     -0.2867
      5  CB        36.3210   -7.5290   26.3360 C.3   189  MET189      0.0387
      6  CG        35.8690   -6.3660   27.0740 C.3   189  MET189      0.0595
      7  SD        34.7300   -5.4670   26.1060 S.3   189  MET189     -0.1393
      8  CE        35.0950   -4.0240   26.8740 C.3   189  MET189      0.0692
      9  N         32.0920  -11.6520   25.7670 N.3   192  ILE192     -0.1231
     10  CA        30.8440  -11.7250   26.5180 C.3   192  ILE192      0.1692
     11  C         31.0610  -11.3690   27.9840 C.2   192  ILE192      0.2592
     12  O         32.1180  -11.6420   28.5530 O.2   192  ILE192     -0.2718
     13  CB        30.2190  -13.1250   26.4390 C.3   192  ILE192      0.0266
     14  CG1       28.7520  -13.0770   26.8700 C.3   192  ILE192      0.0019
     15  CG2       30.9990  -14.1090   27.3010 C.3   192  ILE192      0.0020
     16  CD1       28.0830  -14.4330   26.9130 C.3   192  ILE192      0.0001
     17  N         30.0540  -10.7550   28.5930 N.am  193  PHE193     -0.1976
     18  CA        30.0950  -10.4930   30.0270 C.3   193  PHE193      0.1639
     19  C         29.2520  -11.5250   30.7570 C.2   193  PHE193      0.2290
     20  O         28.0200  -11.4470   30.7750 O.2   193  PHE193     -0.2864
     21  CB        29.6500   -9.0630   30.3380 C.3   193  PHE193      0.0560
     22  CG        30.6570   -8.0240   29.9310 C.ar  193  PHE193     -0.0200
     23  CD1       31.6890   -7.6680   30.7830 C.ar  193  PHE193     -0.0042
     24  CD2       30.5860   -7.4210   28.6860 C.ar  193  PHE193     -0.0042
     25  CE1       32.6250   -6.7230   30.4080 C.ar  193  PHE193     -0.0003
     26  CE2       31.5210   -6.4740   28.3040 C.ar  193  PHE193     -0.0003
     27  CZ        32.5400   -6.1260   29.1640 C.ar  193  PHE193     -0.0000
     28  N         26.0400  -11.1780   33.2150 N.3   196  GLN196     -0.1245
     29  CA        24.6850  -10.8240   32.8080 C.3   196  GLN196      0.1566
     30  C         23.8760  -12.0330   32.3330 C.2   196  GLN196      0.2260
     31  O         22.8540  -11.8790   31.6630 O.2   196  GLN196     -0.2867
     32  CB        24.7200   -9.7160   31.7550 C.3   196  GLN196      0.0367
     33  CG        25.2470   -8.4000   32.3130 C.3   196  GLN196      0.0905
     34  CD        25.3610   -7.3160   31.2670 C.2   196  GLN196      0.2608
     35  OE1       25.8190   -7.5550   30.1490 O.2   196  GLN196     -0.2717
     36  NE2       24.9360   -6.1070   31.6230 N.am  196  GLN196     -0.0878
     37  N         20.1730  -11.6290   30.6730 N.3   200  ARG200     -0.1245
     38  CA        19.9120  -12.1070   29.3210 C.3   200  ARG200      0.1563
     39  C         18.7680  -13.1140   29.3130 C.2   200  ARG200      0.2260
     40  O         17.8880  -13.0600   28.4520 O.2   200  ARG200     -0.2867
     41  CB        21.1640  -12.7400   28.7130 C.3   200  ARG200      0.0307
     42  CG        22.2070  -11.7400   28.2390 C.3   200  ARG200      0.0489
     43  CD        23.3210  -12.4390   27.4750 C.3   200  ARG200      0.2205
     44  NE        24.2120  -13.1580   28.3780 N.pl3 200  ARG200     -0.0865
     45  CZ        25.3370  -12.6500   28.8710 C.cat 200  ARG200      0.5346
     46  NH1       25.7130  -11.4210   28.5400 N.pl3 200  ARG200      0.1354
     47  NH2       26.0880  -13.3710   29.6930 N.pl3 200  ARG200      0.1354
     48  N         21.3560   -1.1870   22.9490 N.3   216  LEU216     -0.1231
     49  CA        22.3120   -0.0880   22.8440 C.3   216  LEU216      0.1693
     50  C         23.6270   -0.4000   23.5620 C.2   216  LEU216      0.2592
     51  O         23.6330   -1.0190   24.6270 O.2   216  LEU216     -0.2718
     52  CB        21.6890    1.1990   23.3950 C.3   216  LEU216      0.0284
     53  CG        20.3830    1.6270   22.7040 C.3   216  LEU216      0.0019
     54  CD1       19.6800    2.7320   23.4780 C.3   216  LEU216      0.0001
     55  CD2       20.6440    2.0670   21.2750 C.3   216  LEU216      0.0001
     56  N         24.7360    0.0450   22.9770 N.am  217  PHE217     -0.1962
     57  CA        26.0640   -0.3490   23.4420 C.3   217  PHE217      0.1771
     58  C         26.1660   -1.8700   23.3740 C.2   217  PHE217      0.2620
     59  O         26.5560   -2.5220   24.3370 O.2   217  PHE217     -0.2715
     60  CB        26.3110    0.1400   24.8720 C.3   217  PHE217      0.0574
     61  CG        26.1040    1.6190   25.0520 C.ar  217  PHE217     -0.0200
     62  CD1       24.8550    2.1230   25.3770 C.ar  217  PHE217     -0.0042
     63  CD2       27.1570    2.5050   24.8960 C.ar  217  PHE217     -0.0042
     64  CE1       24.6590    3.4850   25.5420 C.ar  217  PHE217     -0.0003
     65  CE2       26.9700    3.8650   25.0620 C.ar  217  PHE217     -0.0003
     66  CZ        25.7170    4.3560   25.3840 C.ar  217  PHE217     -0.0000
     67  N         25.8030   -2.4260   22.2220 N.am  218  SER218     -0.1936
     68  CA        25.6610   -3.8720   22.0490 C.3   218  SER218      0.2055
     69  C         26.9330   -4.7010   22.2530 C.2   218  SER218      0.2643
     70  O         26.8690   -5.8150   22.7660 O.2   218  SER218     -0.2714
     71  CB        25.0530   -4.1840   20.6790 C.3   218  SER218      0.2130
     72  OG        25.6090   -3.3540   19.6770 O.3   218  SER218     -0.2179
     73  N         28.0880   -4.1390   21.9130 N.am  219  TYR219     -0.1959
     74  CA        29.3040   -4.9280   21.9670 C.3   219  TYR219      0.1771
     75  C         29.1560   -6.0320   20.9330 C.2   219  TYR219      0.2620
     76  O         29.0760   -5.7670   19.7340 O.2   219  TYR219     -0.2715
     77  CB        29.5030   -5.5230   23.3600 C.3   219  TYR219      0.0574
     78  CG        30.8070   -6.2700   23.5250 C.ar  219  TYR219     -0.0198
     79  CD1       31.9540   -5.8590   22.8580 C.ar  219  TYR219     -0.0009
     80  CD2       30.8920   -7.3870   24.3450 C.ar  219  TYR219     -0.0009
     81  CE1       33.1480   -6.5390   23.0060 C.ar  219  TYR219      0.0417
     82  CE2       32.0820   -8.0740   24.4980 C.ar  219  TYR219      0.0417
     83  CZ        33.2060   -7.6450   23.8260 C.ar  219  TYR219      0.1957
     84  OH        34.3930   -8.3250   23.9750 O.3   219  TYR219     -0.2866
     85  N         29.1280   -7.2700   21.4030 N.am  220  THR220     -0.1951
     86  CA        29.0790   -8.4250   20.5110 C.3   220  THR220      0.1897
     87  C         27.6400   -8.8810   20.2920 C.2   220  THR220      0.2313
     88  O         27.3920   -9.9130   19.6740 O.2   220  THR220     -0.2863
     89  CB        29.9330   -9.6050   21.0220 C.3   220  THR220      0.1794
     90  OG1       29.3640  -10.1300   22.2260 O.3   220  THR220     -0.2208
     91  CG2       31.3620   -9.1580   21.2880 C.3   220  THR220      0.0378
     92  N         25.2490   -9.7790   22.5160 N.3   222  ALA222     -0.1231
     93  CA        24.7450  -10.8750   23.3410 C.3   222  ALA222      0.1694
     94  C         23.2540  -10.7480   23.6520 C.2   222  ALA222      0.2592
     95  O         22.5010  -11.7130   23.5120 O.2   222  ALA222     -0.2718
     96  CB        25.5500  -10.9900   24.6280 C.3   222  ALA222      0.0304
     97  N         22.8320   -9.5600   24.0780 N.am  223  PHE223     -0.1976
     98  CA        21.4190   -9.3150   24.3700 C.3   223  PHE223      0.1639
     99  C         20.5320   -9.5620   23.1500 C.2   223  PHE223      0.2290
    100  O         19.4730  -10.1850   23.2510 O.2   223  PHE223     -0.2864
    101  CB        21.2190   -7.8850   24.8780 C.3   223  PHE223      0.0560
    102  CG        21.5260   -7.7050   26.3430 C.ar  223  PHE223     -0.0200
    103  CD1       20.9720   -8.5510   27.2930 C.ar  223  PHE223     -0.0042
    104  CD2       22.3650   -6.6890   26.7670 C.ar  223  PHE223     -0.0042
    105  CE1       21.2490   -8.3820   28.6410 C.ar  223  PHE223     -0.0003
    106  CE2       22.6460   -6.5160   28.1130 C.ar  223  PHE223     -0.0003
    107  CZ        22.0870   -7.3630   29.0500 C.ar  223  PHE223     -0.0000
    108  N         23.0300   -1.5610   18.3960 N.3   237  VAL237     -0.1231
    109  CA        23.7810   -0.3430   18.1320 C.3   237  VAL237      0.1692
    110  C         25.0610   -0.2960   18.9570 C.2   237  VAL237      0.2592
    111  O         25.0200   -0.2930   20.1880 O.2   237  VAL237     -0.2718
    112  CB        22.9590    0.9180   18.4480 C.3   237  VAL237      0.0266
    113  CG1       23.7560    2.1630   18.1010 C.3   237  VAL237      0.0020
    114  CG2       21.6360    0.8970   17.6980 C.3   237  VAL237      0.0020
    115  N         26.1970   -0.2640   18.2760 N.am  238  ASP238     -0.1960
    116  CA        27.4690   -0.1070   18.9610 C.3   238  ASP238      0.1840
    117  C         28.3860    0.8050   18.1620 C.2   238  ASP238      0.2622
    118  O         28.3160    0.8570   16.9340 O.2   238  ASP238     -0.2715
    119  CB        28.1340   -1.4590   19.2070 C.3   238  ASP238      0.1450
    120  CG        29.2690   -1.3710   20.2080 C.2   238  ASP238      0.3671
    121  OD1       30.3670   -0.9170   19.8240 O.co2 238  ASP238     -0.2456
    122  OD2       29.0630   -1.7510   21.3830 O.co2 238  ASP238     -0.2456
    123  N         29.2100    1.5700   18.8720 N.am  239  LEU239     -0.1963
    124  CA        30.1580    2.4910   18.2460 C.3   239  LEU239      0.1728
    125  C         31.2410    1.7910   17.4220 C.2   239  LEU239      0.2616
    126  O         31.6130    2.2580   16.3450 O.2   239  LEU239     -0.2715
    127  CB        30.8200    3.3720   19.3100 C.3   239  LEU239      0.0311
    128  CG        31.6410    4.5480   18.7750 C.3   239  LEU239      0.0022
    129  CD1       31.0010    5.1220   17.5210 C.3   239  LEU239      0.0001
    130  CD2       31.7960    5.6210   19.8410 C.3   239  LEU239      0.0001
    131  N         31.7490    0.6790   17.9430 N.am  240  ALA240     -0.1977
    132  CA        32.9150    0.0140   17.3580 C.3   240  ALA240      0.1597
    133  C         32.5860   -0.7090   16.0560 C.2   240  ALA240      0.2287
    134  O         31.6670   -1.5260   16.0030 O.2   240  ALA240     -0.2864
    135  CB        33.5310   -0.9550   18.3630 C.3   240  ALA240      0.0319
    136  N         26.6380    2.8050   15.0840 N.3   266  MET266     -0.1230
    137  CA        26.2780    4.1850   15.3830 C.3   266  MET266      0.1702
    138  C         26.4950    4.5320   16.8480 C.2   266  MET266      0.2592
    139  O         26.2430    3.7160   17.7350 O.2   266  MET266     -0.2718
    140  CB        24.8160    4.4380   15.0090 C.3   266  MET266      0.0401
    141  CG        24.6220    5.5600   14.0020 C.3   266  MET266      0.0596
    142  SD        22.8930    5.7970   13.5490 S.3   266  MET266     -0.1393
    143  CE        23.0650    6.4730   11.8990 C.3   266  MET266      0.0692
    144  N         26.9550    5.7520   17.1000 N.am  267  ASP267     -0.1960
    145  CA        27.0430    6.2330   18.4630 C.3   267  ASP267      0.1840
    146  C         25.6100    6.2700   18.9620 C.2   267  ASP267      0.2623
    147  O         24.7100    6.7140   18.2490 O.2   267  ASP267     -0.2715
    148  CB        27.6680    7.6250   18.5130 C.3   267  ASP267      0.1450
    149  CG        27.6300    8.2310   19.9020 C.2   267  ASP267      0.3671
    150  OD1       26.5320    8.3000   20.4940 O.co2 267  ASP267     -0.2456
    151  OD2       28.6990    8.6400   20.4040 O.co2 267  ASP267     -0.2456
    152  N         25.3940    5.7950   20.1800 N.am  268  THR268     -0.1937
    153  CA        24.0400    5.6760   20.7040 C.3   268  THR268      0.2028
    154  C         23.2610    6.9840   20.6250 C.2   268  THR268      0.2642
    155  O         22.0650    6.9880   20.3420 O.2   268  THR268     -0.2714
    156  CB        24.0560    5.1920   22.1680 C.3   268  THR268      0.1808
    157  OG1       24.3580    3.7920   22.1970 O.3   268  THR268     -0.2208
    158  CG2       22.7080    5.4310   22.8280 C.3   268  THR268      0.0379
    159  N         23.9390    8.0980   20.8770 N.am  269  PHE269     -0.1973
    160  CA        23.2560    9.3860   20.9200 C.3   269  PHE269      0.1639
    161  C         22.9220    9.9080   19.5270 C.2   269  PHE269      0.2290
    162  O         22.0350   10.7460   19.3650 O.2   269  PHE269     -0.2864
    163  CB        24.0660   10.4040   21.7180 C.3   269  PHE269      0.0560
    164  CG        24.1350   10.0940   23.1860 C.ar  269  PHE269     -0.0200
    165  CD1       23.0300   10.2880   23.9960 C.ar  269  PHE269     -0.0042
    166  CD2       25.3000    9.6070   23.7540 C.ar  269  PHE269     -0.0042
    167  CE1       23.0850   10.0010   25.3480 C.ar  269  PHE269     -0.0003
    168  CE2       25.3640    9.3210   25.1070 C.ar  269  PHE269     -0.0003
    169  CZ        24.2540    9.5150   25.9030 C.ar  269  PHE269     -0.0000
    170  N         23.1020   -0.7120   28.2470 N.3   288  ASP288     -0.1225
    171  CA        24.1640   -1.2320   29.1000 C.3   288  ASP288      0.1790
    172  C         25.4970   -0.6290   28.6960 C.2   288  ASP288      0.2440
    173  O         26.3130   -1.2870   28.0500 O.2   288  ASP288     -0.2733
    174  CB        24.2230   -2.7570   29.0020 C.3   288  ASP288      0.1423
    175  CG        25.2350   -3.3650   29.9510 C.2   288  ASP288      0.3668
    176  OD1       25.4410   -2.8010   31.0480 O.co2 288  ASP288     -0.2456
    177  OD2       25.8280   -4.4090   29.6040 O.co2 288  ASP288     -0.2456
    178  N         25.7230    0.6360   29.0750 N.am  289  PRO289     -0.2718
    179  CA        26.8990    1.3880   28.6450 C.3   289  PRO289      0.1520
    180  C         28.1220    1.1430   29.5250 C.2   289  PRO289      0.2440
    181  O         27.9930    0.6620   30.6510 O.2   289  PRO289     -0.2731
    182  CB        26.4400    2.8360   28.8110 C.3   289  PRO289      0.0310
    183  CG        25.5490    2.7800   30.0050 C.3   289  PRO289      0.0237
    184  CD        24.8260    1.4520   29.9140 C.3   289  PRO289      0.0939
    185  N         29.3080    1.4820   29.0090 N.am  290  PRO290     -0.2727
    186  CA        30.5270    1.4660   29.8160 C.3   290  PRO290      0.1402
    187  C         30.4500    2.6030   30.8270 C.2   290  PRO290      0.2269
    188  O         29.7590    3.5900   30.5650 O.2   290  PRO290     -0.2865
    189  CB        31.6250    1.7400   28.7890 C.3   290  PRO290      0.0296
    190  CG        30.9450    2.5420   27.7320 C.3   290  PRO290      0.0237
    191  CD        29.5480    1.9960   27.6480 C.3   290  PRO290      0.0939
    192  N         33.0700    6.9070   28.6900 N.3   293  ALA293     -0.1245
    193  CA        33.3670    6.8270   27.2640 C.3   293  ALA293      0.1562
    194  C         33.5420    8.2090   26.6440 C.2   293  ALA293      0.2260
    195  O         32.9840    9.1930   27.1270 O.2   293  ALA293     -0.2867
    196  CB        32.2740    6.0580   26.5410 C.3   293  ALA293      0.0290
    197  N         33.6990   10.0550   22.6580 N.3   295  ASN295     -0.1240
    198  CA        33.6120    9.9860   21.2050 C.3   295  ASN295      0.1653
    199  C         33.4420   11.3770   20.6110 C.2   295  ASN295      0.2266
    200  O         32.5810   12.1430   21.0440 O.2   295  ASN295     -0.2867
    201  CB        32.4470    9.0920   20.7760 C.3   295  ASN295      0.1155
    202  CG        32.3260    8.9770   19.2640 C.2   295  ASN295      0.2627
    203  OD1       33.3300    8.9470   18.5510 O.2   295  ASN295     -0.2716
    204  ND2       31.0970    8.9220   18.7700 N.am  295  ASN295     -0.0877
    205  N         30.8770   10.7090   28.0480 N.3   300  PHE300     -0.1241
    206  CA        29.8160   10.0530   28.7950 C.3   300  PHE300      0.1605
    207  C         30.3280    9.4840   30.1080 C.2   300  PHE300      0.2264
    208  O         31.2380    8.6550   30.1250 O.2   300  PHE300     -0.2867
    209  CB        29.1750    8.9400   27.9640 C.3   300  PHE300      0.0534
    210  CG        28.1540    8.1350   28.7200 C.ar  300  PHE300     -0.0203
    211  CD1       26.8210    8.5110   28.7280 C.ar  300  PHE300     -0.0042
    212  CD2       28.5280    7.0020   29.4230 C.ar  300  PHE300     -0.0042
    213  CE1       25.8800    7.7740   29.4220 C.ar  300  PHE300     -0.0003
    214  CE2       27.5920    6.2600   30.1200 C.ar  300  PHE300     -0.0003
    215  CZ        26.2680    6.6450   30.1210 C.ar  300  PHE300     -0.0000
    216  N         27.3910   -1.5670   35.1650 N.3   328  ASN328     -0.1240
    217  CA        28.4210   -2.3610   35.7850 C.3   328  ASN328      0.1653
    218  C         29.3750   -1.5820   36.7060 C.2   328  ASN328      0.2266
    219  O         30.3470   -2.1200   37.1820 O.2   328  ASN328     -0.2867
    220  CB        29.2180   -3.1770   34.7670 C.3   328  ASN328      0.1155
    221  CG        30.0040   -2.2960   33.7810 C.2   328  ASN328      0.2627
    222  OD1       30.4690   -1.2340   34.1620 O.2   328  ASN328     -0.2716
    223  ND2       30.1060   -2.6960   32.5140 N.am  328  ASN328     -0.0877
@<TRIPOS>BOND
     1   143   142    1
     2   142   141    1
     3   141   140    1
     4   140   137    1
     5   136   137    1
     6   137   138    1
     7   134   133    2
     8   133   132    1
     9   126   125    2
    10   138   144   am
    11   138   139    2
    12   118   117    2
    13   144   145    1
    14   132   131    1
    15   132   135    1
    16   125   131   am
    17   125   124    1
    18   129   128    1
    19   114   112    1
    20   113   112    1
    21   109   108    1
    22   109   112    1
    23   109   110    1
    24   117   123   am
    25   117   116    1
    26   124   123    1
    27   124   127    1
    28   147   146    2
    29   115   110   am
    30   115   116    1
    31   145   148    1
    32   145   146    1
    33   148   149    1
    34   203   202    2
    35   204   202   am
    36   128   127    1
    37   128   130    1
    38   110   111    2
    39   116   119    1
    40   146   152   am
    41   119   120    1
    42   202   201    1
    43   162   161    2
    44   161   160    1
    45    88    87    2
    46    72    71    1
    47    76    75    2
    48   121   120   ar
    49   149   151   ar
    50   149   150   ar
    51   152   153    1
    52   120   122   ar
    53    87    86    1
    54   155   154    2
    55    86    89    1
    56    86    85    1
    57   199   200    2
    58   199   198    1
    59   154   153    1
    60   154   159   am
    61    71    68    1
    62   153   156    1
    63   201   198    1
    64   159   160    1
    65   160   163    1
    66    75    85   am
    67    75    74    1
    68    89    91    1
    69    89    90    1
    70   198   197    1
    71    55    53    1
    72   163   164    1
    73    73    74    1
    74    73    69   am
    75    74    77    1
    76    68    67    1
    77    68    69    1
    78   156   157    1
    79   156   158    1
    80    67    58   am
    81    69    70    2
    82    92    93    1
    83    53    52    1
    84    53    54    1
    85    49    48    1
    86    49    52    1
    87    49    50    1
    88    79    81   ar
    89    79    78   ar
    90    56    57    1
    91    56    50   am
    92    81    83   ar
    93    99   100    2
    94    99    98    1
    95   164   166   ar
    96   164   165   ar
    97    93    94    1
    98    93    96    1
    99    77    78    1
   100    58    57    1
   101    58    59    2
   102    57    60    1
   103    95    94    2
   104    78    80   ar
   105    50    51    2
   106    94    97   am
   107   166   168   ar
   108    83    84    1
   109    83    82   ar
   110   165   167   ar
   111    97    98    1
   112    80    82   ar
   113    98   101    1
   114    60    61    1
   115   101   102    1
   116    63    61   ar
   117    63    65   ar
   118    61    62   ar
   119    65    66   ar
   120   168   169   ar
   121   167   169   ar
   122    62    64   ar
   123    66    64   ar
   124     4     3    2
   125     9    10    1
   126     7     8    1
   127     7     6    1
   128     3     2    1
   129     5     2    1
   130     5     6    1
   131   102   104   ar
   132   102   103   ar
   133    13    10    1
   134    13    14    1
   135    13    15    1
   136    10    11    1
   137   196   193    1
   138   194   195    2
   139   194   193    1
   140   104   106   ar
   141    14    16    1
   142     2     1    1
   143   193   192    1
   144   103   105   ar
   145    43    42    1
   146    43    44    1
   147   191   190    1
   148   191   185    1
   149   190   189    1
   150   209   210    1
   151   209   206    1
   152    11    12    2
   153    11    17   am
   154   205   206    1
   155   173   172    2
   156   106   107   ar
   157    42    41    1
   158   170   171    1
   159    26    24   ar
   160    26    27   ar
   161    44    45    2
   162    40    39    2
   163    46    45    1
   164    17    18    1
   165   105   107   ar
   166   179   182    1
   167   179   178    1
   168   179   180    1
   169    24    22   ar
   170   172   178   am
   171   172   171    1
   172    41    38    1
   173   210   211   ar
   174   210   212   ar
   175   211   213   ar
   176   189   186    1
   177   206   207    1
   178   182   183    1
   179    45    47    1
   180   174   171    1
   181   174   175    1
   182   185   180   am
   183   185   186    1
   184   178   184    1
   185    27    25   ar
   186    39    38    1
   187    38    37    1
   188   213   215   ar
   189   212   214   ar
   190   180   181    2
   191   177   175   ar
   192   186   187    1
   193   184   183    1
   194    22    21    1
   195    22    23   ar
   196   175   176   ar
   197    18    21    1
   198    18    19    1
   199   207   208    2
   200   214   215   ar
   201    35    34    2
   202    25    23   ar
   203   188   187    2
   204    19    20    2
   205    34    36   am
   206    34    33    1
   207    31    30    2
   208    32    33    1
   209    32    29    1
   210    30    29    1
   211   223   221   am
   212    29    28    1
   213   221   222    2
   214   221   220    1
   215   220   217    1
   216   216   217    1
   217   217   218    1
   218   218   219    2
