@<TRIPOS>MOLECULE
tmp/3vsiB00.pdb
 115 114 0 0 0
SMALL
GASTEIGER

@<TRIPOS>ATOM
      1  N        -46.0230  -15.6430   36.8160 N.3    13  HIS13      -0.1227
      2  CA       -46.3960  -14.4470   36.0640 C.3    13  HIS13       0.1737
      3  C        -47.7760  -13.8390   36.3810 C.2    13  HIS13       0.2438
      4  O        -48.3720  -13.2260   35.5050 O.2    13  HIS13      -0.2733
      5  CB       -46.3410  -14.7520   34.5600 C.3    13  HIS13       0.0758
      6  CG       -47.2410  -15.8740   34.1520 C.ar   13  HIS13       0.0818
      7  ND1      -46.7580  -17.1000   33.7500 N.ar   13  HIS13      -0.2268
      8  CD2      -48.5830  -16.0160   34.2550 C.ar   13  HIS13       0.1154
      9  CE1      -47.7700  -17.9310   33.5710 C.ar   13  HIS13       0.1986
     10  NE2      -48.8870  -17.3000   33.8770 N.ar   13  HIS13      -0.2212
     11  N        -48.2990  -13.9940   37.6110 N.am   14  PRO14      -0.2718
     12  CA       -49.5850  -13.3040   37.7840 C.3    14  PRO14       0.1520
     13  C        -49.3970  -11.7840   37.7150 C.2    14  PRO14       0.2440
     14  O        -48.5640  -11.2450   38.4380 O.2    14  PRO14      -0.2731
     15  CB       -50.0520  -13.7460   39.1780 C.3    14  PRO14       0.0310
     16  CG       -48.8740  -14.3130   39.8390 C.3    14  PRO14       0.0237
     17  CD       -47.9660  -14.8340   38.7720 C.3    14  PRO14       0.0939
     18  N        -50.1000  -11.1110   36.7840 N.am   15  PRO15      -0.2716
     19  CA       -49.8650   -9.6950   36.4810 C.3    15  PRO15       0.1536
     20  C        -50.0380   -8.7820   37.6870 C.2    15  PRO15       0.2598
     21  O        -49.5310   -7.6590   37.6930 O.2    15  PRO15      -0.2715
     22  CB       -50.9300   -9.3800   35.4250 C.3    15  PRO15       0.0310
     23  CG       -51.9600  -10.4400   35.5880 C.3    15  PRO15       0.0237
     24  CD       -51.2000  -11.6550   35.9750 C.3    15  PRO15       0.0939
     25  N        -50.7210   -9.2830   38.7090 N.am   16  HIS16      -0.1974
     26  CA       -50.9300   -8.5340   39.9440 C.3    16  HIS16       0.1656
     27  C        -49.6130   -8.1740   40.6220 C.2    16  HIS16       0.2291
     28  O        -49.5200   -7.1570   41.3110 O.2    16  HIS16      -0.2864
     29  CB       -51.8120   -9.3380   40.8870 C.3    16  HIS16       0.0771
     30  CG       -53.1560   -9.6500   40.3180 C.ar   16  HIS16       0.0820
     31  ND1      -53.3890  -10.7520   39.5270 N.ar   16  HIS16      -0.2267
     32  CD2      -54.3220   -8.9670   40.3670 C.ar   16  HIS16       0.1154
     33  CE1      -54.6580  -10.7640   39.1580 C.ar   16  HIS16       0.1986
     34  NE2      -55.2460   -9.6910   39.6550 N.ar   16  HIS16      -0.2212
     35  N        -48.8420  -18.3650   28.0750 N.3    62  HIS62      -0.1241
     36  CA       -49.8220  -17.4320   27.5120 C.3    62  HIS62       0.1621
     37  C        -49.5330  -16.9990   26.0800 C.2    62  HIS62       0.2264
     38  O        -50.1580  -16.0660   25.5580 O.2    62  HIS62      -0.2867
     39  CB       -50.0890  -16.2760   28.4770 C.3    62  HIS62       0.0745
     40  CG       -50.6220  -16.7460   29.7920 C.ar   62  HIS62       0.0817
     41  ND1      -51.9400  -17.1200   29.9520 N.ar   62  HIS62      -0.2268
     42  CD2      -49.9800  -17.1610   30.9090 C.ar   62  HIS62       0.1154
     43  CE1      -52.1050  -17.6470   31.1510 C.ar   62  HIS62       0.1986
     44  NE2      -50.9310  -17.6750   31.7560 N.ar   62  HIS62      -0.2212
     45  N        -57.3940   -9.2770   33.2810 N.3    86  PHE86      -0.1241
     46  CA       -57.2670   -8.1930   34.2610 C.3    86  PHE86       0.1605
     47  C        -56.6980   -6.9290   33.6250 C.2    86  PHE86       0.2264
     48  O        -55.6250   -6.4670   34.0280 O.2    86  PHE86      -0.2867
     49  CB       -56.3790   -8.6040   35.4480 C.3    86  PHE86       0.0534
     50  CG       -56.8310   -9.8470   36.1560 C.ar   86  PHE86      -0.0203
     51  CD1      -57.6980   -9.7630   37.2410 C.ar   86  PHE86      -0.0042
     52  CD2      -56.3430  -11.0990   35.7710 C.ar   86  PHE86      -0.0042
     53  CE1      -58.0970  -10.9010   37.9180 C.ar   86  PHE86      -0.0003
     54  CE2      -56.7470  -12.2510   36.4310 C.ar   86  PHE86      -0.0003
     55  CZ       -57.6250  -12.1530   37.5140 C.ar   86  PHE86      -0.0000
     56  N        -48.7780  -11.5020   27.6290 N.3   129  TYR129     -0.1241
     57  CA       -48.7640  -10.8660   28.9400 C.3   129  TYR129      0.1605
     58  C        -47.8950  -11.6130   29.9450 C.2   129  TYR129      0.2264
     59  O        -47.3900  -11.0180   30.8960 O.2   129  TYR129     -0.2867
     60  CB       -50.2000  -10.6920   29.4720 C.3   129  TYR129      0.0534
     61  CG       -50.7480  -11.8580   30.2940 C.ar  129  TYR129     -0.0201
     62  CD1      -50.3090  -12.0850   31.6140 C.ar  129  TYR129     -0.0009
     63  CD2      -51.7640  -12.6720   29.7920 C.ar  129  TYR129     -0.0009
     64  CE1      -50.8010  -13.1480   32.3730 C.ar  129  TYR129      0.0417
     65  CE2      -52.2920  -13.7210   30.5560 C.ar  129  TYR129      0.0417
     66  CZ       -51.8060  -13.9500   31.8460 C.ar  129  TYR129      0.1957
     67  OH       -52.3250  -14.9770   32.6060 O.3   129  TYR129     -0.2866
     68  N        -47.0300  -21.1350   37.1570 N.3   192  THR192     -0.1218
     69  CA       -47.7340  -21.0510   38.4140 C.3   192  THR192      0.1862
     70  C        -47.9420  -22.4780   38.9290 C.2   192  THR192      0.2287
     71  O        -47.7380  -23.4390   38.1950 O.2   192  THR192     -0.2866
     72  CB       -49.0630  -20.3270   38.1820 C.3   192  THR192      0.1770
     73  OG1      -48.8340  -18.9130   38.2040 O.3   192  THR192     -0.2211
     74  CG2      -50.1040  -20.6880   39.2290 C.3   192  THR192      0.0375
     75  N        -53.8500  -24.0810   40.6550 N.3   195  HIS195     -0.1241
     76  CA       -54.5540  -23.0990   39.8310 C.3   195  HIS195      0.1621
     77  C        -56.0720  -23.2740   39.9180 C.2   195  HIS195      0.2264
     78  O        -56.7880  -22.9780   38.9550 O.2   195  HIS195     -0.2867
     79  CB       -54.0970  -23.2600   38.3780 C.3   195  HIS195      0.0745
     80  CG       -54.0450  -21.9830   37.5970 C.ar  195  HIS195      0.0817
     81  ND1      -55.1720  -21.2520   37.2860 N.ar  195  HIS195     -0.2268
     82  CD2      -53.0210  -21.3920   36.9350 C.ar  195  HIS195      0.1154
     83  CE1      -54.8300  -20.2220   36.5320 C.ar  195  HIS195      0.1986
     84  NE2      -53.5310  -20.2850   36.3020 N.ar  195  HIS195     -0.2212
     85  N        -50.2470  -25.1580   36.6920 N.3   251  GLU251     -0.1245
     86  CA       -49.8820  -24.5350   35.4260 C.3   251  GLU251      0.1567
     87  C        -48.5880  -25.1150   34.8360 C.2   251  GLU251      0.2260
     88  O        -48.2310  -24.8030   33.6960 O.2   251  GLU251     -0.2867
     89  CB       -49.7760  -23.0150   35.5740 C.3   251  GLU251      0.0388
     90  CG       -50.1590  -22.2440   34.3180 C.3   251  GLU251      0.1160
     91  CD       -49.5430  -20.8640   34.2730 C.2   251  GLU251      0.3649
     92  OE1      -48.3560  -20.7410   34.6150 O.co2 251  GLU251     -0.2457
     93  OE2      -50.2160  -19.9050   33.8510 O.co2 251  GLU251     -0.2457
     94  N        -51.9740  -15.5990   44.6520 N.3   279  VAL279     -0.1231
     95  CA       -52.5320  -14.5210   43.8440 C.3   279  VAL279      0.1692
     96  C        -53.8350  -15.0350   43.2560 C.2   279  VAL279      0.2591
     97  O        -53.8330  -15.9740   42.4600 O.2   279  VAL279     -0.2718
     98  CB       -51.5850  -14.0760   42.7010 C.3   279  VAL279      0.0266
     99  CG1      -52.2640  -13.0110   41.8440 C.3   279  VAL279      0.0020
    100  CG2      -50.2780  -13.5460   43.2490 C.3   279  VAL279      0.0020
    101  N        -54.9410  -14.4350   43.6840 N.am  280  ILE280     -0.1980
    102  CA       -56.2850  -14.8690   43.2950 C.3   280  ILE280      0.1595
    103  C        -56.4680  -16.3560   43.6350 C.2   280  ILE280      0.2287
    104  O        -56.7770  -17.1660   42.7620 O.2   280  ILE280     -0.2864
    105  CB       -56.5900  -14.5650   41.7780 C.3   280  ILE280      0.0276
    106  CG1      -56.1880  -13.1310   41.4010 C.3   280  ILE280      0.0022
    107  CG2      -58.0520  -14.8050   41.4360 C.3   280  ILE280      0.0022
    108  CD1      -56.7790  -12.0230   42.2880 C.3   280  ILE280      0.0001
    109  N        -54.4520  -18.5500   43.8580 N.3   282  THR282     -0.1218
    110  CA       -53.5470  -19.3400   43.0420 C.3   282  THR282      0.1862
    111  C        -52.1740  -19.4410   43.7010 C.2   282  THR282      0.2287
    112  O        -51.6530  -18.4460   44.2060 O.2   282  THR282     -0.2866
    113  CB       -53.4680  -18.6950   41.6470 C.3   282  THR282      0.1770
    114  OG1      -54.3790  -19.3590   40.7590 O.3   282  THR282     -0.2211
    115  CG2      -52.0760  -18.7280   41.0860 C.3   282  THR282      0.0375
@<TRIPOS>BOND
     1    38    37    2
     2    37    36    1
     3    36    35    1
     4    36    39    1
     5    56    57    1
     6    39    40    1
     7    57    60    1
     8    57    58    1
     9    60    61    1
    10    40    41   ar
    11    40    42   ar
    12    63    61   ar
    13    63    65   ar
    14    58    59    2
    15    41    43   ar
    16    61    62   ar
    17    65    66   ar
    18    42    44   ar
    19    43    44   ar
    20    62    64   ar
    21    66    64   ar
    22    66    67    1
    23    45    46    1
    24     9     7   ar
    25     9    10   ar
    26    47    48    2
    27    47    46    1
    28    88    87    2
    29     7     6   ar
    30    93    91   ar
    31    10     8   ar
    32     6     8   ar
    33     6     5    1
    34    46    49    1
    35    91    90    1
    36    91    92   ar
    37    90    89    1
    38     5     2    1
    39    87    86    1
    40    22    23    1
    41    22    19    1
    42    86    89    1
    43    86    85    1
    44    49    50    1
    45     4     3    2
    46    23    24    1
    47    52    50   ar
    48    52    54   ar
    49    24    18    1
    50     2     3    1
    51     2     1    1
    52    50    51   ar
    53    84    83   ar
    54    84    82   ar
    55     3    11   am
    56    54    55   ar
    57    19    18    1
    58    19    20    1
    59    83    81   ar
    60    18    13   am
    61    82    80   ar
    62    68    69    1
    63    51    53   ar
    64    81    80   ar
    65    55    53   ar
    66    80    79    1
    67    11    12    1
    68    11    17    1
    69    20    21    2
    70    20    25   am
    71    13    12    1
    72    13    14    2
    73    12    15    1
    74    72    73    1
    75    72    69    1
    76    72    74    1
    77    71    70    2
    78    79    76    1
    79    69    70    1
    80    25    26    1
    81    17    16    1
    82    78    77    2
    83    33    31   ar
    84    33    34   ar
    85    15    16    1
    86    31    30   ar
    87    34    32   ar
    88    76    77    1
    89    76    75    1
    90    26    27    1
    91    26    29    1
    92    30    32   ar
    93    30    29    1
    94    27    28    2
    95   114   113    1
    96   115   113    1
    97   106   105    1
    98   106   108    1
    99   107   105    1
   100   113   110    1
   101   105   102    1
   102    99    98    1
   103    97    96    2
   104    98   100    1
   105    98    95    1
   106   104   103    2
   107   110   111    1
   108   110   109    1
   109    96   101   am
   110    96    95    1
   111   102   103    1
   112   102   101    1
   113   111   112    2
   114    95    94    1
