@<TRIPOS>MOLECULE
tmp/3vsjD00.pdb
 123 121 0 0 0
SMALL
GASTEIGER

@<TRIPOS>ATOM
      1  N        109.6640   58.0780   17.6370 N.3    13  HIS13      -0.1227
      2  CA       109.3820   56.8320   18.3620 C.3    13  HIS13       0.1737
      3  C        108.0140   56.1880   18.0790 C.2    13  HIS13       0.2438
      4  O        107.3860   55.6500   18.9950 O.2    13  HIS13      -0.2733
      5  CB       109.5110   57.0870   19.8750 C.3    13  HIS13       0.0758
      6  CG       108.6730   58.2270   20.3720 C.ar   13  HIS13       0.0818
      7  ND1      109.2170   59.4280   20.7740 N.ar   13  HIS13      -0.2268
      8  CD2      107.3300   58.3690   20.4770 C.ar   13  HIS13       0.1154
      9  CE1      108.2460   60.2480   21.1340 C.ar   13  HIS13       0.1986
     10  NE2      107.0910   59.6360   20.9470 N.ar   13  HIS13      -0.2212
     11  N        107.5610   56.1840   16.8110 N.am   14  PRO14      -0.2718
     12  CA       106.2970   55.4750   16.6010 C.3    14  PRO14       0.1520
     13  C        106.4860   53.9730   16.7780 C.2    14  PRO14       0.2440
     14  O        107.3470   53.3950   16.1230 O.2    14  PRO14      -0.2731
     15  CB       105.9180   55.8110   15.1510 C.3    14  PRO14       0.0310
     16  CG       107.1110   56.4600   14.5480 C.3    14  PRO14       0.0237
     17  CD       107.9580   56.9830   15.6400 C.3    14  PRO14       0.0939
     18  N        105.7000   53.3450   17.6710 N.am   15  PRO15      -0.2716
     19  CA       105.8450   51.9170   17.9570 C.3    15  PRO15       0.1536
     20  C        105.4820   51.0260   16.7670 C.2    15  PRO15       0.2598
     21  O        105.8860   49.8640   16.7100 O.2    15  PRO15      -0.2715
     22  CB       104.8550   51.6970   19.1000 C.3    15  PRO15       0.0310
     23  CG       103.7960   52.7020   18.8640 C.3    15  PRO15       0.0237
     24  CD       104.4870   53.9030   18.2980 C.3    15  PRO15       0.0939
     25  N        104.7180   51.5860   15.8330 N.am   16  HIS16      -0.1974
     26  CA       104.3050   50.8880   14.6260 C.3    16  HIS16       0.1656
     27  C        105.5040   50.4640   13.7830 C.2    16  HIS16       0.2291
     28  O        105.4780   49.4020   13.1620 O.2    16  HIS16      -0.2864
     29  CB       103.3820   51.7810   13.7960 C.3    16  HIS16       0.0771
     30  CG       102.1350   52.1880   14.5160 C.ar   16  HIS16       0.0820
     31  ND1      102.1330   53.1290   15.5220 N.ar   16  HIS16      -0.2267
     32  CD2      100.8530   51.7770   14.3820 C.ar   16  HIS16       0.1154
     33  CE1      100.9040   53.2740   15.9810 C.ar   16  HIS16       0.1986
     34  NE2      100.1070   52.4710   15.3000 N.ar   16  HIS16      -0.2212
     35  N        107.9580   60.8550   26.5970 N.3    62  HIS62      -0.1241
     36  CA       107.1120   59.9530   27.3810 C.3    62  HIS62       0.1621
     37  C        107.7520   59.4700   28.6890 C.2    62  HIS62       0.2264
     38  O        107.3440   58.4620   29.2550 O.2    62  HIS62      -0.2867
     39  CB       106.6510   58.7920   26.4970 C.3    62  HIS62       0.0745
     40  CG       105.8640   59.2410   25.3040 C.ar   62  HIS62       0.0817
     41  ND1      104.5990   59.7790   25.4120 N.ar   62  HIS62      -0.2268
     42  CD2      106.2030   59.3400   23.9970 C.ar   62  HIS62       0.1154
     43  CE1      104.1750   60.1460   24.2160 C.ar   62  HIS62       0.1986
     44  NE2      105.1300   59.8910   23.3400 N.ar   62  HIS62      -0.2212
     45  N         98.8200   51.8930   22.2860 N.3    86  PHE86      -0.1241
     46  CA        98.9320   50.8560   21.2520 C.3    86  PHE86       0.1605
     47  C         99.5180   49.5420   21.7850 C.2    86  PHE86       0.2264
     48  O        100.5570   49.0820   21.3010 O.2    86  PHE86      -0.2867
     49  CB        99.7890   51.3670   20.0890 C.3    86  PHE86       0.0534
     50  CG        99.3870   52.7180   19.5910 C.ar   86  PHE86      -0.0203
     51  CD1       98.3030   52.8610   18.7410 C.ar   86  PHE86      -0.0042
     52  CD2      100.0930   53.8510   19.9750 C.ar   86  PHE86      -0.0042
     53  CE1       97.9270   54.1110   18.2810 C.ar   86  PHE86      -0.0003
     54  CE2       99.7250   55.1000   19.5250 C.ar   86  PHE86      -0.0003
     55  CZ        98.6460   55.2330   18.6710 C.ar   86  PHE86      -0.0000
     56  N        108.4370   53.7190   27.0730 N.3   129  TYR129     -0.1241
     57  CA       108.2560   53.0620   25.7760 C.3   129  TYR129      0.1605
     58  C        108.8100   53.8450   24.5860 C.2   129  TYR129      0.2264
     59  O        109.1650   53.2490   23.5660 O.2   129  TYR129     -0.2867
     60  CB       106.7730   52.7460   25.5460 C.3   129  TYR129      0.0534
     61  CG       105.8390   53.8960   25.8460 C.ar  129  TYR129     -0.0201
     62  CD1      105.6490   54.9190   24.9300 C.ar  129  TYR129     -0.0009
     63  CD2      105.1280   53.9450   27.0390 C.ar  129  TYR129     -0.0009
     64  CE1      104.7870   55.9690   25.1970 C.ar  129  TYR129      0.0417
     65  CE2      104.2760   54.9990   27.3240 C.ar  129  TYR129      0.0417
     66  CZ       104.1020   56.0020   26.3960 C.ar  129  TYR129      0.1957
     67  OH       103.2460   57.0400   26.6630 O.3   129  TYR129     -0.2866
     68  N        108.3420   63.3760   17.0720 N.3   192  THR192     -0.1218
     69  CA       107.6640   63.3970   15.7820 C.3   192  THR192      0.1862
     70  C        107.4020   64.8510   15.4410 C.2   192  THR192      0.2287
     71  O        107.5050   65.7240   16.3050 O.2   192  THR192     -0.2866
     72  CB       106.3190   62.6320   15.7860 C.3   192  THR192      0.1770
     73  OG1      105.2840   63.4540   16.3340 O.3   192  THR192     -0.2211
     74  CG2      106.4160   61.3530   16.5740 C.3   192  THR192      0.0375
     75  N        101.4940   66.3620   14.9660 N.3   195  HIS195     -0.1241
     76  CA       100.8900   65.3130   15.7900 C.3   195  HIS195      0.1621
     77  C         99.3570   65.3010   15.7810 C.2   195  HIS195      0.2264
     78  O         98.7400   64.6710   16.6470 O.2   195  HIS195     -0.2867
     79  CB       101.4130   65.4070   17.2310 C.3   195  HIS195      0.0745
     80  CG       101.5520   64.0820   17.9120 C.ar  195  HIS195      0.0817
     81  ND1      100.4720   63.2770   18.2020 N.ar  195  HIS195     -0.2268
     82  CD2      102.6440   63.4280   18.3740 C.ar  195  HIS195      0.1154
     83  CE1      100.8940   62.1780   18.8010 C.ar  195  HIS195      0.1986
     84  NE2      102.2080   62.2470   18.9200 N.ar  195  HIS195     -0.2212
     85  N        105.4130   67.4540   18.2250 N.3   251  GLU251     -0.1245
     86  CA       105.9530   66.8670   19.4480 C.3   251  GLU251      0.1567
     87  C        107.2760   67.5090   19.8800 C.2   251  GLU251      0.2260
     88  O        107.7010   67.3370   21.0160 O.2   251  GLU251     -0.2867
     89  CB       106.1160   65.3510   19.3060 C.3   251  GLU251      0.0388
     90  CG       106.0140   64.6180   20.6370 C.3   251  GLU251      0.1160
     91  CD       106.2820   63.1360   20.5330 C.2   251  GLU251      0.3649
     92  OE1      106.9750   62.7130   19.5810 O.co2 251  GLU251     -0.2457
     93  OE2      105.8010   62.3960   21.4190 O.co2 251  GLU251     -0.2457
     94  N        102.3950   58.1230   10.4170 N.3   279  VAL279     -0.1231
     95  CA       101.8720   57.0300   11.2570 C.3   279  VAL279      0.1692
     96  C        100.6590   57.5020   12.0710 C.2   279  VAL279      0.2591
     97  O        100.7630   58.4160   12.8950 O.2   279  VAL279     -0.2718
     98  CB       102.9690   56.3760   12.1570 C.3   279  VAL279      0.0266
     99  CG1      104.0440   57.3780   12.5360 C.3   279  VAL279      0.0020
    100  CG2      102.3440   55.7230   13.3980 C.3   279  VAL279      0.0020
    101  N         99.5060   56.8930   11.7940 N.am  280  ILE280     -0.1980
    102  CA        98.2030   57.3610   12.2900 C.3   280  ILE280      0.1595
    103  C         97.9530   58.8340   11.9560 C.2   280  ILE280      0.2287
    104  O         97.2630   59.5380   12.6950 O.2   280  ILE280     -0.2864
    105  CB        98.0550   57.1660   13.8090 C.3   280  ILE280      0.0276
    106  CG1       98.5660   55.7970   14.2400 C.3   280  ILE280      0.0022
    107  CG2       96.5980   57.2740   14.2250 C.3   280  ILE280      0.0022
    108  CD1       98.7600   55.7180   15.7200 C.3   280  ILE280      0.0001
    109  N        100.2820   61.2270   11.8020 N.3   282  THR282     -0.1218
    110  CA       101.2960   62.1190   12.3660 C.3   282  THR282      0.1862
    111  C        102.5260   62.1790   11.4730 C.2   282  THR282      0.2287
    112  O        102.9390   61.1710   10.9130 O.2   282  THR282     -0.2866
    113  CB       101.7450   61.6810   13.7810 C.3   282  THR282      0.1770
    114  OG1      102.3550   60.3870   13.7130 O.3   282  THR282     -0.2211
    115  CG2      100.5630   61.6530   14.7450 C.3   282  THR282      0.0375
    116  N        106.3060   62.1780   10.6510 N.3   284  ASN284     -0.1240
    117  CA       107.5550   61.6690   11.1960 C.3   284  ASN284      0.1653
    118  C        108.6820   61.7250   10.1690 C.2   284  ASN284      0.2266
    119  O        108.5740   61.1440    9.0890 O.2   284  ASN284     -0.2867
    120  CB       107.3670   60.2360   11.6890 C.3   284  ASN284      0.1155
    121  CG       106.3500   60.1370   12.8120 C.2   284  ASN284      0.2627
    122  OD1      105.1450   60.2380   12.5850 O.2   284  ASN284     -0.2716
    123  ND2      106.8320   59.9290   14.0310 N.am  284  ASN284     -0.0877
@<TRIPOS>BOND
     1   119   118    2
     2   118   117    1
     3    94    95    1
     4   116   117    1
     5   112   111    2
     6   117   120    1
     7    95    96    1
     8    95    98    1
     9   111   110    1
    10   120   121    1
    11   101    96   am
    12   101   102    1
    13   109   110    1
    14   103   102    1
    15   103   104    2
    16    96    97    2
    17    98    99    1
    18    98   100    1
    19   102   105    1
    20   110   113    1
    21   122   121    2
    22   121   123   am
    23    28    27    2
    24   114   113    1
    25   113   115    1
    26    27    26    1
    27    29    30    1
    28    29    26    1
    29   105   107    1
    30   105   106    1
    31   106   108    1
    32    32    30   ar
    33    32    34   ar
    34    30    31   ar
    35    16    15    1
    36    16    17    1
    37    26    25    1
    38    75    76    1
    39    15    12    1
    40    34    33   ar
    41    70    69    1
    42    70    71    2
    43    31    33   ar
    44    17    11    1
    45    77    76    1
    46    77    78    2
    47    69    72    1
    48    69    68    1
    49    72    73    1
    50    72    74    1
    51    76    79    1
    52    25    20   am
    53    14    13    2
    54    12    13    1
    55    12    11    1
    56    21    20    2
    57    20    19    1
    58    13    18   am
    59    11     3   am
    60    79    80    1
    61     1     2    1
    62    18    19    1
    63    18    24    1
    64    80    81   ar
    65    80    82   ar
    66    19    22    1
    67     3     2    1
    68     3     4    2
    69    81    83   ar
    70    85    86    1
    71    53    55   ar
    72    53    51   ar
    73    24    23    1
    74     2     5    1
    75    82    84   ar
    76    55    54   ar
    77    51    50   ar
    78    83    84   ar
    79    23    22    1
    80    89    86    1
    81    89    90    1
    82    86    87    1
    83    54    52   ar
    84    92    91   ar
    85    50    52   ar
    86    50    49    1
    87     5     6    1
    88    87    88    2
    89    49    46    1
    90     6     8   ar
    91     6     7   ar
    92     8    10   ar
    93    91    90    1
    94    91    93   ar
    95     7     9   ar
    96    10     9   ar
    97    46    47    1
    98    46    45    1
    99    48    47    2
   100    44    42   ar
   101    44    43   ar
   102    59    58    2
   103    42    40   ar
   104    43    41   ar
   105    58    57    1
   106    62    64   ar
   107    62    61   ar
   108    64    66   ar
   109    40    41   ar
   110    40    39    1
   111    60    57    1
   112    60    61    1
   113    57    56    1
   114    61    63   ar
   115    66    67    1
   116    66    65   ar
   117    39    36    1
   118    35    36    1
   119    63    65   ar
   120    36    37    1
   121    37    38    2
