@<TRIPOS>MOLECULE
tmp/3vsjB00.pdb
 123 121 0 0 0
SMALL
GASTEIGER

@<TRIPOS>ATOM
      1  N        107.3960   57.9730  -14.2610 N.3    13  HIS13      -0.1227
      2  CA       107.0380   59.2360  -14.9220 C.3    13  HIS13       0.1737
      3  C        105.7150   59.8760  -14.4660 C.2    13  HIS13       0.2438
      4  O        105.0330   60.4980  -15.2720 O.2    13  HIS13      -0.2733
      5  CB       106.9800   59.0150  -16.4430 C.3    13  HIS13       0.0758
      6  CG       106.0170   57.9450  -16.8580 C.ar   13  HIS13       0.0818
      7  ND1      106.4300   56.7290  -17.3530 N.ar   13  HIS13      -0.2268
      8  CD2      104.6690   57.8740  -16.7660 C.ar   13  HIS13       0.1154
      9  CE1      105.3750   55.9690  -17.5820 C.ar   13  HIS13       0.1986
     10  NE2      104.2950   56.6350  -17.2190 N.ar   13  HIS13      -0.2212
     11  N        105.3630   59.7740  -13.1760 N.am   14  PRO14      -0.2718
     12  CA       104.1240   60.4600  -12.8130 C.3    14  PRO14       0.1520
     13  C        104.2930   61.9810  -12.9060 C.2    14  PRO14       0.2440
     14  O        105.1660   62.5360  -12.2430 O.2    14  PRO14      -0.2731
     15  CB       103.8770   60.0110  -11.3710 C.3    14  PRO14       0.0310
     16  CG       105.2060   59.6370  -10.8440 C.3    14  PRO14       0.0237
     17  CD       106.0790   59.2500  -12.0000 C.3    14  PRO14       0.0939
     18  N        103.4720   62.6490  -13.7390 N.am   15  PRO15      -0.2716
     19  CA       103.6380   64.0730  -14.0380 C.3    15  PRO15       0.1536
     20  C        103.4220   64.9940  -12.8420 C.2    15  PRO15       0.2598
     21  O        103.8690   66.1450  -12.8620 O.2    15  PRO15      -0.2715
     22  CB       102.5630   64.3310  -15.0910 C.3    15  PRO15       0.0310
     23  CG       101.5170   63.3250  -14.8120 C.3    15  PRO15       0.0237
     24  CD       102.2200   62.1160  -14.3050 C.3    15  PRO15       0.0939
     25  N        102.7480   64.4880  -11.8120 N.am   16  HIS16      -0.1974
     26  CA       102.4960   65.2570  -10.5930 C.3    16  HIS16       0.1656
     27  C        103.8130   65.6830   -9.9300 C.2    16  HIS16       0.2291
     28  O        103.8930   66.7400   -9.3040 O.2    16  HIS16      -0.2864
     29  CB       101.6520   64.4340   -9.6170 C.3    16  HIS16       0.0771
     30  CG       100.3350   63.9910  -10.1820 C.ar   16  HIS16       0.0820
     31  ND1      100.2330   63.0520  -11.1860 N.ar   16  HIS16      -0.2267
     32  CD2       99.0680   64.3650   -9.8890 C.ar   16  HIS16       0.1154
     33  CE1       98.9610   62.8680  -11.4860 C.ar   16  HIS16       0.1986
     34  NE2       98.2330   63.6550  -10.7150 N.ar   16  HIS16      -0.2212
     35  N        104.2860   55.1920  -22.9850 N.3    62  HIS62      -0.1241
     36  CA       103.3250   56.1050  -23.6100 C.3    62  HIS62       0.1621
     37  C        103.7020   56.5200  -25.0370 C.2    62  HIS62       0.2264
     38  O        103.1330   57.4670  -25.5880 O.2    62  HIS62      -0.2867
     39  CB       103.0940   57.3060  -22.6960 C.3    62  HIS62       0.0745
     40  CG       102.5560   56.9220  -21.3530 C.ar   62  HIS62       0.0817
     41  ND1      101.2620   56.4840  -21.1730 N.ar   62  HIS62      -0.2268
     42  CD2      103.1640   56.8000  -20.1490 C.ar   62  HIS62       0.1154
     43  CE1      101.0840   56.1440  -19.9090 C.ar   62  HIS62       0.1986
     44  NE2      102.2200   56.3370  -19.2630 N.ar   62  HIS62      -0.2212
     45  N         99.6190   66.4970  -21.0560 N.3    83  ASP83      -0.1239
     46  CA        99.1540   65.1830  -20.6190 C.3    83  ASP83       0.1674
     47  C         97.6550   65.0240  -20.8980 C.2    83  ASP83       0.2266
     48  O         96.8550   65.8510  -20.4570 O.2    83  ASP83      -0.2867
     49  CB        99.4410   65.0100  -19.1260 C.3    83  ASP83       0.1410
     50  CG        99.2470   63.5840  -18.6460 C.2    83  ASP83       0.3668
     51  OD1       98.1050   63.0780  -18.7320 O.co2  83  ASP83      -0.2456
     52  OD2      100.2180   63.0080  -18.0980 O.co2  83  ASP83      -0.2456
     53  N         95.9720   64.1890  -17.2430 N.3    86  PHE86      -0.1241
     54  CA        96.1910   65.2440  -16.2490 C.3    86  PHE86       0.1605
     55  C         96.6750   66.5540  -16.8980 C.2    86  PHE86       0.2264
     56  O         97.7640   67.0450  -16.5780 O.2    86  PHE86      -0.2867
     57  CB        97.2030   64.7810  -15.1950 C.3    86  PHE86       0.0534
     58  CG        96.9070   63.4230  -14.6180 C.ar   86  PHE86      -0.0203
     59  CD1       96.0240   63.2840  -13.5600 C.ar   86  PHE86      -0.0042
     60  CD2       97.5350   62.2910  -15.1200 C.ar   86  PHE86      -0.0042
     61  CE1       95.7510   62.0330  -13.0230 C.ar   86  PHE86      -0.0003
     62  CE2       97.2590   61.0350  -14.6040 C.ar   86  PHE86      -0.0003
     63  CZ        96.3780   60.9060  -13.5360 C.ar   86  PHE86      -0.0000
     64  N        104.7170   62.3130  -23.4670 N.3   129  TYR129     -0.1241
     65  CA       104.7000   62.9430  -22.1480 C.3   129  TYR129      0.1605
     66  C        105.3830   62.1190  -21.0530 C.2   129  TYR129      0.2264
     67  O        105.8620   62.6840  -20.0660 O.2   129  TYR129     -0.2867
     68  CB       103.2600   63.2620  -21.7320 C.3   129  TYR129      0.0534
     69  CG       102.3120   62.0990  -21.8860 C.ar  129  TYR129     -0.0201
     70  CD1      102.2150   61.1180  -20.9050 C.ar  129  TYR129     -0.0009
     71  CD2      101.5280   61.9700  -23.0280 C.ar  129  TYR129     -0.0009
     72  CE1      101.3570   60.0420  -21.0580 C.ar  129  TYR129      0.0417
     73  CE2      100.6750   60.9050  -23.1920 C.ar  129  TYR129      0.0417
     74  CZ       100.5920   59.9360  -22.2100 C.ar  129  TYR129      0.1957
     75  OH        99.7400   58.8640  -22.3760 O.3   129  TYR129     -0.2866
     76  N        106.0680   52.7360  -13.5500 N.3   192  THR192     -0.1218
     77  CA       105.5750   52.6910  -12.1730 C.3   192  THR192      0.1862
     78  C        105.2700   51.2310  -11.8240 C.2   192  THR192      0.2287
     79  O        105.2590   50.3700  -12.6980 O.2   192  THR192     -0.2866
     80  CB       104.3220   53.5850  -11.9360 C.3   192  THR192      0.1770
     81  OG1      103.1280   52.8850  -12.2970 O.3   192  THR192     -0.2211
     82  CG2      104.4120   54.8740  -12.7250 C.3   192  THR192      0.0375
     83  N         99.5480   49.7510  -10.4300 N.3   195  HIS195     -0.1241
     84  CA        98.8700   50.8040  -11.1880 C.3   195  HIS195      0.1621
     85  C         97.3560   50.8260  -10.9610 C.2   195  HIS195      0.2264
     86  O         96.6250   51.4630  -11.7250 O.2   195  HIS195     -0.2867
     87  CB        99.1770   50.6650  -12.6850 C.3   195  HIS195      0.0745
     88  CG        99.1790   51.9640  -13.4300 C.ar  195  HIS195      0.0817
     89  ND1       98.0530   52.7470  -13.5650 N.ar  195  HIS195     -0.2268
     90  CD2      100.1610   52.5950  -14.1150 C.ar  195  HIS195      0.1154
     91  CE1       98.3490   53.8170  -14.2800 C.ar  195  HIS195      0.1986
     92  NE2       99.6220   53.7490  -14.6260 N.ar  195  HIS195     -0.2212
     93  N        102.9370   48.5660  -14.1920 N.3   251  GLU251     -0.1245
     94  CA       103.2840   49.1750  -15.4770 C.3   251  GLU251      0.1567
     95  C        104.5380   48.5710  -16.1070 C.2   251  GLU251      0.2260
     96  O        104.8320   48.8580  -17.2650 O.2   251  GLU251     -0.2867
     97  CB       103.4540   50.6930  -15.3440 C.3   251  GLU251      0.0388
     98  CG       103.1690   51.4460  -16.6400 C.3   251  GLU251      0.1160
     99  CD       103.5170   52.9150  -16.5700 C.2   251  GLU251      0.3649
    100  OE1      104.4380   53.2830  -15.8170 O.co2 251  GLU251     -0.2457
    101  OE2      102.8850   53.7040  -17.3020 O.co2 251  GLU251     -0.2457
    102  N        101.0210   58.0530   -6.1910 N.3   279  VAL279     -0.1231
    103  CA       100.4810   59.1910   -6.9400 C.3   279  VAL279      0.1692
    104  C         99.1840   58.7410   -7.6110 C.2   279  VAL279      0.2591
    105  O         99.1990   57.8560   -8.4650 O.2   279  VAL279     -0.2718
    106  CB       101.4960   59.7520   -7.9650 C.3   279  VAL279      0.0266
    107  CG1      102.3050   58.6330   -8.5970 C.3   279  VAL279      0.0020
    108  CG2      100.7920   60.5940   -9.0240 C.3   279  VAL279      0.0020
    109  N         98.0640   59.2820   -7.1290 N.am  280  ILE280     -0.1980
    110  CA        96.7230   58.8430   -7.5220 C.3   280  ILE280      0.1595
    111  C         96.4840   57.3700   -7.1340 C.2   280  ILE280      0.2287
    112  O         95.6260   56.7010   -7.7070 O.2   280  ILE280     -0.2864
    113  CB        96.4740   59.0980   -9.0390 C.3   280  ILE280      0.0276
    114  CG1       96.6750   60.5770   -9.3590 C.3   280  ILE280      0.0022
    115  CG2       95.0730   58.7030   -9.4540 C.3   280  ILE280      0.0022
    116  CD1       95.6460   61.4850   -8.7300 C.3   280  ILE280      0.0001
    117  N         98.8460   54.9070   -7.2130 N.3   282  THR282     -0.1218
    118  CA        99.7820   54.0040   -7.8820 C.3   282  THR282      0.1862
    119  C        101.1310   54.0220   -7.1780 C.2   282  THR282      0.2287
    120  O        101.6190   55.0800   -6.7950 O.2   282  THR282     -0.2866
    121  CB        99.9960   54.4040   -9.3580 C.3   282  THR282      0.1770
    122  OG1      100.7120   55.6430   -9.4210 O.3   282  THR282     -0.2211
    123  CG2       98.6590   54.5440  -10.0920 C.3   282  THR282      0.0375
@<TRIPOS>BOND
     1    38    37    2
     2    37    36    1
     3    36    35    1
     4    36    39    1
     5    64    65    1
     6    73    71   ar
     7    73    74   ar
     8    71    69   ar
     9    39    40    1
    10    75    74    1
    11    74    72   ar
    12    65    68    1
    13    65    66    1
    14    69    68    1
    15    69    70   ar
    16    40    41   ar
    17    40    42   ar
    18    41    43   ar
    19    72    70   ar
    20    45    46    1
    21    66    67    2
    22    47    46    1
    23    47    48    2
    24    46    49    1
    25    42    44   ar
    26    43    44   ar
    27    49    50    1
    28    51    50   ar
    29    50    52   ar
    30     9     7   ar
    31     9    10   ar
    32     7     6   ar
    33   101    99   ar
    34    96    95    2
    35    53    54    1
    36    10     8   ar
    37    55    56    2
    38    55    54    1
    39     6     8   ar
    40     6     5    1
    41    98    99    1
    42    98    97    1
    43    99   100   ar
    44     5     2    1
    45    54    57    1
    46    95    94    1
    47    94    97    1
    48    94    93    1
    49     4     3    2
    50    57    58    1
    51    60    58   ar
    52    60    62   ar
    53    22    23    1
    54    22    19    1
    55     2     3    1
    56     2     1    1
    57    23    24    1
    58    92    91   ar
    59    92    90   ar
    60    58    59   ar
    61    62    63   ar
    62     3    11   am
    63    24    18    1
    64    91    89   ar
    65    90    88   ar
    66    19    18    1
    67    19    20    1
    68    18    13   am
    69    89    88   ar
    70    59    61   ar
    71    76    77    1
    72    63    61   ar
    73    88    87    1
    74    11    12    1
    75    11    17    1
    76    13    12    1
    77    13    14    2
    78    21    20    2
    79    20    25   am
    80    12    15    1
    81    82    80    1
    82    79    78    2
    83    87    84    1
    84    81    80    1
    85    77    80    1
    86    77    78    1
    87    17    16    1
    88    25    26    1
    89    86    85    2
    90    33    31   ar
    91    33    34   ar
    92    15    16    1
    93    84    85    1
    94    84    83    1
    95    31    30   ar
    96    34    32   ar
    97    26    27    1
    98    26    29    1
    99    30    32   ar
   100    30    29    1
   101   123   121    1
   102    27    28    2
   103   115   113    1
   104   122   121    1
   105   114   113    1
   106   114   116    1
   107   121   118    1
   108   113   110    1
   109   108   106    1
   110   107   106    1
   111   105   104    2
   112   106   103    1
   113   118   117    1
   114   118   119    1
   115   112   111    2
   116   104   109   am
   117   104   103    1
   118   110   111    1
   119   110   109    1
   120   119   120    2
   121   103   102    1
