@<TRIPOS>MOLECULE
tmp/3vslB00.pdb
 175 168 0 0 0
SMALL
GASTEIGER

@<TRIPOS>ATOM
      1  N         47.0270  -33.0250   18.2070 N.3   346  GLY346     -0.1210
      2  CA        47.9020  -32.1760   18.9990 C.3   346  GLY346      0.1956
      3  C         48.7830  -31.2100   18.2410 C.2   346  GLY346      0.2612
      4  O         48.4320  -30.7220   17.1690 O.2   346  GLY346     -0.2717
      5  N         49.9510  -30.9480   18.8140 N.am  347  SER347     -0.1952
      6  CA        50.7370  -29.7630   18.4780 C.3   347  SER347      0.1924
      7  C         51.3620  -29.7550   17.0850 C.2   347  SER347      0.2314
      8  O         51.8390  -28.7110   16.6360 O.2   347  SER347     -0.2863
      9  CB        51.8370  -29.5250   19.5350 C.3   347  SER347      0.2116
     10  OG        51.3200  -29.5050   20.8590 O.3   347  SER347     -0.2180
     11  N         51.0670  -26.9300   14.4580 N.3   350  LYS350     -0.1245
     12  CA        51.6040  -25.5790   14.6820 C.3   350  LYS350      0.1561
     13  C         52.3740  -24.9740   13.5020 C.2   350  LYS350      0.2260
     14  O         52.2510  -23.7760   13.2290 O.2   350  LYS350     -0.2867
     15  CB        52.3990  -25.4870   15.9880 C.3   350  LYS350      0.0271
     16  CG        51.4930  -25.5940   17.2060 C.3   350  LYS350      0.0035
     17  CD        52.2790  -25.6980   18.5100 C.3   350  LYS350      0.0206
     18  CE        51.3320  -25.9320   19.6800 C.3   350  LYS350      0.1093
     19  NZ        52.0400  -26.4990   20.8600 N.3   350  LYS350     -0.1314
     20  N         45.2400  -20.8610   31.0890 N.3   383  ARG383     -0.1231
     21  CA        46.0000  -21.4960   30.0320 C.3   383  ARG383      0.1694
     22  C         47.2820  -22.2390   30.4300 C.2   383  ARG383      0.2593
     23  O         47.3950  -22.7940   31.5330 O.2   383  ARG383     -0.2718
     24  CB        46.2540  -20.4840   28.9000 C.3   383  ARG383      0.0321
     25  CG        45.0330  -20.2690   28.0110 C.3   383  ARG383      0.0489
     26  CD        44.6820  -21.5650   27.2880 C.3   383  ARG383      0.2205
     27  NE        43.3770  -22.1120   27.6590 N.pl3 383  ARG383     -0.0865
     28  CZ        42.9150  -23.2820   27.2260 C.cat 383  ARG383      0.5346
     29  NH1       43.6570  -24.0250   26.4170 N.pl3 383  ARG383      0.1354
     30  NH2       41.7180  -23.7130   27.6030 N.pl3 383  ARG383      0.1354
     31  N         48.2480  -22.2180   29.5130 N.am  384  SER384     -0.1938
     32  CA        49.1090  -23.3800   29.2650 C.3   384  SER384      0.2055
     33  C         50.2180  -23.7420   30.2090 C.2   384  SER384      0.2643
     34  O         50.3270  -23.2200   31.3080 O.2   384  SER384     -0.2714
     35  CB        49.6050  -23.4350   27.8040 C.3   384  SER384      0.2130
     36  OG        48.7750  -24.2950   27.0060 O.3   384  SER384     -0.2179
     37  N         51.0660  -24.6250   29.6950 N.am  385  TYR385     -0.1973
     38  CA        51.5550  -25.8310   30.4100 C.3   385  TYR385      0.1639
     39  C         52.2570  -25.7990   31.8050 C.2   385  TYR385      0.2290
     40  O         52.4310  -26.8570   32.4140 O.2   385  TYR385     -0.2864
     41  CB        52.3170  -26.7420   29.4270 C.3   385  TYR385      0.0560
     42  CG        53.7380  -26.3310   29.2230 C.ar  385  TYR385     -0.0198
     43  CD1       54.0670  -25.2740   28.3760 C.ar  385  TYR385     -0.0009
     44  CD2       54.7610  -27.0090   29.8650 C.ar  385  TYR385     -0.0009
     45  CE1       55.3840  -24.9060   28.1900 C.ar  385  TYR385      0.0417
     46  CE2       56.0730  -26.6460   29.6820 C.ar  385  TYR385      0.0417
     47  CZ        56.3840  -25.6050   28.8450 C.ar  385  TYR385      0.1957
     48  OH        57.7130  -25.2710   28.6940 O.3   385  TYR385     -0.2866
     49  N         60.0770  -25.5370   21.5190 N.3   402  HIS402     -0.1226
     50  CA        59.4960  -25.8220   22.8240 C.3   402  HIS402      0.1752
     51  C         58.1520  -26.4490   22.5850 C.2   402  HIS402      0.2596
     52  O         57.5880  -27.0630   23.4860 O.2   402  HIS402     -0.2718
     53  CB        59.2730  -24.5050   23.5830 C.3   402  HIS402      0.0759
     54  CG        59.4680  -24.5920   25.0740 C.ar  402  HIS402      0.0818
     55  ND1       59.6820  -23.4780   25.8540 N.ar  402  HIS402     -0.2268
     56  CD2       59.4660  -25.6530   25.9190 C.ar  402  HIS402      0.1154
     57  CE1       59.8110  -23.8450   27.1200 C.ar  402  HIS402      0.1986
     58  NE2       59.6850  -25.1550   27.1850 N.ar  402  HIS402     -0.2212
     59  N         57.6500  -26.2960   21.3620 N.am  403  SER403     -0.1952
     60  CA        56.2360  -26.5010   21.0690 C.3   403  SER403      0.1924
     61  C         55.4470  -25.6070   22.0230 C.2   403  SER403      0.2314
     62  O         54.6370  -26.0780   22.8210 O.2   403  SER403     -0.2863
     63  CB        55.8330  -27.9720   21.1880 C.3   403  SER403      0.2116
     64  OG        54.4300  -28.1360   21.0350 O.3   403  SER403     -0.2180
     65  N         52.8220  -23.9520   23.2430 N.3   405  ASN405     -0.1240
     66  CA        51.3790  -23.9730   23.0260 C.3   405  ASN405      0.1653
     67  C         50.6970  -22.8090   23.7060 C.2   405  ASN405      0.2266
     68  O         49.8020  -23.0090   24.5180 O.2   405  ASN405     -0.2867
     69  CB        50.7720  -25.2870   23.5240 C.3   405  ASN405      0.1155
     70  CG        51.5490  -25.8960   24.6810 C.2   405  ASN405      0.2627
     71  OD1       52.7780  -25.9210   24.6760 O.2   405  ASN405     -0.2716
     72  ND2       50.8270  -26.3950   25.6810 N.am  405  ASN405     -0.0877
     73  N         48.2330  -19.6100   20.8780 N.3   409  PHE409     -0.1241
     74  CA        47.0550  -19.0070   21.5010 C.3   409  PHE409      0.1605
     75  C         46.9920  -17.4950   21.3090 C.2   409  PHE409      0.2264
     76  O         45.9280  -16.9370   21.0460 O.2   409  PHE409     -0.2867
     77  CB        47.0290  -19.3300   22.9960 C.3   409  PHE409      0.0534
     78  CG        46.5230  -20.7090   23.3110 C.ar  409  PHE409     -0.0203
     79  CD1       45.1610  -20.9710   23.3580 C.ar  409  PHE409     -0.0042
     80  CD2       47.4010  -21.7380   23.5750 C.ar  409  PHE409     -0.0042
     81  CE1       44.6860  -22.2440   23.6550 C.ar  409  PHE409     -0.0003
     82  CE2       46.9310  -23.0040   23.8730 C.ar  409  PHE409     -0.0003
     83  CZ        45.5720  -23.2550   23.9110 C.ar  409  PHE409     -0.0000
     84  N         41.5700  -24.2330   20.7820 N.3   474  ASP474     -0.1239
     85  CA        41.9960  -25.6160   20.6590 C.3   474  ASP474      0.1674
     86  C         42.5370  -25.8840   19.2540 C.2   474  ASP474      0.2266
     87  O         43.5440  -26.5810   19.0960 O.2   474  ASP474     -0.2867
     88  CB        40.8430  -26.5790   20.9730 C.3   474  ASP474      0.1410
     89  CG        40.2620  -26.3750   22.3620 C.2   474  ASP474      0.3668
     90  OD1       41.0140  -25.9750   23.2830 O.co2 474  ASP474     -0.2456
     91  OD2       39.0460  -26.6260   22.5290 O.co2 474  ASP474     -0.2456
     92  N         45.9680  -25.3170   18.5990 N.3   477  ILE477     -0.1245
     93  CA        46.8330  -26.3380   19.2030 C.3   477  ILE477      0.1561
     94  C         46.4240  -27.7960   18.9420 C.2   477  ILE477      0.2260
     95  O         46.6460  -28.6740   19.7890 O.2   477  ILE477     -0.2867
     96  CB        47.0300  -26.1250   20.7180 C.3   477  ILE477      0.0252
     97  CG1       45.6880  -25.8120   21.3920 C.3   477  ILE477      0.0019
     98  CG2       48.0320  -25.0090   20.9520 C.3   477  ILE477      0.0019
     99  CD1       45.0750  -26.9690   22.1540 C.3   477  ILE477      0.0001
    100  N         43.6210  -29.4860   18.8940 N.3   479  GLN479     -0.1245
    101  CA        42.6930  -30.1530   19.8090 C.3   479  GLN479      0.1566
    102  C         41.2160  -29.8450   19.5610 C.2   479  GLN479      0.2260
    103  O         40.4080  -29.9040   20.4910 O.2   479  GLN479     -0.2867
    104  CB        43.0640  -29.9180   21.2910 C.3   479  GLN479      0.0367
    105  CG        43.5080  -31.2000   22.0450 C.3   479  GLN479      0.0905
    106  CD        44.9830  -31.1730   22.4380 C.2   479  GLN479      0.2608
    107  OE1       45.4650  -32.0400   23.1730 O.2   479  GLN479     -0.2717
    108  NE2       45.7030  -30.1640   21.9550 N.am  479  GLN479     -0.0878
    109  N         59.9540  -30.4140   22.3930 N.3   557  THR557     -0.1218
    110  CA        60.2810  -31.8390   22.4500 C.3   557  THR557      0.1862
    111  C         61.0690  -32.2680   21.2010 C.2   557  THR557      0.2287
    112  O         61.5110  -31.4150   20.4210 O.2   557  THR557     -0.2866
    113  CB        59.0120  -32.7100   22.6340 C.3   557  THR557      0.1770
    114  OG1       57.9070  -31.8850   23.0330 O.3   557  THR557     -0.2211
    115  CG2       59.2410  -33.8040   23.6840 C.3   557  THR557      0.0375
    116  N         56.4990  -32.4970   16.9230 N.3   573  THR573     -0.1203
    117  CA        55.8640  -33.4530   17.8270 C.3   573  THR573      0.1994
    118  C         54.5050  -32.9500   18.3060 C.2   573  THR573      0.2618
    119  O         54.1960  -31.7570   18.2260 O.2   573  THR573     -0.2717
    120  CB        56.7810  -33.8020   19.0470 C.3   573  THR573      0.1784
    121  OG1       58.1370  -33.9620   18.6110 O.3   573  THR573     -0.2211
    122  CG2       56.3450  -35.0940   19.7360 C.3   573  THR573      0.0376
    123  N         53.6980  -33.8740   18.8060 N.am  574  GLY574     -0.1942
    124  CA        52.3710  -33.5440   19.2700 C.3   574  GLY574      0.2014
    125  C         51.9190  -34.4580   20.3850 C.2   574  GLY574      0.2640
    126  O         51.9710  -35.6940   20.2840 O.2   574  GLY574     -0.2714
    127  N         51.4800  -33.8410   21.4690 N.am  575  THR575     -0.1936
    128  CA        50.8370  -34.5910   22.5240 C.3   575  THR575      0.2028
    129  C         49.4270  -34.0660   22.6130 C.2   575  THR575      0.2642
    130  O         49.2150  -32.8470   22.6280 O.2   575  THR575     -0.2714
    131  CB        51.5580  -34.4360   23.8700 C.3   575  THR575      0.1808
    132  OG1       52.9720  -34.3560   23.6440 O.3   575  THR575     -0.2208
    133  CG2       51.2480  -35.6410   24.7730 C.3   575  THR575      0.0379
    134  N         48.4560  -34.9730   22.6260 N.am  576  ALA576     -0.1963
    135  CA        47.0770  -34.5250   22.6880 C.3   576  ALA576      0.1728
    136  C         46.4200  -34.9420   23.9800 C.2   576  ALA576      0.2616
    137  O         47.0830  -35.0380   25.0090 O.2   576  ALA576     -0.2715
    138  CB        46.2590  -34.9670   21.4680 C.3   576  ALA576      0.0334
    139  N         45.1170  -35.1780   23.9250 N.am  577  GLU577     -0.1977
    140  CA        44.3030  -35.1550   25.1280 C.3   577  GLU577      0.1602
    141  C         42.9250  -35.7260   24.8590 C.2   577  GLU577      0.2287
    142  O         42.1330  -35.1290   24.1310 O.2   577  GLU577     -0.2864
    143  CB        44.1850  -33.7050   25.6230 C.3   577  GLU577      0.0415
    144  CG        43.3180  -33.5120   26.8550 C.3   577  GLU577      0.1163
    145  CD        43.9810  -32.6120   27.8880 C.2   577  GLU577      0.3649
    146  OE1       45.2300  -32.6330   27.9900 O.co2 577  GLU577     -0.2457
    147  OE2       43.2530  -31.8860   28.6000 O.co2 577  GLU577     -0.2457
    148  N         45.7520  -40.0950   26.5280 N.3   585  VAL585     -0.1245
    149  CA        46.4070  -39.1150   25.6650 C.3   585  VAL585      0.1561
    150  C         46.9230  -39.6630   24.3180 C.2   585  VAL585      0.2260
    151  O         47.4920  -40.7700   24.2220 O.2   585  VAL585     -0.2867
    152  CB        47.5170  -38.3550   26.4210 C.3   585  VAL585      0.0252
    153  CG1       48.0880  -39.2120   27.5220 C.3   585  VAL585      0.0019
    154  CG2       48.6040  -37.8920   25.4840 C.3   585  VAL585      0.0019
    155  N         50.3540  -39.1510   30.3620 N.3   612  PRO612     -0.2103
    156  CA        50.5810  -37.7400   30.0100 C.3   612  PRO612      0.1489
    157  C         52.0430  -37.2210   29.9620 C.2   612  PRO612      0.2418
    158  O         52.4510  -36.8010   28.8760 O.2   612  PRO612     -0.2734
    159  CB        49.7230  -36.9740   31.0330 C.3   612  PRO612      0.0282
    160  CG        48.7060  -37.9890   31.5230 C.3   612  PRO612      0.0208
    161  CD        49.4520  -39.2930   31.5200 C.3   612  PRO612      0.0893
    162  N         52.8090  -37.2580   31.0850 N.am  613  PRO613     -0.2719
    163  CA        54.0930  -36.5280   31.1490 C.3   613  PRO613      0.1520
    164  C         55.0610  -36.8990   30.0100 C.2   613  PRO613      0.2440
    165  O         55.1950  -38.0920   29.7290 O.2   613  PRO613     -0.2731
    166  CB        54.6750  -36.9500   32.5180 C.3   613  PRO613      0.0310
    167  CG        53.5180  -37.5080   33.2900 C.3   613  PRO613      0.0237
    168  CD        52.6670  -38.1600   32.2440 C.3   613  PRO613      0.0939
    169  N         55.7530  -35.8980   29.4030 N.am  614  PRO614     -0.2727
    170  CA        56.4170  -36.0200   28.0870 C.3   614  PRO614      0.1402
    171  C         57.6590  -36.9070   28.1100 C.2   614  PRO614      0.2269
    172  O         58.7750  -36.4250   27.8910 O.2   614  PRO614     -0.2865
    173  CB        56.8150  -34.5740   27.7710 C.3   614  PRO614      0.0296
    174  CG        57.1440  -33.9960   29.1090 C.3   614  PRO614      0.0237
    175  CD        56.1500  -34.6480   30.0890 C.3   614  PRO614      0.0939
@<TRIPOS>BOND
     1    14    13    2
     2    13    12    1
     3    11    12    1
     4    12    15    1
     5    15    16    1
     6     8     7    2
     7   116   117    1
     8     7     6    1
     9     4     3    2
    10    16    17    1
    11   117   118    1
    12   117   120    1
    13     1     2    1
    14   119   118    2
    15     3     5   am
    16     3     2    1
    17   118   123   am
    18     6     5    1
    19     6     9    1
    20    17    18    1
    21    92    93    1
    22   121   120    1
    23   123   124    1
    24   100   101    1
    25    94    93    1
    26    94    95    2
    27   120   122    1
    28    87    86    2
    29    93    96    1
    30    86    85    1
    31   124   125    1
    32     9    10    1
    33   102   101    1
    34   102   103    2
    35    18    19    1
    36   101   104    1
    37   126   125    2
    38   125   127   am
    39   112   111    2
    40    85    84    1
    41    85    88    1
    42    96    98    1
    43    96    97    1
    44    73    74    1
    45    88    89    1
    46    64    63    1
    47    76    75    2
    48    60    63    1
    49    60    59    1
    50    60    61    1
    51   111   110    1
    52   104   105    1
    53    75    74    1
    54    59    51   am
    55    97    99    1
    56   138   135    1
    57   127   128    1
    58    74    77    1
    59    49    50    1
    60   108   106   am
    61    61    62    2
    62   105   106    1
    63    89    91   ar
    64    89    90   ar
    65   109   110    1
    66   106   107    2
    67   110   113    1
    68   128   129    1
    69   128   131    1
    70    51    50    1
    71    51    52    2
    72   129   134   am
    73   129   130    2
    74   134   135    1
    75   113   114    1
    76   113   115    1
    77   135   136    1
    78    50    53    1
    79    77    78    1
    80    66    65    1
    81    66    69    1
    82    66    67    1
    83    78    79   ar
    84    78    80   ar
    85    79    81   ar
    86    69    70    1
    87    80    82   ar
    88    53    54    1
    89   132   131    1
    90    81    83   ar
    91    67    68    2
    92   131   133    1
    93    82    83   ar
    94   139   136   am
    95   139   140    1
    96   136   137    2
    97   142   141    2
    98   151   150    2
    99   150   149    1
   100    71    70    2
   101    70    72   am
   102   141   140    1
   103    54    55   ar
   104    54    56   ar
   105   140   143    1
   106   154   152    1
   107   143   144    1
   108   149   152    1
   109   149   148    1
   110    55    57   ar
   111    56    58   ar
   112    29    28    1
   113   152   153    1
   114   144   145    1
   115    36    35    1
   116    57    58   ar
   117    28    30    1
   118    28    27    2
   119    26    27    1
   120    26    25    1
   121   173   170    1
   122   173   174    1
   123    35    32    1
   124   145   146   ar
   125   145   147   ar
   126   172   171    2
   127    25    24    1
   128   170   171    1
   129   170   169    1
   130    45    43   ar
   131    45    47   ar
   132    43    42   ar
   133    48    47    1
   134    47    46   ar
   135   158   157    2
   136    24    21    1
   137   174   175    1
   138    42    41    1
   139    42    44   ar
   140    32    31    1
   141    32    33    1
   142   169   164   am
   143   169   175    1
   144    41    38    1
   145    31    22   am
   146    46    44   ar
   147    37    33   am
   148    37    38    1
   149   165   164    2
   150   157   156    1
   151   157   162   am
   152   156   155    1
   153   156   159    1
   154   164   163    1
   155    21    22    1
   156    21    20    1
   157    33    34    2
   158   155   161    1
   159    38    39    1
   160    22    23    2
   161   159   160    1
   162   162   163    1
   163   162   168    1
   164   163   166    1
   165   161   160    1
   166    39    40    2
   167   168   167    1
   168   166   167    1
