@<TRIPOS>MOLECULE
tmp/3vssA00.pdb
 146 144 0 0 0
SMALL
GASTEIGER

@<TRIPOS>ATOM
      1  N          3.6830   -5.5920   20.3540 N.3    73  TRP73      -0.1227
      2  CA         4.7830   -5.4000   19.4050 C.3    73  TRP73       0.1737
      3  C          6.1070   -4.9360   20.0410 C.2    73  TRP73       0.2595
      4  O          6.6550   -5.6860   20.8500 O.2    73  TRP73      -0.2718
      5  CB         4.3630   -4.7130   18.0870 C.3    73  TRP73       0.0564
      6  CG         3.8710   -3.2820   18.0660 C.ar   73  TRP73       0.0003
      7  CD1        4.4800   -2.2210   17.4320 C.ar   73  TRP73       0.0946
      8  CD2        2.6370   -2.7670   18.5980 C.ar   73  TRP73       0.0152
      9  NE1        3.7250   -1.0800   17.5800 N.ar   73  TRP73      -0.2442
     10  CE2        2.5900   -1.3830   18.2830 C.ar   73  TRP73       0.0810
     11  CE3        1.5780   -3.3330   19.3270 C.ar   73  TRP73       0.0012
     12  CZ2        1.5220   -0.5600   18.6650 C.ar   73  TRP73       0.0191
     13  CZ3        0.5110   -2.5080   19.7140 C.ar   73  TRP73       0.0001
     14  CH2        0.4960   -1.1380   19.3790 C.ar   73  TRP73       0.0015
     15  N          6.6070   -3.7420   19.7000 N.am   74  ASP74      -0.1974
     16  CA         7.9120   -3.2570   20.1950 C.3    74  ASP74       0.1709
     17  C          8.1150   -3.5420   21.6830 C.2    74  ASP74       0.2293
     18  O          7.3320   -3.0880   22.5120 O.2    74  ASP74      -0.2864
     19  CB         8.0540   -1.7450   20.0220 C.3    74  ASP74       0.1436
     20  CG         7.9490   -1.2770   18.5790 C.2    74  ASP74       0.3671
     21  OD1        7.4300   -1.9990   17.6930 O.co2  74  ASP74      -0.2456
     22  OD2        8.3680   -0.1280   18.3480 O.co2  74  ASP74      -0.2456
     23  N          4.7730   -2.2180   23.6290 N.3    97  LEU97      -0.1245
     24  CA         3.6360   -1.5230   23.0640 C.3    97  LEU97       0.1561
     25  C          2.5290   -2.5600   22.9540 C.2    97  LEU97       0.2260
     26  O          2.7760   -3.6850   22.5190 O.2    97  LEU97      -0.2867
     27  CB         3.9660   -0.9450   21.6870 C.3    97  LEU97       0.0270
     28  CG         5.1320    0.0460   21.6340 C.3    97  LEU97       0.0019
     29  CD1        5.1930    0.6590   20.2550 C.3    97  LEU97       0.0001
     30  CD2        5.0060    1.1210   22.7140 C.3    97  LEU97       0.0001
     31  N         -1.7370    1.3050   15.8330 N.3   109  HIS109     -0.1241
     32  CA        -0.6690    2.2750   16.1270 C.3   109  HIS109      0.1621
     33  C         -1.1420    3.5680   16.7810 C.2   109  HIS109      0.2264
     34  O         -0.4070    4.1570   17.5800 O.2   109  HIS109     -0.2867
     35  CB         0.1620    2.5690   14.8710 C.3   109  HIS109      0.0745
     36  CG         0.7100    1.3370   14.2320 C.ar  109  HIS109      0.0817
     37  ND1        1.9290    0.7960   14.5870 N.ar  109  HIS109     -0.2268
     38  CD2        0.1870    0.5110   13.2940 C.ar  109  HIS109      0.1154
     39  CE1        2.1410   -0.3010   13.8800 C.ar  109  HIS109      0.1986
     40  NE2        1.0960   -0.4990   13.0930 N.ar  109  HIS109     -0.2212
     41  N          4.4900    5.3910   22.4520 N.3   161  TRP161     -0.1227
     42  CA         5.3220    4.6360   21.5350 C.3   161  TRP161      0.1737
     43  C          6.6540    4.2540   22.2030 C.2   161  TRP161      0.2596
     44  O          6.8520    4.5080   23.3920 O.2   161  TRP161     -0.2718
     45  CB         5.5210    5.3920   20.2130 C.3   161  TRP161      0.0564
     46  CG         4.3100    5.3090   19.2800 C.ar  161  TRP161      0.0003
     47  CD1        3.1350    4.6380   19.5100 C.ar  161  TRP161      0.0946
     48  CD2        4.1990    5.8670   17.9640 C.ar  161  TRP161      0.0152
     49  NE1        2.2920    4.7650   18.4300 N.ar  161  TRP161     -0.2442
     50  CE2        2.9190    5.5140   17.4650 C.ar  161  TRP161      0.0810
     51  CE3        5.0540    6.6310   17.1560 C.ar  161  TRP161      0.0012
     52  CZ2        2.4770    5.8980   16.1980 C.ar  161  TRP161      0.0191
     53  CZ3        4.6080    7.0200   15.8850 C.ar  161  TRP161      0.0001
     54  CH2        3.3340    6.6480   15.4230 C.ar  161  TRP161      0.0015
     55  N          7.5630    3.6870   21.4170 N.am  162  SER162     -0.1952
     56  CA         8.6970    2.9570   21.9700 C.3   162  SER162      0.1924
     57  C          9.7510    3.8030   22.6810 C.2   162  SER162      0.2314
     58  O          9.8530    5.0110   22.4750 O.2   162  SER162     -0.2863
     59  CB         9.3240    2.0880   20.8830 C.3   162  SER162      0.2116
     60  OG         8.3400    1.2170   20.3620 O.3   162  SER162     -0.2180
     61  N         11.3120    9.7200   17.3270 N.3   243  ARG243     -0.1231
     62  CA        10.9060    8.7390   18.3240 C.3   243  ARG243      0.1694
     63  C         12.0470    7.8100   18.7670 C.2   243  ARG243      0.2592
     64  O         13.1650    7.8850   18.2470 O.2   243  ARG243     -0.2718
     65  CB         9.7300    7.8940   17.7970 C.3   243  ARG243      0.0321
     66  CG         9.9510    7.2470   16.4240 C.3   243  ARG243      0.0489
     67  CD         8.7550    6.3730   16.0550 C.3   243  ARG243      0.2205
     68  NE         8.9310    5.7140   14.7620 N.pl3 243  ARG243     -0.0865
     69  CZ         8.6390    6.2720   13.5880 C.cat 243  ARG243      0.5346
     70  NH1        8.1560    7.5040   13.5320 N.pl3 243  ARG243      0.1354
     71  NH2        8.8440    5.6010   12.4610 N.pl3 243  ARG243      0.1354
     72  N         11.7400    6.9730   19.7650 N.am  244  ASP244     -0.1974
     73  CA        12.5230    5.7920   20.1670 C.3   244  ASP244      0.1709
     74  C         13.8020    6.0750   20.9760 C.2   244  ASP244      0.2293
     75  O         14.8880    5.6580   20.5710 O.2   244  ASP244     -0.2864
     76  CB        12.8510    4.8950   18.9570 C.3   244  ASP244      0.1436
     77  CG        11.6030    4.4230   18.1970 C.2   244  ASP244      0.3671
     78  OD1       10.4710    4.5840   18.7050 O.co2 244  ASP244     -0.2456
     79  OD2       11.7640    3.9040   17.0690 O.co2 244  ASP244     -0.2456
     80  N         14.8580    3.2340   12.4280 N.3   336  GLU336     -0.1231
     81  CA        14.0590    3.1530   13.6540 C.3   336  GLU336      0.1699
     82  C         14.7940    2.4830   14.8100 C.2   336  GLU336      0.2592
     83  O         15.8190    1.8080   14.6060 O.2   336  GLU336     -0.2718
     84  CB        12.7380    2.4060   13.4000 C.3   336  GLU336      0.0402
     85  CG        11.8690    2.9970   12.3080 C.3   336  GLU336      0.1161
     86  CD        10.5090    2.3390   12.2350 C.2   336  GLU336      0.3649
     87  OE1        9.5140    2.9280   12.7010 O.co2 336  GLU336     -0.2457
     88  OE2       10.4370    1.2250   11.7010 O.co2 336  GLU336     -0.2457
     89  N         14.2570    2.6900   16.0140 N.am  337  ARG337     -0.1980
     90  CA        14.7590    2.1060   17.2560 C.3   337  ARG337      0.1597
     91  C         16.2780    1.9540   17.3100 C.2   337  ARG337      0.2287
     92  O         16.7810    0.8430   17.4970 O.2   337  ARG337     -0.2864
     93  CB        14.1140    0.7410   17.5250 C.3   337  ARG337      0.0334
     94  CG        12.7180    0.7890   18.1430 C.3   337  ARG337      0.0492
     95  CD        12.3700   -0.5820   18.7400 C.3   337  ARG337      0.2205
     96  NE        12.8890   -0.7650   20.0990 N.pl3 337  ARG337     -0.0865
     97  CZ        12.6710   -1.8510   20.8430 C.cat 337  ARG337      0.5346
     98  NH1       11.9480   -2.8600   20.3590 N.pl3 337  ARG337      0.1354
     99  NH2       13.1680   -1.9320   22.0740 N.pl3 337  ARG337      0.1354
    100  N         16.6570   -0.3830   12.9010 N.3   352  ILE352     -0.1245
    101  CA        15.7630   -1.2310   12.1040 C.3   352  ILE352      0.1561
    102  C         15.1470   -0.4430   10.9570 C.2   352  ILE352      0.2260
    103  O         14.9090    0.7680   11.0730 O.2   352  ILE352     -0.2867
    104  CB        14.6520   -1.8800   12.9700 C.3   352  ILE352      0.0252
    105  CG1       13.7740   -0.8020   13.6110 C.3   352  ILE352      0.0019
    106  CG2       15.2700   -2.7650   14.0670 C.3   352  ILE352      0.0019
    107  CD1       12.6140   -1.3440   14.4120 C.3   352  ILE352      0.0001
    108  N         12.3490   -0.8530    7.2570 N.3   354  HIS354     -0.1241
    109  CA        11.4210   -1.6130    6.4190 C.3   354  HIS354      0.1621
    110  C         11.9980   -1.7160    5.0150 C.2   354  HIS354      0.2264
    111  O         12.8720   -0.9330    4.6460 O.2   354  HIS354     -0.2867
    112  CB        10.0600   -0.9130    6.3280 C.3   354  HIS354      0.0745
    113  CG         9.2780   -0.9280    7.5990 C.ar  354  HIS354      0.0817
    114  ND1        8.7400   -2.0820    8.1320 N.ar  354  HIS354     -0.2268
    115  CD2        8.9100    0.0770    8.4280 C.ar  354  HIS354      0.1154
    116  CE1        8.1020   -1.7890    9.2500 C.ar  354  HIS354      0.1986
    117  NE2        8.1890   -0.4860    9.4510 N.ar  354  HIS354     -0.2212
    118  N          9.7280   -7.8070   13.1800 N.3   419  TYR419     -0.1227
    119  CA        10.0840   -6.4030   13.1800 C.3   419  TYR419      0.1736
    120  C         10.3870   -5.9240   14.6000 C.2   419  TYR419      0.2596
    121  O         10.1630   -6.6640   15.5660 O.2   419  TYR419     -0.2718
    122  CB         9.0130   -5.5250   12.5050 C.3   419  TYR419      0.0548
    123  CG         9.6200   -4.2280   12.0110 C.ar  419  TYR419     -0.0200
    124  CD1       10.5960   -4.2420   11.0170 C.ar  419  TYR419     -0.0009
    125  CD2        9.2620   -3.0030   12.5730 C.ar  419  TYR419     -0.0009
    126  CE1       11.1900   -3.0770   10.5790 C.ar  419  TYR419      0.0417
    127  CE2        9.8490   -1.8220   12.1420 C.ar  419  TYR419      0.0417
    128  CZ        10.8130   -1.8660   11.1430 C.ar  419  TYR419      0.1957
    129  OH        11.4140   -0.7050   10.7180 O.3   419  TYR419     -0.2866
    130  N         10.8890   -4.6890   14.7020 N.am  420  SER420     -0.1952
    131  CA        11.3570   -4.0720   15.9570 C.3   420  SER420      0.1924
    132  C         12.3620   -4.9460   16.6610 C.2   420  SER420      0.2314
    133  O         12.2830   -5.1390   17.8740 O.2   420  SER420     -0.2863
    134  CB        10.2050   -3.7280   16.9140 C.3   420  SER420      0.2116
    135  OG         9.2710   -2.8740   16.2860 O.3   420  SER420     -0.2180
    136  N          9.1530   -8.8900   17.1920 N.3   432  PHE432     -0.1241
    137  CA         7.7390   -9.2600   17.1340 C.3   432  PHE432      0.1605
    138  C          7.3190   -9.7170   15.7300 C.2   432  PHE432      0.2264
    139  O          7.9270   -9.3260   14.7270 O.2   432  PHE432     -0.2867
    140  CB         6.8370   -8.1210   17.6610 C.3   432  PHE432      0.0534
    141  CG         6.4880   -7.0770   16.6280 C.ar  432  PHE432     -0.0203
    142  CD1        7.2760   -5.9370   16.4700 C.ar  432  PHE432     -0.0042
    143  CD2        5.3510   -7.2190   15.8370 C.ar  432  PHE432     -0.0042
    144  CE1        6.9520   -4.9700   15.4990 C.ar  432  PHE432     -0.0003
    145  CE2        5.0190   -6.2700   14.8680 C.ar  432  PHE432     -0.0003
    146  CZ         5.8050   -5.1370   14.7100 C.ar  432  PHE432     -0.0000
@<TRIPOS>BOND
     1   111   110    2
     2   110   109    1
     3   112   109    1
     4   112   113    1
     5   109   108    1
     6   113   114   ar
     7   113   115   ar
     8   114   116   ar
     9   115   117   ar
    10   116   117   ar
    11   126   124   ar
    12   126   128   ar
    13   129   128    1
    14   102   103    2
    15   102   101    1
    16   124   123   ar
    17   128   127   ar
    18    88    86   ar
    19   123   122    1
    20   123   125   ar
    21   101   100    1
    22   101   104    1
    23   127   125   ar
    24    86    85    1
    25    86    87   ar
    26    85    84    1
    27    80    81    1
    28    71    69    1
    29   122   119    1
    30   104   105    1
    31   104   106    1
    32    40    38   ar
    33    40    39   ar
    34   119   118    1
    35   119   120    1
    36    38    36   ar
    37    84    81    1
    38    70    69    1
    39    69    68    2
    40   105   107    1
    41    81    82    1
    42    39    37   ar
    43    36    37   ar
    44    36    35    1
    45   120   130   am
    46   120   121    2
    47    83    82    2
    48   130   131    1
    49   146   145   ar
    50   146   144   ar
    51   139   138    2
    52    68    67    1
    53    82    89   am
    54   145   143   ar
    55    35    32    1
    56    54    53   ar
    57    54    52   ar
    58   144   142   ar
    59   138   137    1
    60    31    32    1
    61   143   141   ar
    62    53    51   ar
    63   131   132    1
    64   131   134    1
    65    89    90    1
    66    67    66    1
    67    32    33    1
    68    52    50   ar
    69   135   134    1
    70    66    65    1
    71   142   141   ar
    72   141   140    1
    73   132   133    2
    74    33    34    2
    75    79    77   ar
    76   137   136    1
    77   137   140    1
    78    51    48   ar
    79    90    91    1
    80    90    93    1
    81    91    92    2
    82    61    62    1
    83     7     9   ar
    84     7     6   ar
    85    50    48   ar
    86    50    49   ar
    87    93    94    1
    88     9    10   ar
    89    21    20   ar
    90    65    62    1
    91    48    46   ar
    92     6     5    1
    93     6     8   ar
    94     5     2    1
    95    94    95    1
    96    77    78   ar
    97    77    76    1
    98    64    63    2
    99    10     8   ar
   100    10    12   ar
   101    62    63    1
   102    22    20   ar
   103    49    47   ar
   104    20    19    1
   105     8    11   ar
   106    12    14   ar
   107    95    96    1
   108    63    72   am
   109    76    73    1
   110    46    47   ar
   111    46    45    1
   112    11    13   ar
   113    14    13   ar
   114     2     3    1
   115     2     1    1
   116    15     3   am
   117    15    16    1
   118    72    73    1
   119    19    16    1
   120     3     4    2
   121    96    97    2
   122    73    74    1
   123    16    17    1
   124    45    42    1
   125    29    28    1
   126    98    97    1
   127    60    59    1
   128    75    74    2
   129    97    99    1
   130    59    56    1
   131    55    56    1
   132    55    43   am
   133    42    43    1
   134    42    41    1
   135    28    27    1
   136    28    30    1
   137    17    18    2
   138    27    24    1
   139    56    57    1
   140    43    44    2
   141    58    57    2
   142    26    25    2
   143    25    24    1
   144    24    23    1
