@<TRIPOS>MOLECULE
tmp/3vstD00.pdb
 124 123 0 0 0
SMALL
GASTEIGER

@<TRIPOS>ATOM
      1  N         19.0310  -36.5130   46.1800 N.3   113  TRP113     -0.1241
      2  CA        17.9180  -36.1000   45.3270 C.3   113  TRP113      0.1605
      3  C         17.3380  -37.1890   44.4260 C.2   113  TRP113      0.2264
      4  O         16.5890  -36.8970   43.5080 O.2   113  TRP113     -0.2867
      5  CB        18.2690  -34.8550   44.5100 C.3   113  TRP113      0.0550
      6  CG        18.3910  -33.6400   45.4020 C.ar  113  TRP113      0.0003
      7  CD1       17.3780  -32.9710   46.0650 C.ar  113  TRP113      0.0946
      8  CD2       19.6120  -32.9920   45.7630 C.ar  113  TRP113      0.0152
      9  NE1       17.9170  -31.9380   46.8300 N.ar  113  TRP113     -0.2442
     10  CE2       19.2860  -31.9310   46.6540 C.ar  113  TRP113      0.0810
     11  CE3       20.9610  -33.2070   45.4180 C.ar  113  TRP113      0.0012
     12  CZ2       20.2660  -31.0870   47.1940 C.ar  113  TRP113      0.0191
     13  CZ3       21.9420  -32.3740   45.9530 C.ar  113  TRP113      0.0001
     14  CH2       21.5930  -31.3220   46.8290 C.ar  113  TRP113      0.0015
     15  N         24.9300  -32.8880   42.2320 N.3   233  PRO233     -0.2116
     16  CA        25.9860  -31.8780   42.4040 C.3   233  PRO233      0.1372
     17  C         26.8570  -32.0300   43.6460 C.2   233  PRO233      0.2244
     18  O         27.9270  -31.4280   43.7470 O.2   233  PRO233     -0.2868
     19  CB        25.2080  -30.5620   42.4160 C.3   233  PRO233      0.0268
     20  CG        23.9030  -30.9510   43.0740 C.3   233  PRO233      0.0207
     21  CD        23.5820  -32.3180   42.4260 C.3   233  PRO233      0.0892
     22  N         25.7840  -28.8000   49.2820 N.3   289  GLN289     -0.1245
     23  CA        26.1200  -28.2620   47.9630 C.3   289  GLN289      0.1566
     24  C         26.8130  -26.9130   48.1010 C.2   289  GLN289      0.2260
     25  O         27.8300  -26.6760   47.4620 O.2   289  GLN289     -0.2867
     26  CB        24.8770  -28.0520   47.0940 C.3   289  GLN289      0.0367
     27  CG        25.3230  -27.4760   45.7040 C.3   289  GLN289      0.0905
     28  CD        24.2230  -27.5280   44.6490 C.2   289  GLN289      0.2608
     29  OE1       23.2280  -28.2390   44.7970 O.2   289  GLN289     -0.2717
     30  NE2       24.4330  -26.8120   43.5620 N.am  289  GLN289     -0.0878
     31  N         15.7970  -35.1780   41.2320 N.3   352  HIS352     -0.1226
     32  CA        16.0140  -33.8040   40.8030 C.3   352  HIS352      0.1752
     33  C         17.3360  -33.5080   40.1070 C.2   352  HIS352      0.2595
     34  O         17.9470  -32.4490   40.3330 O.2   352  HIS352     -0.2718
     35  CB        15.8190  -32.8710   42.0100 C.3   352  HIS352      0.0759
     36  CG        14.3940  -32.7990   42.4720 C.ar  352  HIS352      0.0818
     37  ND1       13.3430  -32.6390   41.5980 N.ar  352  HIS352     -0.2268
     38  CD2       13.8460  -32.8850   43.7110 C.ar  352  HIS352      0.1154
     39  CE1       12.2060  -32.6250   42.2750 C.ar  352  HIS352      0.1986
     40  NE2       12.4850  -32.7700   43.5620 N.ar  352  HIS352     -0.2212
     41  N         17.7630  -34.4150   39.2380 N.am  353  GLU353     -0.1979
     42  CA        19.0220  -34.2060   38.4940 C.3   353  GLU353      0.1602
     43  C         18.8070  -34.5370   37.0110 C.2   353  GLU353      0.2287
     44  O         19.7420  -34.5380   36.2280 O.2   353  GLU353     -0.2864
     45  CB        20.1190  -35.1250   39.0590 C.3   353  GLU353      0.0415
     46  CG        20.4000  -34.9470   40.5540 C.3   353  GLU353      0.1163
     47  CD        20.7060  -33.4730   40.9310 C.2   353  GLU353      0.3649
     48  OE1       21.1410  -32.7170   40.0360 O.co2 353  GLU353     -0.2457
     49  OE2       20.5170  -33.1040   42.1010 O.co2 353  GLU353     -0.2457
     50  N         22.0280  -30.5520   32.0270 N.3   358  LYS358     -0.1245
     51  CA        21.8710  -29.9620   33.3500 C.3   358  LYS358      0.1561
     52  C         23.2490  -29.4910   33.8210 C.2   358  LYS358      0.2260
     53  O         24.2240  -30.2520   33.8000 O.2   358  LYS358     -0.2867
     54  CB        21.2980  -30.9400   34.3880 C.3   358  LYS358      0.0271
     55  CG        21.2240  -30.2270   35.7360 C.3   358  LYS358      0.0035
     56  CD        20.4630  -30.9710   36.8250 C.3   358  LYS358      0.0206
     57  CE        20.1430  -29.9470   37.9370 C.3   358  LYS358      0.1093
     58  NZ        19.5190  -30.5700   39.1710 N.3   358  LYS358     -0.1314
     59  N         25.1830  -27.1290   37.0140 N.3   360  HIS360     -0.1241
     60  CA        25.1620  -26.3450   38.2490 C.3   360  HIS360      0.1621
     61  C         26.4150  -25.4460   38.1720 C.2   360  HIS360      0.2264
     62  O         27.5020  -25.8890   37.8000 O.2   360  HIS360     -0.2867
     63  CB        25.2890  -27.2150   39.5050 C.3   360  HIS360      0.0745
     64  CG        24.1470  -28.1510   39.7250 C.ar  360  HIS360      0.0817
     65  ND1       24.1290  -29.4220   39.1840 N.ar  360  HIS360     -0.2268
     66  CD2       23.0520  -28.0550   40.5240 C.ar  360  HIS360      0.1154
     67  CE1       23.0750  -30.0760   39.6610 C.ar  360  HIS360      0.1986
     68  NE2       22.4100  -29.2730   40.4780 N.ar  360  HIS360     -0.2212
     69  N         18.3910  -27.6250   32.2830 N.3   380  TRP380     -0.1241
     70  CA        18.2290  -27.2150   33.6930 C.3   380  TRP380      0.1605
     71  C         19.5380  -26.5240   34.1300 C.2   380  TRP380      0.2264
     72  O         20.5970  -27.1570   34.1580 O.2   380  TRP380     -0.2867
     73  CB        17.9850  -28.4650   34.5540 C.3   380  TRP380      0.0550
     74  CG        17.5190  -28.2430   35.9790 C.ar  380  TRP380      0.0003
     75  CD1       17.4810  -27.0510   36.7000 C.ar  380  TRP380      0.0946
     76  CD2       16.9740  -29.2490   36.8380 C.ar  380  TRP380      0.0152
     77  NE1       16.9370  -27.2760   37.9540 N.ar  380  TRP380     -0.2442
     78  CE2       16.6130  -28.6180   38.0590 C.ar  380  TRP380      0.0810
     79  CE3       16.7460  -30.6430   36.6860 C.ar  380  TRP380      0.0012
     80  CZ2       16.0220  -29.3190   39.1230 C.ar  380  TRP380      0.0191
     81  CZ3       16.1600  -31.3370   37.7410 C.ar  380  TRP380      0.0001
     82  CH2       15.7950  -30.6660   38.9540 C.ar  380  TRP380      0.0015
     83  N         21.0960  -24.8160   37.3100 N.3   382  ASP382     -0.1225
     84  CA        20.7420  -24.9430   38.7230 C.3   382  ASP382      0.1805
     85  C         21.8820  -24.4080   39.5870 C.2   382  ASP382      0.2597
     86  O         22.9330  -25.0520   39.7270 O.2   382  ASP382     -0.2718
     87  CB        20.5190  -26.4600   38.9120 C.3   382  ASP382      0.1424
     88  CG        19.8050  -26.8100   40.1830 C.2   382  ASP382      0.3668
     89  OD1       19.4900  -25.9060   40.9940 O.co2 382  ASP382     -0.2456
     90  OD2       19.5620  -28.0340   40.3620 O.co2 382  ASP382     -0.2456
     91  N         21.6210  -23.2550   40.2060 N.am  383  TRP383     -0.1976
     92  CA        22.6070  -22.4730   40.9890 C.3   383  TRP383      0.1640
     93  C         23.6480  -21.8140   40.0870 C.2   383  TRP383      0.2290
     94  O         24.1470  -22.4040   39.1150 O.2   383  TRP383     -0.2864
     95  CB        23.4680  -23.2780   41.9610 C.3   383  TRP383      0.0576
     96  CG        22.7570  -23.9500   43.1020 C.ar  383  TRP383      0.0006
     97  CD1       21.6430  -24.7470   43.0140 C.ar  383  TRP383      0.0946
     98  CD2       23.1540  -23.9440   44.4960 C.ar  383  TRP383      0.0152
     99  NE1       21.3140  -25.2350   44.2730 N.ar  383  TRP383     -0.2442
    100  CE2       22.2270  -24.7610   45.1950 C.ar  383  TRP383      0.0810
    101  CE3       24.2080  -23.3310   45.2110 C.ar  383  TRP383      0.0012
    102  CZ2       22.3130  -24.9820   46.5870 C.ar  383  TRP383      0.0191
    103  CZ3       24.3040  -23.5370   46.6040 C.ar  383  TRP383      0.0001
    104  CH2       23.3570  -24.3600   47.2770 C.ar  383  TRP383      0.0015
    105  N         17.0520  -22.4190   38.0350 N.3   405  GLU405     -0.1245
    106  CA        16.7320  -22.5170   39.4520 C.3   405  GLU405      0.1567
    107  C         17.7670  -21.8560   40.3570 C.2   405  GLU405      0.2260
    108  O         18.9770  -21.9540   40.0970 O.2   405  GLU405     -0.2867
    109  CB        16.6310  -24.0210   39.8240 C.3   405  GLU405      0.0388
    110  CG        15.9880  -24.2850   41.1960 C.3   405  GLU405      0.1160
    111  CD        15.9510  -25.7700   41.5700 C.2   405  GLU405      0.3649
    112  OE1       16.3710  -26.6200   40.7500 O.co2 405  GLU405     -0.2457
    113  OE2       15.4860  -26.0870   42.6990 O.co2 405  GLU405     -0.2457
    114  N         16.3380  -20.9040   50.4850 N.3   450  ARG450     -0.1245
    115  CA        17.6260  -21.4140   49.9900 C.3   450  ARG450      0.1563
    116  C         18.4020  -20.2180   49.4510 C.2   450  ARG450      0.2260
    117  O         17.9530  -19.5500   48.5070 O.2   450  ARG450     -0.2867
    118  CB        17.4590  -22.4560   48.8740 C.3   450  ARG450      0.0307
    119  CG        16.8890  -23.7910   49.3790 C.3   450  ARG450      0.0489
    120  CD        16.9230  -24.8810   48.2860 C.3   450  ARG450      0.2205
    121  NE        15.9290  -24.6130   47.2450 N.pl3 450  ARG450     -0.0865
    122  CZ        16.0790  -24.9280   45.9610 C.cat 450  ARG450      0.5346
    123  NH1       17.1940  -25.5020   45.5420 N.pl3 450  ARG450      0.1354
    124  NH2       15.0750  -24.7350   45.1080 N.pl3 450  ARG450      0.1354
@<TRIPOS>BOND
     1    50    51    1
     2    69    70    1
     3    51    52    1
     4    51    54    1
     5    70    71    1
     6    70    73    1
     7    53    52    2
     8    71    72    2
     9    54    55    1
    10    73    74    1
    11    55    56    1
    12    74    75   ar
    13    74    76   ar
    14    44    43    2
    15    79    76   ar
    16    79    81   ar
    17    75    77   ar
    18    56    57    1
    19    76    78   ar
    20    43    42    1
    21    59    60    1
    22    83    84    1
    23    81    82   ar
    24    62    61    2
    25    57    58    1
    26    77    78   ar
    27   105   106    1
    28    78    80   ar
    29    61    60    1
    30    60    63    1
    31    42    45    1
    32    42    41    1
    33    84    87    1
    34    84    85    1
    35    87    88    1
    36    82    80   ar
    37    45    46    1
    38    94    93    2
    39    65    67   ar
    40    65    64   ar
    41    41    33   am
    42   106   109    1
    43   106   107    1
    44    63    64    1
    45    85    86    2
    46    85    91   am
    47    67    68   ar
    48    64    66   ar
    49   109   110    1
    50    48    47   ar
    51    93    92    1
    52   108   107    2
    53    33    34    2
    54    33    32    1
    55    88    90   ar
    56    88    89   ar
    57    91    92    1
    58    68    66   ar
    59    46    47    1
    60   112   111   ar
    61    32    31    1
    62    32    35    1
    63    47    49   ar
    64    92    95    1
    65   110   111    1
    66   111   113   ar
    67    37    39   ar
    68    37    36   ar
    69    95    96    1
    70    35    36    1
    71    15    16    1
    72    15    21    1
    73    39    40   ar
    74    16    19    1
    75    16    17    1
    76    19    20    1
    77    21    20    1
    78    36    38   ar
    79    97    96   ar
    80    97    99   ar
    81    96    98   ar
    82     4     3    2
    83    40    38   ar
    84    30    28   am
    85    17    18    2
    86    99   100   ar
    87     3     2    1
    88    98   100   ar
    89    98   101   ar
    90     5     2    1
    91     5     6    1
    92    28    29    2
    93    28    27    1
    94   124   122    1
    95   100   102   ar
    96   101   103   ar
    97     2     1    1
    98     6     8   ar
    99     6     7   ar
   100    11     8   ar
   101    11    13   ar
   102   123   122    1
   103    27    26    1
   104     8    10   ar
   105    13    14   ar
   106   122   121    2
   107     7     9   ar
   108   102   104   ar
   109   103   104   ar
   110    10     9   ar
   111    10    12   ar
   112    14    12   ar
   113    26    23    1
   114   121   120    1
   115    25    24    2
   116    23    24    1
   117    23    22    1
   118   120   119    1
   119   117   116    2
   120   118   119    1
   121   118   115    1
   122   116   115    1
   123   115   114    1
