@<TRIPOS>MOLECULE
tmp/3vsuA00.pdb
 187 185 0 0 0
SMALL
GASTEIGER

@<TRIPOS>ATOM
      1  N         22.3200    1.1580   59.9240 N.3   113  TRP113     -0.1241
      2  CA        21.7120    0.7590   61.1860 C.3   113  TRP113      0.1605
      3  C         21.5400    1.8350   62.2480 C.2   113  TRP113      0.2264
      4  O         21.1630    1.5250   63.3810 O.2   113  TRP113     -0.2867
      5  CB        22.4120   -0.4650   61.7780 C.3   113  TRP113      0.0550
      6  CG        22.1040   -1.7300   60.9810 C.ar  113  TRP113      0.0003
      7  CD1       20.8850   -2.4160   60.9150 C.ar  113  TRP113      0.0946
      8  CD2       23.0080   -2.4500   60.1280 C.ar  113  TRP113      0.0152
      9  NE1       21.0010   -3.5100   60.0740 N.ar  113  TRP113     -0.2442
     10  CE2       22.2830   -3.5650   59.5840 C.ar  113  TRP113      0.0810
     11  CE3       24.3650   -2.2760   59.7770 C.ar  113  TRP113      0.0012
     12  CZ2       22.8860   -4.5120   58.7040 C.ar  113  TRP113      0.0191
     13  CZ3       24.9640   -3.2120   58.9100 C.ar  113  TRP113      0.0001
     14  CH2       24.2210   -4.3160   58.3880 C.ar  113  TRP113      0.0015
     15  N         15.7690   -0.6320   73.2500 N.3   155  TRP155     -0.1241
     16  CA        15.5150   -2.0590   73.0460 C.3   155  TRP155      0.1605
     17  C         14.4650   -2.6560   73.9850 C.2   155  TRP155      0.2264
     18  O         13.4930   -3.2460   73.5320 O.2   155  TRP155     -0.2867
     19  CB        16.7990   -2.8580   73.1680 C.3   155  TRP155      0.0550
     20  CG        16.6060   -4.3230   72.8390 C.ar  155  TRP155      0.0003
     21  CD1       16.1210   -5.3110   73.6640 C.ar  155  TRP155      0.0946
     22  CD2       16.9140   -4.9540   71.5940 C.ar  155  TRP155      0.0152
     23  NE1       16.1190   -6.5250   72.9930 N.ar  155  TRP155     -0.2442
     24  CE2       16.6030   -6.3270   71.7250 C.ar  155  TRP155      0.0810
     25  CE3       17.4250   -4.4860   70.3730 C.ar  155  TRP155      0.0012
     26  CZ2       16.7890   -7.2410   70.6790 C.ar  155  TRP155      0.0191
     27  CZ3       17.6070   -5.3930   69.3340 C.ar  155  TRP155      0.0001
     28  CH2       17.2880   -6.7600   69.4970 C.ar  155  TRP155      0.0015
     29  N         29.3670   -2.5240   60.9970 N.3   233  PRO233     -0.2116
     30  CA        30.2500   -3.5070   60.3400 C.3   233  PRO233      0.1372
     31  C         30.4120   -3.3530   58.8390 C.2   233  PRO233      0.2244
     32  O         31.2890   -3.9680   58.2490 O.2   233  PRO233     -0.2868
     33  CB        29.6060   -4.8490   60.6880 C.3   233  PRO233      0.0268
     34  CG        28.0810   -4.4920   60.6650 C.3   233  PRO233      0.0207
     35  CD        28.0270   -3.0840   61.3010 C.3   233  PRO233      0.0892
     36  N         22.4140   -5.8320   55.4270 N.3   286  TYR286     -0.1241
     37  CA        22.5940   -7.2890   55.5870 C.3   286  TYR286      0.1605
     38  C         23.3770   -7.8710   54.3730 C.2   286  TYR286      0.2264
     39  O         24.3540   -8.5990   54.5370 O.2   286  TYR286     -0.2867
     40  CB        21.2560   -8.0020   55.6250 C.3   286  TYR286      0.0534
     41  CG        21.3620   -9.5050   55.3220 C.ar  286  TYR286     -0.0201
     42  CD1       22.0560  -10.3730   56.1710 C.ar  286  TYR286     -0.0009
     43  CD2       20.8070  -10.0410   54.1590 C.ar  286  TYR286     -0.0009
     44  CE1       22.2000  -11.7170   55.8610 C.ar  286  TYR286      0.0417
     45  CE2       20.9400  -11.4030   53.8530 C.ar  286  TYR286      0.0417
     46  CZ        21.6420  -12.2350   54.7000 C.ar  286  TYR286      0.1957
     47  OH        21.8040  -13.5890   54.3500 O.3   286  TYR286     -0.2866
     48  N         26.9560   -6.5310   54.1960 N.3   289  GLN289     -0.1245
     49  CA        27.8370   -7.0870   55.2240 C.3   289  GLN289      0.1566
     50  C         28.3810   -8.4530   54.8170 C.2   289  GLN289      0.2260
     51  O         29.5870   -8.7110   54.9650 O.2   289  GLN289     -0.2867
     52  CB        27.1270   -7.2820   56.5410 C.3   289  GLN289      0.0367
     53  CG        28.1000   -7.6410   57.6750 C.3   289  GLN289      0.0905
     54  CD        27.3950   -7.6790   59.0110 C.2   289  GLN289      0.2608
     55  OE1       26.3320   -7.0750   59.1610 O.2   289  GLN289     -0.2717
     56  NE2       27.9750   -8.3810   59.9900 N.am  289  GLN289     -0.0878
     57  N         21.4830   -0.0840   65.8720 N.3   352  HIS352     -0.1226
     58  CA        21.8450   -1.4680   66.1920 C.3   352  HIS352      0.1752
     59  C         23.3520   -1.7810   66.2230 C.2   352  HIS352      0.2595
     60  O         23.7970   -2.7950   65.6630 O.2   352  HIS352     -0.2718
     61  CB        21.1300   -2.4250   65.2280 C.3   352  HIS352      0.0759
     62  CG        19.6350   -2.3850   65.3420 C.ar  352  HIS352      0.0818
     63  ND1       18.9770   -2.4370   66.5570 N.ar  352  HIS352     -0.2268
     64  CD2       18.6660   -2.3370   64.3940 C.ar  352  HIS352      0.1154
     65  CE1       17.6710   -2.4300   66.3500 C.ar  352  HIS352      0.1986
     66  NE2       17.4570   -2.3700   65.0460 N.ar  352  HIS352     -0.2212
     67  N         24.1400   -0.9090   66.8540 N.am  353  GLU353     -0.1979
     68  CA        25.5790   -1.1570   66.9770 C.3   353  GLU353      0.1602
     69  C         26.0750   -0.8010   68.3850 C.2   353  GLU353      0.2287
     70  O         27.2770   -0.7980   68.6510 O.2   353  GLU353     -0.2864
     71  CB        26.3360   -0.3340   65.9440 C.3   353  GLU353      0.0415
     72  CG        25.8780   -0.5990   64.4770 C.3   353  GLU353      0.1163
     73  CD        26.0710   -2.0730   64.0060 C.2   353  GLU353      0.3649
     74  OE1       26.7840   -2.8790   64.6620 O.co2 353  GLU353     -0.2457
     75  OE2       25.5140   -2.4190   62.9390 O.co2 353  GLU353     -0.2457
     76  N         31.0140   -4.7800   71.2990 N.3   358  LYS358     -0.1245
     77  CA        30.2510   -5.3760   70.2160 C.3   358  LYS358      0.1561
     78  C         31.2800   -5.8540   69.2100 C.2   358  LYS358      0.2260
     79  O         32.0900   -5.0500   68.7480 O.2   358  LYS358     -0.2867
     80  CB        29.2740   -4.4110   69.5100 C.3   358  LYS358      0.0271
     81  CG        28.6010   -5.1450   68.3270 C.3   358  LYS358      0.0035
     82  CD        27.4240   -4.4390   67.6960 C.3   358  LYS358      0.0206
     83  CE        26.6100   -5.4500   66.8490 C.3   358  LYS358      0.1093
     84  NZ        25.4430   -4.9500   66.0200 N.3   358  LYS358     -0.1314
     85  N         31.8150   -8.2980   65.5780 N.3   360  HIS360     -0.1241
     86  CA        31.2680   -9.1170   64.4850 C.3   360  HIS360      0.1621
     87  C         32.4250  -10.0060   64.0260 C.2   360  HIS360      0.2264
     88  O         33.5380   -9.5280   63.8550 O.2   360  HIS360     -0.2867
     89  CB        30.7960   -8.2850   63.2750 C.3   360  HIS360      0.0745
     90  CG        29.7250   -7.2930   63.5830 C.ar  360  HIS360      0.0817
     91  ND1       30.0000   -6.0290   64.0670 N.ar  360  HIS360     -0.2268
     92  CD2       28.3830   -7.3340   63.3820 C.ar  360  HIS360      0.1154
     93  CE1       28.8760   -5.3340   64.1370 C.ar  360  HIS360      0.1986
     94  NE2       27.8810   -6.1000   63.7280 N.ar  360  HIS360     -0.2212
     95  N         27.7410   -7.7290   72.8200 N.3   380  TRP380     -0.1241
     96  CA        27.0090   -8.1250   71.6180 C.3   380  TRP380      0.1605
     97  C         27.9790   -8.8300   70.6470 C.2   380  TRP380      0.2264
     98  O         28.9300   -8.2160   70.1670 O.2   380  TRP380     -0.2867
     99  CB        26.4120   -6.8730   70.9410 C.3   380  TRP380      0.0550
    100  CG        25.2800   -7.1270   69.9550 C.ar  380  TRP380      0.0003
    101  CD1       24.9540   -8.3230   69.3440 C.ar  380  TRP380      0.0946
    102  CD2       24.4010   -6.1330   69.3750 C.ar  380  TRP380      0.0152
    103  NE1       23.9430   -8.1220   68.4250 N.ar  380  TRP380     -0.2442
    104  CE2       23.5890   -6.7940   68.4210 C.ar  380  TRP380      0.0810
    105  CE3       24.2360   -4.7500   69.5650 C.ar  380  TRP380      0.0012
    106  CZ2       22.6150   -6.1160   67.6530 C.ar  380  TRP380      0.0191
    107  CZ3       23.2730   -4.0760   68.8010 C.ar  380  TRP380      0.0001
    108  CH2       22.4730   -4.7710   67.8530 C.ar  380  TRP380      0.0015
    109  N         27.8610  -10.5410   67.1680 N.3   382  ASP382     -0.1225
    110  CA        26.9480  -10.4410   66.0380 C.3   382  ASP382      0.1805
    111  C         27.5920  -11.0000   64.7780 C.2   382  ASP382      0.2597
    112  O         28.4610  -10.3320   64.1900 O.2   382  ASP382     -0.2718
    113  CB        26.6660   -8.9430   65.8760 C.3   382  ASP382      0.1424
    114  CG        25.4060   -8.6450   65.0690 C.2   382  ASP382      0.3668
    115  OD1       24.7330   -9.6030   64.6380 O.co2 382  ASP382     -0.2456
    116  OD2       25.1160   -7.4350   64.8660 O.co2 382  ASP382     -0.2456
    117  N         27.1820  -12.2190   64.3970 N.am  383  TRP383     -0.1976
    118  CA        27.7040  -12.9410   63.2340 C.3   383  TRP383      0.1640
    119  C         29.0360  -13.5880   63.5460 C.2   383  TRP383      0.2290
    120  O         29.8650  -12.9980   64.2170 O.2   383  TRP383     -0.2864
    121  CB        28.0140  -12.0430   62.0050 C.3   383  TRP383      0.0576
    122  CG        26.8720  -11.3950   61.2910 C.ar  383  TRP383      0.0006
    123  CD1       25.9220  -10.5590   61.8310 C.ar  383  TRP383      0.0946
    124  CD2       26.6290  -11.4230   59.8760 C.ar  383  TRP383      0.0152
    125  NE1       25.1170  -10.0610   60.8410 N.ar  383  TRP383     -0.2442
    126  CE2       25.5230  -10.5720   59.6290 C.ar  383  TRP383      0.0810
    127  CE3       27.2510  -12.0820   58.7880 C.ar  383  TRP383      0.0012
    128  CZ2       25.0120  -10.3500   58.3280 C.ar  383  TRP383      0.0191
    129  CZ3       26.7480  -11.8710   57.4900 C.ar  383  TRP383      0.0001
    130  CH2       25.6340  -11.0070   57.2730 C.ar  383  TRP383      0.0015
    131  N         24.1690  -10.6230   74.2240 N.3   403  PHE403     -0.1241
    132  CA        23.4010  -10.8390   72.9890 C.3   403  PHE403      0.1605
    133  C         24.3040  -11.6050   71.9870 C.2   403  PHE403      0.2264
    134  O         25.3660  -11.1040   71.6000 O.2   403  PHE403     -0.2867
    135  CB        22.9800   -9.4510   72.4200 C.3   403  PHE403      0.0534
    136  CG        21.9620   -9.4900   71.2780 C.ar  403  PHE403     -0.0203
    137  CD1       21.5420  -10.6940   70.7020 C.ar  403  PHE403     -0.0042
    138  CD2       21.4820   -8.2900   70.7330 C.ar  403  PHE403     -0.0042
    139  CE1       20.6510  -10.7140   69.5830 C.ar  403  PHE403     -0.0003
    140  CE2       20.5940   -8.2820   69.6110 C.ar  403  PHE403     -0.0003
    141  CZ        20.1810   -9.5010   69.0390 C.ar  403  PHE403     -0.0000
    142  N         24.0510  -13.0500   68.3500 N.3   405  GLU405     -0.1231
    143  CA        23.1450  -13.0020   67.2010 C.3   405  GLU405      0.1699
    144  C         23.6880  -13.6400   65.8920 C.2   405  GLU405      0.2592
    145  O         24.8850  -13.5820   65.5730 O.2   405  GLU405     -0.2718
    146  CB        22.7490  -11.5190   66.9650 C.3   405  GLU405      0.0402
    147  CG        21.6430  -11.3120   65.9400 C.3   405  GLU405      0.1161
    148  CD        21.3300   -9.8450   65.6820 C.2   405  GLU405      0.3649
    149  OE1       22.0070   -8.9570   66.2870 O.co2 405  GLU405     -0.2457
    150  OE2       20.3930   -9.5950   64.8690 O.co2 405  GLU405     -0.2457
    151  N         22.7690  -14.2490   65.1580 N.am  406  VAL406     -0.1980
    152  CA        23.0220  -14.9480   63.9030 C.3   406  VAL406      0.1595
    153  C         24.3670  -15.6560   63.7970 C.2   406  VAL406      0.2287
    154  O         25.0480  -15.5850   62.7740 O.2   406  VAL406     -0.2864
    155  CB        22.7760  -14.0210   62.6600 C.3   406  VAL406      0.0276
    156  CG1       21.2760  -13.6960   62.5260 C.3   406  VAL406      0.0022
    157  CG2       23.5570  -12.7210   62.7620 C.3   406  VAL406      0.0022
    158  N         19.8990  -15.3280   69.5680 N.3   427  MET427     -0.1245
    159  CA        19.3280  -15.4660   68.2290 C.3   427  MET427      0.1570
    160  C         20.3640  -16.2310   67.4120 C.2   427  MET427      0.2261
    161  O         20.7030  -15.8340   66.2930 O.2   427  MET427     -0.2867
    162  CB        19.0660  -14.0750   67.6060 C.3   427  MET427      0.0387
    163  CG        17.9660  -13.2810   68.3100 C.3   427  MET427      0.0595
    164  SD        17.5860  -11.6980   67.4780 S.3   427  MET427     -0.1393
    165  CE        16.8300  -10.7450   68.8260 C.3   427  MET427      0.0692
    166  N         15.2670  -16.7290   69.9030 N.3   445  ARG445     -0.1245
    167  CA        14.5410  -16.6920   68.6180 C.3   445  ARG445      0.1563
    168  C         15.3310  -17.1840   67.4040 C.2   445  ARG445      0.2260
    169  O         16.5500  -16.9790   67.3150 O.2   445  ARG445     -0.2867
    170  CB        14.0900  -15.2610   68.3130 C.3   445  ARG445      0.0307
    171  CG        12.9050  -14.8190   69.1610 C.3   445  ARG445      0.0489
    172  CD        13.1060  -13.4120   69.7000 C.3   445  ARG445      0.2205
    173  NE        13.1760  -12.4250   68.6270 N.pl3 445  ARG445     -0.0865
    174  CZ        13.6730  -11.1910   68.7560 C.cat 445  ARG445      0.5346
    175  NH1       14.1600  -10.7830   69.9240 N.pl3 445  ARG445      0.1354
    176  NH2       13.6720  -10.3540   67.7090 N.pl3 445  ARG445      0.1354
    177  N         17.8190  -14.5070   57.2810 N.3   450  ARG450     -0.1245
    178  CA        19.1950  -14.0060   57.1260 C.3   450  ARG450      0.1563
    179  C         20.1140  -15.1820   57.3290 C.2   450  ARG450      0.2260
    180  O         20.0840  -15.8400   58.3750 O.2   450  ARG450     -0.2867
    181  CB        19.5710  -12.9160   58.1330 C.3   450  ARG450      0.0307
    182  CG        18.8950  -11.5610   57.8800 C.3   450  ARG450      0.0489
    183  CD        19.4070  -10.5210   58.8800 C.3   450  ARG450      0.2205
    184  NE        18.9390  -10.7820   60.2370 N.pl3 450  ARG450     -0.0865
    185  CZ        19.6660  -10.5250   61.3260 C.cat 450  ARG450      0.5346
    186  NH1       20.8840  -10.0150   61.1880 N.pl3 450  ARG450      0.1354
    187  NH2       19.1750  -10.7510   62.5470 N.pl3 450  ARG450      0.1354
@<TRIPOS>BOND
     1    45    43   ar
     2    45    46   ar
     3    43    41   ar
     4    48    49    1
     5    47    46    1
     6    38    39    2
     7    38    37    1
     8    46    44   ar
     9    50    51    2
    10    50    49    1
    11    49    52    1
    12    41    40    1
    13    41    42   ar
    14    36    37    1
    15    37    40    1
    16    44    42   ar
    17    52    53    1
    18   178   177    1
    19   178   179    1
    20   178   181    1
    21   130   129   ar
    22   130   128   ar
    23   179   180    2
    24   129   127   ar
    25    53    54    1
    26   182   181    1
    27   182   183    1
    28    32    31    2
    29   128   126   ar
    30    14    12   ar
    31    14    13   ar
    32    12    10   ar
    33   127   124   ar
    34    31    30    1
    35   183   184    1
    36    13    11   ar
    37    54    55    2
    38    54    56   am
    39    10     9   ar
    40    10     8   ar
    41   126   124   ar
    42   126   125   ar
    43    11     8   ar
    44   124   122   ar
    45     1     2    1
    46     9     7   ar
    47     8     6   ar
    48   184   185    2
    49    30    33    1
    50    30    29    1
    51    34    33    1
    52    34    35    1
    53   125   123   ar
    54     7     6   ar
    55     6     5    1
    56    29    35    1
    57     2     5    1
    58     2     3    1
    59   186   185    1
    60   122   123   ar
    61   122   121    1
    62   185   187    1
    63   121   118    1
    64     3     4    2
    65   156   155    1
    66   155   157    1
    67   155   152    1
    68   154   153    2
    69    75    73   ar
    70   118   119    1
    71   118   117    1
    72    89    90    1
    73    89    86    1
    74    92    90   ar
    75    92    94   ar
    76   119   120    2
    77    90    91   ar
    78    94    93   ar
    79   153   152    1
    80    88    87    2
    81   152   151    1
    82    73    72    1
    83    73    74   ar
    84    87    86    1
    85    91    93   ar
    86   112   111    2
    87    64    66   ar
    88    64    62   ar
    89   117   111   am
    90    72    71    1
    91    86    85    1
    92   115   114   ar
    93   111   110    1
    94   116   114   ar
    95   150   148   ar
    96    66    65   ar
    97   114   113    1
    98   151   144   am
    99    61    62    1
   100    61    58    1
   101    62    63   ar
   102   145   144    2
   103    60    59    2
   104   148   147    1
   105   148   149   ar
   106    57    58    1
   107   113   110    1
   108   144   143    1
   109   147   146    1
   110    71    68    1
   111    84    83    1
   112   110   109    1
   113    58    59    1
   114    59    67   am
   115   161   160    2
   116    65    63   ar
   117    83    82    1
   118    67    68    1
   119   146   143    1
   120    68    69    1
   121   143   142    1
   122   169   168    2
   123   168   167    1
   124   160   159    1
   125   164   163    1
   126   164   165    1
   127   162   159    1
   128   162   163    1
   129   106   108   ar
   130   106   104   ar
   131    82    81    1
   132   176   174    1
   133   108   107   ar
   134   159   158    1
   135   170   167    1
   136   170   171    1
   137    81    80    1
   138    69    70    2
   139   104   103   ar
   140   104   102   ar
   141   103   101   ar
   142   167   166    1
   143   173   174    2
   144   173   172    1
   145    79    78    2
   146   174   175    1
   147   107   105   ar
   148   141   139   ar
   149   141   140   ar
   150   171   172    1
   151    78    77    1
   152    27    28   ar
   153    27    25   ar
   154   101   100   ar
   155   102   105   ar
   156   102   100   ar
   157    28    26   ar
   158    80    77    1
   159   139   137   ar
   160   140   138   ar
   161   100    99    1
   162    98    97    2
   163    77    76    1
   164    25    22   ar
   165    97    96    1
   166    26    24   ar
   167   137   136   ar
   168   138   136   ar
   169    99    96    1
   170   136   135    1
   171    22    24   ar
   172    22    20   ar
   173   134   133    2
   174    96    95    1
   175    24    23   ar
   176   133   132    1
   177   135   132    1
   178    20    19    1
   179    20    21   ar
   180   132   131    1
   181    23    21   ar
   182    16    19    1
   183    16    15    1
   184    16    17    1
   185    18    17    2
