@<TRIPOS>MOLECULE
tmp/3vsvC06.pdb
 95 90 0 0 0
SMALL
GASTEIGER

@<TRIPOS>ATOM
      1  N         81.3390  -52.2210   51.4430 N.3   151  VAL151     -0.1245
      2  CA        80.5900  -51.5210   50.4150 C.3   151  VAL151      0.1561
      3  C         80.9640  -50.0400   50.4850 C.2   151  VAL151      0.2260
      4  O         81.3840  -49.5350   51.5320 O.2   151  VAL151     -0.2867
      5  CB        79.0620  -51.7210   50.6480 C.3   151  VAL151      0.0252
      6  CG1       78.6550  -51.0670   51.9790 C.3   151  VAL151      0.0019
      7  CG2       78.2610  -51.2050   49.4570 C.3   151  VAL151      0.0019
      8  N         82.9620  -49.0180   53.8100 N.3   160  VAL160     -0.1231
      9  CA        82.5360  -49.3860   55.1510 C.3   160  VAL160      0.1678
     10  C         82.0830  -50.8360   55.1840 C.2   160  VAL160      0.2434
     11  O         81.7810  -51.4210   54.1620 O.2   160  VAL160     -0.2733
     12  CB        81.3380  -48.4810   55.6220 C.3   160  VAL160      0.0265
     13  CG1       81.7870  -47.0090   55.6650 C.3   160  VAL160      0.0020
     14  CG2       80.1590  -48.6350   54.6430 C.3   160  VAL160      0.0020
     15  N         82.0010  -51.4130   56.3750 N.am  161  PRO161     -0.2718
     16  CA        81.5690  -52.8080   56.4650 C.3   161  PRO161      0.1535
     17  C         80.1040  -52.9750   56.0880 C.2   161  PRO161      0.2598
     18  O         79.2920  -52.0580   56.2670 O.2   161  PRO161     -0.2715
     19  CB        81.7700  -53.1430   57.9350 C.3   161  PRO161      0.0310
     20  CG        82.8690  -52.1850   58.3700 C.3   161  PRO161      0.0237
     21  CD        82.4640  -50.9150   57.6770 C.3   161  PRO161      0.0939
     22  N         79.7770  -54.1370   55.5540 N.am  162  ILE162     -0.1964
     23  CA        78.3920  -54.4530   55.2650 C.3   162  ILE162      0.1727
     24  C         77.9060  -55.0690   56.5690 C.2   162  ILE162      0.2616
     25  O         78.5230  -56.0110   57.0970 O.2   162  ILE162     -0.2715
     26  CB        78.2770  -55.4380   54.1090 C.3   162  ILE162      0.0290
     27  CG1       78.6120  -54.6970   52.8050 C.3   162  ILE162      0.0022
     28  CG2       76.8720  -56.0700   54.0870 C.3   162  ILE162      0.0023
     29  CD1       78.5070  -55.5820   51.5590 C.3   162  ILE162      0.0001
     30  N         76.8140  -54.5230   57.0980 N.am  163  LYS163     -0.1977
     31  CA        76.2540  -54.9780   58.3600 C.3   163  LYS163      0.1596
     32  C         75.8940  -56.4760   58.3850 C.2   163  LYS163      0.2287
     33  O         76.2040  -57.1790   59.3480 O.2   163  LYS163     -0.2864
     34  CB        75.0180  -54.1220   58.7180 C.3   163  LYS163      0.0298
     35  CG        74.5170  -54.3520   60.1670 C.3   163  LYS163      0.0038
     36  CD        73.5260  -53.2730   60.6560 C.3   163  LYS163      0.0206
     37  CE        73.2450  -53.4620   62.1610 C.3   163  LYS163      0.1093
     38  NZ        72.1580  -52.5730   62.7420 N.3   163  LYS163     -0.1314
     39  N         70.8380  -49.5200   53.9610 N.3   345  LEU345     -0.1245
     40  CA        72.1790  -50.1160   54.0910 C.3   345  LEU345      0.1561
     41  C         72.5350  -51.0770   52.9650 C.2   345  LEU345      0.2260
     42  O         73.7370  -51.2610   52.6830 O.2   345  LEU345     -0.2867
     43  CB        72.3110  -50.8440   55.4240 C.3   345  LEU345      0.0270
     44  CG        72.1380  -49.9850   56.6900 C.3   345  LEU345      0.0019
     45  CD1       72.4200  -50.8700   57.9180 C.3   345  LEU345      0.0001
     46  CD2       73.0600  -48.7880   56.6720 C.3   345  LEU345      0.0001
     47  N         72.0840  -50.6890   49.8520 N.3   347  ARG347     -0.1245
     48  CA        72.5720  -49.8970   48.7510 C.3   347  ARG347      0.1563
     49  C         72.3520  -50.5340   47.3770 C.2   347  ARG347      0.2260
     50  O         73.2300  -50.4750   46.5140 O.2   347  ARG347     -0.2867
     51  CB        74.0560  -49.5600   49.0180 C.3   347  ARG347      0.0307
     52  CG        74.2250  -48.6320   50.2440 C.3   347  ARG347      0.0489
     53  CD        75.6900  -48.3590   50.5680 C.3   347  ARG347      0.2205
     54  NE        75.9050  -47.3800   51.6490 N.pl3 347  ARG347     -0.0865
     55  CZ        75.9870  -47.7000   52.9370 C.cat 347  ARG347      0.5346
     56  NH1       75.8440  -48.9760   53.3350 N.pl3 347  ARG347      0.1354
     57  NH2       76.2980  -46.7760   53.8340 N.pl3 347  ARG347      0.1354
     58  N         72.6070  -46.3660   62.4990 N.3   374  ASP374     -0.1225
     59  CA        72.8090  -47.3020   61.4030 C.3   374  ASP374      0.1805
     60  C         72.0420  -46.9430   60.1240 C.2   374  ASP374      0.2598
     61  O         71.3750  -47.7550   59.4780 O.2   374  ASP374     -0.2718
     62  CB        72.5130  -48.7410   61.8790 C.3   374  ASP374      0.1424
     63  CG        73.5840  -49.2350   62.8630 C.2   374  ASP374      0.3668
     64  OD1       74.7000  -49.5530   62.4020 O.co2 374  ASP374     -0.2456
     65  OD2       73.3250  -49.2330   64.0880 O.co2 374  ASP374     -0.2456
     66  N         72.2160  -45.6770   59.7460 N.am  375  CYS375     -0.1970
     67  CA        71.6450  -45.1300   58.5150 C.3   375  CYS375      0.1712
     68  C         72.7600  -44.5060   57.7110 C.2   375  CYS375      0.2296
     69  O         73.7490  -44.0360   58.2890 O.2   375  CYS375     -0.2864
     70  CB        70.6500  -44.0180   58.8380 C.3   375  CYS375      0.0983
     71  SG        69.1350  -44.5780   59.6640 S.3   375  CYS375     -0.0798
     72  N         76.3570  -44.0470   64.9270 N.3   397  ASN397     -0.1225
     73  CA        76.6010  -45.0860   63.9500 C.3   397  ASN397      0.1785
     74  C         75.9820  -44.8140   62.5790 C.2   397  ASN397      0.2597
     75  O         75.5570  -45.7420   61.8740 O.2   397  ASN397     -0.2718
     76  CB        76.0840  -46.4580   64.4460 C.3   397  ASN397      0.1169
     77  CG        76.8930  -47.0130   65.6010 C.2   397  ASN397      0.2627
     78  OD1       77.9810  -46.5330   65.9040 O.2   397  ASN397     -0.2716
     79  ND2       76.3540  -48.0470   66.2480 N.am  397  ASN397     -0.0877
     80  N         75.9360  -43.5410   62.1980 N.am  398  ASN398     -0.1960
     81  CA        75.4490  -43.1850   60.8700 C.3   398  ASN398      0.1819
     82  C         76.6140  -42.7150   60.0420 C.2   398  ASN398      0.2621
     83  O         77.5600  -42.1420   60.5890 O.2   398  ASN398     -0.2715
     84  CB        74.4430  -42.0250   60.9410 C.3   398  ASN398      0.1195
     85  CG        73.2070  -42.3740   61.7660 C.2   398  ASN398      0.2630
     86  OD1       72.5780  -43.4220   61.5540 O.2   398  ASN398     -0.2716
     87  ND2       72.8280  -41.4750   62.6870 N.am  398  ASN398     -0.0877
     88  N         76.5470  -42.8960   58.7200 N.am  399  ASN399     -0.1972
     89  CA        77.6390  -42.3270   57.9060 C.3   399  ASN399      0.1688
     90  C         77.6200  -40.8100   58.0310 C.2   399  ASN399      0.2292
     91  O         78.6770  -40.1560   58.0460 O.2   399  ASN399     -0.2864
     92  CB        77.5270  -42.7840   56.4690 C.3   399  ASN399      0.1181
     93  CG        77.5920  -44.2780   56.3630 C.2   399  ASN399      0.2629
     94  OD1       76.5830  -44.9820   56.5210 O.2   399  ASN399     -0.2716
     95  ND2       78.8170  -44.7990   56.1450 N.am  399  ASN399     -0.0877
@<TRIPOS>BOND
     1    50    49    2
     2    49    48    1
     3    48    51    1
     4    48    47    1
     5    51    52    1
     6     7     5    1
     7    52    53    1
     8     2     3    1
     9     2     5    1
    10     2     1    1
    11     3     4    2
    12    53    54    1
    13     5     6    1
    14    29    27    1
    15    54    55    2
    16    42    41    2
    17    27    26    1
    18    55    56    1
    19    55    57    1
    20    41    40    1
    21     8     9    1
    22    39    40    1
    23    28    26    1
    24    40    43    1
    25    26    23    1
    26    11    10    2
    27    14    12    1
    28     9    10    1
    29     9    12    1
    30    10    15   am
    31    23    22    1
    32    23    24    1
    33    43    44    1
    34    22    17   am
    35    12    13    1
    36    17    18    2
    37    17    16    1
    38    95    93   am
    39    93    92    1
    40    93    94    2
    41    15    16    1
    42    15    21    1
    43    16    19    1
    44    92    89    1
    45    24    25    2
    46    24    30   am
    47    46    44    1
    48    44    45    1
    49    30    31    1
    50    21    20    1
    51    68    69    2
    52    68    67    1
    53    89    90    1
    54    89    88    1
    55    19    20    1
    56    90    91    2
    57    31    32    1
    58    31    34    1
    59    32    33    2
    60    67    70    1
    61    67    66    1
    62    34    35    1
    63    88    82   am
    64    70    71    1
    65    61    60    2
    66    66    60   am
    67    82    83    2
    68    82    81    1
    69    60    59    1
    70    35    36    1
    71    36    37    1
    72    81    84    1
    73    81    80    1
    74    84    85    1
    75    59    62    1
    76    59    58    1
    77    86    85    2
    78    85    87   am
    79    75    74    2
    80    62    63    1
    81    37    38    1
    82    80    74   am
    83    64    63   ar
    84    74    73    1
    85    63    65   ar
    86    73    76    1
    87    73    72    1
    88    76    77    1
    89    77    78    2
    90    77    79   am
