@<TRIPOS>MOLECULE
tmp/3vsvD06.pdb
 76 72 0 0 0
SMALL
GASTEIGER

@<TRIPOS>ATOM
      1  N         11.7470  -28.6160   21.3910 N.3   396  TYR396     -0.1227
      2  CA        10.3830  -29.0240   21.0440 C.3   396  TYR396      0.1736
      3  C         10.1580  -30.4450   21.5610 C.2   396  TYR396      0.2595
      4  O         11.0960  -31.2050   21.8610 O.2   396  TYR396     -0.2718
      5  CB        10.1510  -28.9760   19.5020 C.3   396  TYR396      0.0548
      6  CG        11.0680  -29.8610   18.6730 C.ar  396  TYR396     -0.0200
      7  CD1       12.3560  -29.4360   18.3460 C.ar  396  TYR396     -0.0009
      8  CD2       10.6500  -31.1120   18.2090 C.ar  396  TYR396     -0.0009
      9  CE1       13.1950  -30.2210   17.5690 C.ar  396  TYR396      0.0417
     10  CE2       11.4930  -31.9160   17.4390 C.ar  396  TYR396      0.0417
     11  CZ        12.7680  -31.4570   17.1120 C.ar  396  TYR396      0.1957
     12  OH        13.5820  -32.2200   16.3220 O.3   396  TYR396     -0.2866
     13  N          8.8860  -30.8100   21.6710 N.am  397  ASN397     -0.1974
     14  CA         8.4720  -32.1380   22.1310 C.3   397  ASN397      0.1688
     15  C          9.0970  -32.5210   23.4570 C.2   397  ASN397      0.2292
     16  O          9.4220  -33.6810   23.6780 O.2   397  ASN397     -0.2864
     17  CB         8.7890  -33.2330   21.0860 C.3   397  ASN397      0.1181
     18  CG         7.9410  -33.0950   19.8090 C.2   397  ASN397      0.2629
     19  OD1        6.9530  -32.3540   19.7880 O.2   397  ASN397     -0.2716
     20  ND2        8.3340  -33.8050   18.7510 N.am  397  ASN397     -0.0877
     21  N          9.2300  -24.2490   22.2220 N.3   419  SER419     -0.1202
     22  CA         7.9040  -24.6100   21.7330 C.3   419  SER419      0.2020
     23  C          7.0840  -25.5580   22.5390 C.2   419  SER419      0.2619
     24  O          5.9220  -25.8300   22.1680 O.2   419  SER419     -0.2717
     25  CB         8.0290  -25.1560   20.3070 C.3   419  SER419      0.2103
     26  OG         8.6050  -26.4520   20.3360 O.3   419  SER419     -0.2182
     27  N          7.6020  -26.0550   23.6490 N.am  420  SER420     -0.1937
     28  CA         6.8000  -27.0140   24.4100 C.3   420  SER420      0.2055
     29  C          5.7010  -26.3050   25.2360 C.2   420  SER420      0.2642
     30  O          5.7720  -25.0850   25.4850 O.2   420  SER420     -0.2714
     31  CB         7.7540  -27.9000   25.2220 C.3   420  SER420      0.2130
     32  OG         8.7220  -28.5510   24.3400 O.3   420  SER420     -0.2179
     33  N          4.6680  -27.0540   25.6400 N.am  421  GLU421     -0.1976
     34  CA         3.5490  -26.4640   26.3600 C.3   421  GLU421      0.1602
     35  C          3.8940  -25.8860   27.7380 C.2   421  GLU421      0.2287
     36  O          3.1720  -25.0370   28.2760 O.2   421  GLU421     -0.2864
     37  CB         2.4130  -27.5000   26.5110 C.3   421  GLU421      0.0415
     38  CG         1.8460  -27.8960   25.1520 C.3   421  GLU421      0.1163
     39  CD         0.6570  -28.8320   25.2830 C.2   421  GLU421      0.3649
     40  OE1       -0.1980  -28.8160   24.3670 O.co2 421  GLU421     -0.2457
     41  OE2        0.5900  -29.5710   26.2980 O.co2 421  GLU421     -0.2457
     42  N          6.1620  -20.7030   23.3640 N.3   439  ALA439     -0.1245
     43  CA         4.8110  -21.2200   23.1170 C.3   439  ALA439      0.1562
     44  C          4.2680  -22.0740   24.2350 C.2   439  ALA439      0.2260
     45  O          3.3920  -22.9500   24.0120 O.2   439  ALA439     -0.2867
     46  CB         4.7920  -22.0040   21.7900 C.3   439  ALA439      0.0290
     47  N         -2.4690  -21.2860   24.5560 N.3   483  LYS483     -0.1245
     48  CA        -3.2820  -22.3620   23.9810 C.3   483  LYS483      0.1561
     49  C         -4.5120  -22.5120   24.8720 C.2   483  LYS483      0.2260
     50  O         -4.4710  -22.2220   26.0630 O.2   483  LYS483     -0.2867
     51  CB        -2.4360  -23.6340   23.9640 C.3   483  LYS483      0.0271
     52  CG        -3.1150  -24.8640   23.4820 C.3   483  LYS483      0.0035
     53  CD        -2.1260  -26.0290   23.4880 C.3   483  LYS483      0.0206
     54  CE        -1.0920  -25.9130   22.3890 C.3   483  LYS483      0.1093
     55  NZ        -0.4950  -27.2640   22.1330 N.3   483  LYS483     -0.1314
     56  N          1.1310  -22.7760   15.3430 N.3   555  LEU555     -0.1231
     57  CA         2.5240  -23.1560   15.3490 C.3   555  LEU555      0.1693
     58  C          2.7120  -24.6620   15.2250 C.2   555  LEU555      0.2592
     59  O          2.0180  -25.4460   15.8910 O.2   555  LEU555     -0.2718
     60  CB         3.1710  -22.6920   16.6950 C.3   555  LEU555      0.0284
     61  CG         4.5860  -23.1780   16.9870 C.3   555  LEU555      0.0019
     62  CD1        5.5580  -22.6020   16.0010 C.3   555  LEU555      0.0001
     63  CD2        4.9650  -22.7050   18.4180 C.3   555  LEU555      0.0001
     64  N          3.6680  -25.0750   14.3950 N.am  556  ALA556     -0.1966
     65  CA         4.0340  -26.4780   14.3130 C.3   556  ALA556      0.1728
     66  C          5.5270  -26.5630   14.0790 C.2   556  ALA556      0.2616
     67  O          6.0690  -25.7580   13.3530 O.2   556  ALA556     -0.2715
     68  CB         3.3070  -27.1900   13.1440 C.3   556  ALA556      0.0334
     69  N          6.1640  -27.5260   14.7390 N.am  557  ILE557     -0.1977
     70  CA         7.5800  -27.8410   14.5380 C.3   557  ILE557      0.1596
     71  C          7.4840  -29.1800   13.8080 C.2   557  ILE557      0.2287
     72  O          6.9170  -30.1430   14.3250 O.2   557  ILE557     -0.2864
     73  CB         8.3460  -28.0150   15.8930 C.3   557  ILE557      0.0276
     74  CG1        8.3060  -26.7230   16.6970 C.3   557  ILE557      0.0022
     75  CG2        9.8240  -28.3540   15.6080 C.3   557  ILE557      0.0022
     76  CD1        8.8910  -25.4830   15.9700 C.3   557  ILE557      0.0001
@<TRIPOS>BOND
     1    68    65    1
     2    67    66    2
     3    71    72    2
     4    71    70    1
     5    66    65    1
     6    66    69   am
     7    65    64    1
     8    64    58   am
     9    70    69    1
    10    70    73    1
    11    58    57    1
    12    58    59    2
    13    56    57    1
    14    57    60    1
    15    75    73    1
    16    73    74    1
    17    76    74    1
    18    62    61    1
    19    12    11    1
    20    60    61    1
    21    61    63    1
    22    11    10   ar
    23    11     9   ar
    24    10     8   ar
    25     9     7   ar
    26     8     6   ar
    27     7     6   ar
    28     6     5    1
    29    20    18   am
    30     5     2    1
    31    19    18    2
    32    18    17    1
    33    25    26    1
    34    25    22    1
    35     2     1    1
    36     2     3    1
    37    17    14    1
    38     3    13   am
    39     3     4    2
    40    13    14    1
    41    22    21    1
    42    22    23    1
    43    46    43    1
    44    14    15    1
    45    55    54    1
    46    24    23    2
    47    54    53    1
    48    23    27   am
    49    43    42    1
    50    43    44    1
    51    15    16    2
    52    52    53    1
    53    52    51    1
    54    27    28    1
    55    51    48    1
    56    48    47    1
    57    48    49    1
    58    45    44    2
    59    32    31    1
    60    40    39   ar
    61    28    31    1
    62    28    29    1
    63    49    50    2
    64    38    39    1
    65    38    37    1
    66    29    30    2
    67    29    33   am
    68    39    41   ar
    69    33    34    1
    70    34    37    1
    71    34    35    1
    72    35    36    2
