@<TRIPOS>MOLECULE
tmp/3vsvC00.pdb
 143 142 0 0 0
SMALL
GASTEIGER

@<TRIPOS>ATOM
      1  N         66.0410  -37.5590   40.5910 N.3   113  TRP113     -0.1241
      2  CA        67.1710  -37.6930   41.5180 C.3   113  TRP113      0.1605
      3  C         67.6240  -39.1250   41.8280 C.2   113  TRP113      0.2264
      4  O         68.4350  -39.3220   42.7290 O.2   113  TRP113     -0.2867
      5  CB        66.9280  -36.9000   42.8040 C.3   113  TRP113      0.0550
      6  CG        66.9910  -35.4140   42.5530 C.ar  113  TRP113      0.0003
      7  CD1       68.1080  -34.6510   42.2750 C.ar  113  TRP113      0.0946
      8  CD2       65.8790  -34.5170   42.5390 C.ar  113  TRP113      0.0152
      9  NE1       67.7460  -33.3400   42.0930 N.ar  113  TRP113     -0.2442
     10  CE2       66.3870  -33.2210   42.2620 C.ar  113  TRP113      0.0810
     11  CE3       64.5000  -34.6820   42.7400 C.ar  113  TRP113      0.0012
     12  CZ2       65.5490  -32.0790   42.1900 C.ar  113  TRP113      0.0191
     13  CZ3       63.6780  -33.5500   42.6730 C.ar  113  TRP113      0.0001
     14  CH2       64.2190  -32.2650   42.4020 C.ar  113  TRP113      0.0015
     15  N         60.5320  -35.4290   45.8360 N.3   233  PRO233     -0.2116
     16  CA        59.5710  -34.3570   46.1360 C.3   233  PRO233      0.1372
     17  C         58.7310  -33.9180   44.9630 C.2   233  PRO233      0.2244
     18  O         57.7250  -33.2230   45.1500 O.2   233  PRO233     -0.2868
     19  CB        60.4520  -33.2020   46.6240 C.3   233  PRO233      0.0268
     20  CG        61.7450  -33.4130   45.8690 C.3   233  PRO233      0.0207
     21  CD        61.9280  -34.9590   45.9030 C.3   233  PRO233      0.0892
     22  N         64.7510  -29.4050   39.9510 N.3   286  TYR286     -0.1241
     23  CA        64.7620  -28.1810   40.7540 C.3   286  TYR286      0.1605
     24  C         63.6220  -27.2500   40.3440 C.2   286  TYR286      0.2264
     25  O         62.8970  -26.6880   41.1970 O.2   286  TYR286     -0.2867
     26  CB        66.1190  -27.4610   40.5520 C.3   286  TYR286      0.0534
     27  CG        66.0840  -26.0080   40.9670 C.ar  286  TYR286     -0.0201
     28  CD1       65.8690  -25.6670   42.3100 C.ar  286  TYR286     -0.0009
     29  CD2       66.1490  -24.9870   40.0130 C.ar  286  TYR286     -0.0009
     30  CE1       65.7070  -24.3140   42.6980 C.ar  286  TYR286      0.0417
     31  CE2       65.9850  -23.6350   40.3840 C.ar  286  TYR286      0.0417
     32  CZ        65.7590  -23.3130   41.7200 C.ar  286  TYR286      0.1957
     33  OH        65.5420  -21.9830   42.0670 O.3   286  TYR286     -0.2866
     34  N         60.2310  -28.6890   41.1010 N.3   289  GLN289     -0.1245
     35  CA        59.9080  -28.7560   42.5230 C.3   289  GLN289      0.1566
     36  C         59.3780  -27.4150   43.0340 C.2   289  GLN289      0.2260
     37  O         58.4000  -27.3710   43.7690 O.2   289  GLN289     -0.2867
     38  CB        61.1520  -29.0990   43.3370 C.3   289  GLN289      0.0367
     39  CG        60.7960  -29.2440   44.8460 C.3   289  GLN289      0.0905
     40  CD        61.9600  -29.7580   45.6320 C.2   289  GLN289      0.2608
     41  OE1       62.8770  -30.3910   45.0610 O.2   289  GLN289     -0.2717
     42  NE2       61.9350  -29.5230   46.9450 N.am  289  GLN289     -0.0878
     43  N         69.3640  -38.9740   45.4840 N.3   352  HIS352     -0.1226
     44  CA        69.3210  -37.9110   46.4850 C.3   352  HIS352      0.1752
     45  C         68.0520  -37.7740   47.2830 C.2   352  HIS352      0.2595
     46  O         67.5820  -36.6680   47.5220 O.2   352  HIS352     -0.2718
     47  CB        69.6640  -36.5550   45.8080 C.3   352  HIS352      0.0759
     48  CG        71.0850  -36.4630   45.3420 C.ar  352  HIS352      0.0818
     49  ND1       72.1450  -36.9370   46.0840 N.ar  352  HIS352     -0.2268
     50  CD2       71.6160  -35.9600   44.2000 C.ar  352  HIS352      0.1154
     51  CE1       73.2750  -36.7310   45.4180 C.ar  352  HIS352      0.1986
     52  NE2       72.9810  -36.1420   44.2730 N.ar  352  HIS352     -0.2212
     53  N         67.4940  -38.9190   47.6780 N.am  353  GLU353     -0.1979
     54  CA        66.2790  -38.9070   48.4910 C.3   353  GLU353      0.1602
     55  C         66.3730  -39.8220   49.6920 C.2   353  GLU353      0.2287
     56  O         65.3880  -40.0310   50.4000 O.2   353  GLU353     -0.2864
     57  CB        65.0680  -39.3100   47.6500 C.3   353  GLU353      0.0415
     58  CG        64.8970  -38.4550   46.4190 C.3   353  GLU353      0.1163
     59  CD        64.6630  -36.9690   46.7360 C.2   353  GLU353      0.3649
     60  OE1       64.3040  -36.6170   47.8840 O.co2 353  GLU353     -0.2457
     61  OE2       64.8720  -36.1580   45.8000 O.co2 353  GLU353     -0.2457
     62  N         63.5400  -37.9840   55.8350 N.3   358  LYS358     -0.1245
     63  CA        63.7370  -36.8950   54.8780 C.3   358  LYS358      0.1561
     64  C         62.4290  -36.1410   54.7030 C.2   358  LYS358      0.2260
     65  O         61.4070  -36.7550   54.3460 O.2   358  LYS358     -0.2867
     66  CB        64.2000  -37.3640   53.4930 C.3   358  LYS358      0.0271
     67  CG        64.4880  -36.1030   52.6160 C.3   358  LYS358      0.0035
     68  CD        65.2210  -36.3530   51.2780 C.3   358  LYS358      0.0206
     69  CE        65.6720  -35.0060   50.7170 C.3   358  LYS358      0.1093
     70  NZ        66.2150  -35.1220   49.3190 N.3   358  LYS358     -0.1314
     71  N         60.7850  -32.4340   53.0450 N.3   360  HIS360     -0.1241
     72  CA        60.9100  -31.1720   52.2900 C.3   360  HIS360      0.1621
     73  C         59.7470  -30.3140   52.7650 C.2   360  HIS360      0.2264
     74  O         58.6130  -30.8090   52.8980 O.2   360  HIS360     -0.2867
     75  CB        60.7510  -31.3580   50.7640 C.3   360  HIS360      0.0745
     76  CG        61.7490  -32.2680   50.1270 C.ar  360  HIS360      0.0817
     77  ND1       61.5880  -33.6450   50.1120 N.ar  360  HIS360     -0.2268
     78  CD2       62.8570  -32.0080   49.3890 C.ar  360  HIS360      0.1154
     79  CE1       62.5480  -34.1910   49.3780 C.ar  360  HIS360      0.1986
     80  NE2       63.3340  -33.2170   48.9270 N.ar  360  HIS360     -0.2212
     81  N         67.4330  -35.5880   56.9510 N.3   380  TRP380     -0.1241
     82  CA        67.6930  -34.6540   55.8710 C.3   380  TRP380      0.1605
     83  C         66.4910  -33.7130   55.7710 C.2   380  TRP380      0.2264
     84  O         65.3630  -34.1700   55.4970 O.2   380  TRP380     -0.2867
     85  CB        67.8410  -35.4320   54.5430 C.3   380  TRP380      0.0550
     86  CG        68.3630  -34.6760   53.3340 C.ar  380  TRP380      0.0003
     87  CD1       68.5120  -33.3210   53.1750 C.ar  380  TRP380      0.0946
     88  CD2       68.8020  -35.2820   52.1190 C.ar  380  TRP380      0.0152
     89  NE1       69.0080  -33.0500   51.9260 N.ar  380  TRP380     -0.2442
     90  CE2       69.2110  -34.2350   51.2500 C.ar  380  TRP380      0.0810
     91  CE3       68.8820  -36.6130   51.6760 C.ar  380  TRP380      0.0012
     92  CZ2       69.7140  -34.4860   49.9540 C.ar  380  TRP380      0.0191
     93  CZ3       69.3530  -36.8620   50.4040 C.ar  380  TRP380      0.0001
     94  CH2       69.7710  -35.8130   49.5510 C.ar  380  TRP380      0.0015
     95  N         65.1970  -30.6910   53.6120 N.3   382  ASP382     -0.1225
     96  CA        65.5730  -30.2200   52.2670 C.3   382  ASP382      0.1805
     97  C         64.4780  -29.2820   51.7600 C.2   382  ASP382      0.2597
     98  O         63.4030  -29.7160   51.3930 O.2   382  ASP382     -0.2718
     99  CB        65.6890  -31.4970   51.4050 C.3   382  ASP382      0.1424
    100  CG        66.4040  -31.2890   50.0940 C.2   382  ASP382      0.3668
    101  OD1       66.8830  -30.1550   49.8200 O.co2 382  ASP382     -0.2456
    102  OD2       66.5000  -32.3040   49.3300 O.co2 382  ASP382     -0.2456
    103  N         64.8120  -27.9930   51.6930 N.am  383  TRP383     -0.1976
    104  CA        63.9110  -26.8770   51.3530 C.3   383  TRP383      0.1640
    105  C         62.9510  -26.5510   52.4740 C.2   383  TRP383      0.2290
    106  O         62.3980  -27.4320   53.1400 O.2   383  TRP383     -0.2864
    107  CB        62.9880  -27.1040   50.1170 C.3   383  TRP383      0.0576
    108  CG        63.6820  -27.3130   48.8040 C.ar  383  TRP383      0.0006
    109  CD1       64.6660  -28.2070   48.5260 C.ar  383  TRP383      0.0946
    110  CD2       63.3230  -26.6850   47.5610 C.ar  383  TRP383      0.0152
    111  NE1       64.9520  -28.1790   47.1710 N.ar  383  TRP383     -0.2442
    112  CE2       64.1270  -27.2660   46.5570 C.ar  383  TRP383      0.0810
    113  CE3       62.3760  -25.6990   47.1990 C.ar  383  TRP383      0.0012
    114  CZ2       64.0260  -26.9060   45.1970 C.ar  383  TRP383      0.0191
    115  CZ3       62.2700  -25.3330   45.8550 C.ar  383  TRP383      0.0001
    116  CH2       63.0950  -25.9390   44.8610 C.ar  383  TRP383      0.0015
    117  N         69.4180  -28.5960   54.0200 N.3   405  GLU405     -0.1231
    118  CA        69.7470  -28.0950   52.6750 C.3   405  GLU405      0.1699
    119  C         68.7880  -27.0390   52.1320 C.2   405  GLU405      0.2592
    120  O         67.5620  -27.1460   52.3040 O.2   405  GLU405     -0.2718
    121  CB        69.7450  -29.2910   51.7210 C.3   405  GLU405      0.0402
    122  CG        70.3990  -28.9700   50.3460 C.3   405  GLU405      0.1161
    123  CD        70.4270  -30.1520   49.3980 C.2   405  GLU405      0.3649
    124  OE1       70.0140  -31.2650   49.7900 O.co2 405  GLU405     -0.2457
    125  OE2       70.8530  -29.9920   48.2180 O.co2 405  GLU405     -0.2457
    126  N         69.3730  -26.0510   51.4610 N.am  406  VAL406     -0.1980
    127  CA        68.6620  -24.9240   50.8120 C.3   406  VAL406      0.1595
    128  C         67.4950  -24.3600   51.5750 C.2   406  VAL406      0.2287
    129  O         66.4220  -24.0520   51.0070 O.2   406  VAL406     -0.2864
    130  CB        68.2760  -25.2180   49.3110 C.3   406  VAL406      0.0276
    131  CG1       69.5720  -25.3500   48.4800 C.3   406  VAL406      0.0022
    132  CG2       67.4110  -26.4940   49.1610 C.3   406  VAL406      0.0022
    133  N         70.4960  -21.9810   43.1690 N.3   450  ARG450     -0.1245
    134  CA        69.1470  -22.4780   43.4230 C.3   450  ARG450      0.1563
    135  C         68.5150  -21.5690   44.4520 C.2   450  ARG450      0.2260
    136  O         69.0800  -21.3530   45.5590 O.2   450  ARG450     -0.2867
    137  CB        69.1500  -23.9120   43.9660 C.3   450  ARG450      0.0307
    138  CG        69.5090  -24.9750   42.9140 C.3   450  ARG450      0.0489
    139  CD        69.3200  -26.3700   43.4860 C.3   450  ARG450      0.2205
    140  NE        70.3680  -26.7140   44.4470 N.pl3 450  ARG450     -0.0865
    141  CZ        70.1520  -27.5110   45.4840 C.cat 450  ARG450      0.5346
    142  NH1       68.9280  -28.0310   45.6650 N.pl3 450  ARG450      0.1354
    143  NH2       71.1420  -27.7610   46.3430 N.pl3 450  ARG450      0.1354
@<TRIPOS>BOND
     1    22    23    1
     2    29    31   ar
     3    29    27   ar
     4    24    23    1
     5    24    25    2
     6    31    32   ar
     7    26    23    1
     8    26    27    1
     9     1     2    1
    10    27    28   ar
    11    34    35    1
    12     2     3    1
    13     2     5    1
    14    32    33    1
    15    32    30   ar
    16     3     4    2
    17     9    10   ar
    18     9     7   ar
    19    12    10   ar
    20    12    14   ar
    21    10     8   ar
    22     7     6   ar
    23    28    30   ar
    24    14    13   ar
    25    35    36    1
    26    35    38    1
    27     8     6   ar
    28     8    11   ar
    29     6     5    1
    30    13    11   ar
    31   138   139    1
    32   138   137    1
    33    36    37    2
    34   133   134    1
    35    38    39    1
    36   134   137    1
    37   134   135    1
    38   139   140    1
    39    50    52   ar
    40    50    48   ar
    41    52    51   ar
    42   140   141    2
    43   135   136    2
    44    39    40    1
    45   116   114   ar
    46   116   115   ar
    47    17    18    2
    48    17    16    1
    49    41    40    2
    50   114   112   ar
    51    48    47    1
    52    48    49   ar
    53    51    49   ar
    54   141   142    1
    55   141   143    1
    56    43    44    1
    57    40    42   am
    58    61    59   ar
    59    47    44    1
    60    15    21    1
    61    15    16    1
    62   115   113   ar
    63    20    21    1
    64    20    19    1
    65    16    19    1
    66    58    59    1
    67    58    57    1
    68    44    45    1
    69   112   111   ar
    70   112   110   ar
    71    59    60   ar
    72   111   109   ar
    73   113   110   ar
    74    45    46    2
    75    45    53   am
    76   110   108   ar
    77    57    54    1
    78    53    54    1
    79   125   123   ar
    80   131   130    1
    81    54    55    1
    82   109   108   ar
    83   108   107    1
    84    80    79   ar
    85    80    78   ar
    86   132   130    1
    87   130   127    1
    88    70    69    1
    89   102   100   ar
    90    79    77   ar
    91    78    76   ar
    92   123   124   ar
    93   123   122    1
    94    94    92   ar
    95    94    93   ar
    96    55    56    2
    97   101   100   ar
    98    92    90   ar
    99   100    99    1
   100    77    76   ar
   101   107   104    1
   102    76    75    1
   103   122   121    1
   104    93    91   ar
   105    69    68    1
   106    75    72    1
   107   127   126    1
   108   127   128    1
   109   129   128    2
   110    90    89   ar
   111    90    88   ar
   112    68    67    1
   113   104   103    1
   114   104   105    1
   115    98    97    2
   116    99    96    1
   117   126   119   am
   118    91    88   ar
   119   103    97   am
   120   121   118    1
   121    97    96    1
   122    89    87   ar
   123    88    86   ar
   124   119   120    2
   125   119   118    1
   126    96    95    1
   127    72    73    1
   128    72    71    1
   129   105   106    2
   130    67    66    1
   131   118   117    1
   132    73    74    2
   133    87    86   ar
   134    86    85    1
   135    66    63    1
   136    65    64    2
   137    85    82    1
   138    64    63    1
   139    63    62    1
   140    84    83    2
   141    83    82    1
   142    82    81    1
