@<TRIPOS>MOLECULE
tmp/3vszF01.pdb
 129 123 0 0 0
SMALL
GASTEIGER

@<TRIPOS>ATOM
      1  N         15.5480   -9.9000  194.3640 N.3    37  GLU37      -0.1245
      2  CA        14.8790   -9.1770  193.2870 C.3    37  GLU37       0.1567
      3  C         14.9200   -7.6710  193.5210 C.2    37  GLU37       0.2260
      4  O         14.9110   -7.2020  194.6570 O.2    37  GLU37      -0.2867
      5  CB        13.4190   -9.6230  193.1560 C.3    37  GLU37       0.0388
      6  CG        13.2150  -11.1230  192.9990 C.3    37  GLU37       0.1160
      7  CD        11.7480  -11.5180  193.0700 C.2    37  GLU37       0.3649
      8  OE1       10.8900  -10.6690  192.7480 O.co2  37  GLU37      -0.2457
      9  OE2       11.4520  -12.6720  193.4530 O.co2  37  GLU37      -0.2457
     10  N         12.7330   -4.6960  191.6500 N.3    39  ARG39      -0.1245
     11  CA        11.7110   -4.4180  190.6470 C.3    39  ARG39       0.1563
     12  C         11.2460   -2.9630  190.6500 C.2    39  ARG39       0.2260
     13  O         11.4050   -2.2570  191.6430 O.2    39  ARG39      -0.2867
     14  CB        10.5200   -5.3500  190.8780 C.3    39  ARG39       0.0307
     15  CG        10.9050   -6.8160  190.9790 C.3    39  ARG39       0.0489
     16  CD         9.8130   -7.6320  191.6500 C.3    39  ARG39       0.2205
     17  NE         8.6870   -7.8960  190.7600 N.pl3  39  ARG39      -0.0865
     18  CZ         8.2210   -9.1110  190.4910 C.cat  39  ARG39       0.5346
     19  NH1        8.7800  -10.1770  191.0480 N.pl3  39  ARG39       0.1354
     20  NH2        7.1900   -9.2600  189.6700 N.pl3  39  ARG39       0.1354
     21  N         12.4350  -13.8410  189.1400 N.3    80  GLU80      -0.1231
     22  CA        12.0110  -14.1230  190.5080 C.3    80  GLU80       0.1699
     23  C         12.9110  -15.1100  191.2440 C.2    80  GLU80       0.2592
     24  O         13.4110  -16.0700  190.6600 O.2    80  GLU80      -0.2718
     25  CB        10.5740  -14.6410  190.5300 C.3    80  GLU80       0.0402
     26  CG         9.5400  -13.6180  190.1180 C.3    80  GLU80       0.1161
     27  CD         8.1250  -14.1130  190.3230 C.2    80  GLU80       0.3649
     28  OE1        7.9460  -15.3220  190.5840 O.co2  80  GLU80      -0.2457
     29  OE2        7.1930  -13.2900  190.2200 O.co2  80  GLU80      -0.2457
     30  N         13.1120  -14.8580  192.5330 N.am   81  ARG81      -0.1980
     31  CA        13.8400  -15.7790  193.3980 C.3    81  ARG81       0.1597
     32  C         15.2220  -16.1560  192.8790 C.2    81  ARG81       0.2287
     33  O         15.5250  -17.3370  192.7150 O.2    81  ARG81      -0.2864
     34  CB        13.0030  -17.0340  193.6470 C.3    81  ARG81       0.0334
     35  CG        11.6430  -16.7220  194.2370 C.3    81  ARG81       0.0492
     36  CD        10.8680  -17.9710  194.5940 C.3    81  ARG81       0.2205
     37  NE         9.6120  -17.6280  195.2510 N.pl3  81  ARG81      -0.0865
     38  CZ         9.4890  -17.4100  196.5550 C.cat  81  ARG81       0.5346
     39  NH1       10.5500  -17.5010  197.3460 N.pl3  81  ARG81       0.1354
     40  NH2        8.3070  -17.0990  197.0690 N.pl3  81  ARG81       0.1354
     41  N          2.7950  -15.5890  183.8620 N.3   105  TYR105     -0.1241
     42  CA         3.6680  -16.6600  184.3270 C.3   105  TYR105      0.1605
     43  C          3.5210  -17.8980  183.4470 C.2   105  TYR105      0.2264
     44  O          3.7620  -19.0230  183.8870 O.2   105  TYR105     -0.2867
     45  CB         3.3400  -17.0080  185.7810 C.3   105  TYR105      0.0534
     46  CG         3.6930  -15.9100  186.7610 C.ar  105  TYR105     -0.0201
     47  CD1        4.8390  -15.9850  187.5430 C.ar  105  TYR105     -0.0009
     48  CD2        2.8800  -14.7910  186.8970 C.ar  105  TYR105     -0.0009
     49  CE1        5.1630  -14.9770  188.4360 C.ar  105  TYR105      0.0417
     50  CE2        3.1950  -13.7800  187.7850 C.ar  105  TYR105      0.0417
     51  CZ         4.3360  -13.8770  188.5510 C.ar  105  TYR105      0.1957
     52  OH         4.6470  -12.8680  189.4330 O.3   105  TYR105     -0.2866
     53  N          8.8720  -21.1850  190.7950 N.3   148  ASP148     -0.1239
     54  CA         9.5180  -21.0070  192.0910 C.3   148  ASP148      0.1674
     55  C         10.6940  -21.9750  192.2000 C.2   148  ASP148      0.2266
     56  O         10.5220  -23.1910  192.1200 O.2   148  ASP148     -0.2867
     57  CB         8.5130  -21.2210  193.2210 C.3   148  ASP148      0.1410
     58  CG         7.7400  -19.9570  193.5550 C.2   148  ASP148      0.3668
     59  OD1        7.4220  -19.1860  192.6230 O.co2 148  ASP148     -0.2456
     60  OD2        7.4400  -19.7370  194.7470 O.co2 148  ASP148     -0.2456
     61  N          5.1090  -24.8800  197.0870 N.3   197  GLU197     -0.1245
     62  CA         5.7790  -23.7870  196.3730 C.3   197  GLU197      0.1567
     63  C          6.9230  -23.2110  197.2090 C.2   197  GLU197      0.2260
     64  O          7.1410  -23.6280  198.3460 O.2   197  GLU197     -0.2867
     65  CB         4.8180  -22.6560  195.9850 C.3   197  GLU197      0.0388
     66  CG         5.1210  -22.0510  194.6120 C.3   197  GLU197      0.1160
     67  CD         4.0030  -21.1740  194.0750 C.2   197  GLU197      0.3649
     68  OE1        4.1490  -20.6450  192.9520 O.co2 197  GLU197     -0.2457
     69  OE2        2.9900  -20.9970  194.7820 O.co2 197  GLU197     -0.2457
     70  N          2.4510  -22.9340  200.4060 N.3   214  GLY214     -0.1225
     71  CA         1.3280  -23.2760  199.5510 C.3   214  GLY214      0.1811
     72  C          1.2500  -22.4070  198.3100 C.2   214  GLY214      0.2280
     73  O          2.1220  -21.5720  198.0690 O.2   214  GLY214     -0.2866
     74  N         -1.0150  -19.7620  197.1710 N.3   216  THR216     -0.1203
     75  CA        -2.0960  -18.8280  197.4500 C.3   216  THR216      0.1994
     76  C         -1.7350  -17.4190  196.9930 C.2   216  THR216      0.2618
     77  O         -2.1350  -16.4330  197.6120 O.2   216  THR216     -0.2717
     78  CB        -2.4460  -18.8150  198.9530 C.3   216  THR216      0.1784
     79  OG1       -1.2810  -18.4720  199.7120 O.3   216  THR216     -0.2211
     80  CG2       -2.9410  -20.1840  199.3980 C.3   216  THR216      0.0376
     81  N         -0.9740  -17.3340  195.9060 N.am  217  GLY217     -0.1942
     82  CA        -0.5640  -16.0540  195.3580 C.3   217  GLY217      0.2014
     83  C          0.3620  -15.3140  196.3030 C.2   217  GLY217      0.2638
     84  O          1.2390  -15.9140  196.9250 O.2   217  GLY217     -0.2714
     85  N          0.1690  -14.0030  196.4050 N.am  218  TRP218     -0.1973
     86  CA         0.9650  -13.1770  197.3050 C.3   218  TRP218      0.1640
     87  C          0.5980  -13.4630  198.7600 C.2   218  TRP218      0.2290
     88  O          1.4480  -13.4110  199.6490 O.2   218  TRP218     -0.2864
     89  CB         0.7660  -11.6920  196.9950 C.3   218  TRP218      0.0576
     90  CG         1.3000  -11.2890  195.6520 C.ar  218  TRP218      0.0006
     91  CD1        0.5940  -10.7580  194.6130 C.ar  218  TRP218      0.0946
     92  CD2        2.6560  -11.3960  195.2010 C.ar  218  TRP218      0.0152
     93  NE1        1.4270  -10.5220  193.5460 N.ar  218  TRP218     -0.2442
     94  CE2        2.6980  -10.9060  193.8820 C.ar  218  TRP218      0.0810
     95  CE3        3.8400  -11.8560  195.7870 C.ar  218  TRP218      0.0012
     96  CZ2        3.8760  -10.8620  193.1390 C.ar  218  TRP218      0.0191
     97  CZ3        5.0070  -11.8130  195.0480 C.ar  218  TRP218      0.0001
     98  CH2        5.0160  -11.3200  193.7380 C.ar  218  TRP218      0.0015
     99  N          0.5740  -18.2580  203.6120 N.3   221  ASN221     -0.1240
    100  CA        -0.1270  -19.4940  203.9410 C.3   221  ASN221      0.1653
    101  C          0.6790  -20.3890  204.8760 C.2   221  ASN221      0.2266
    102  O          1.7850  -20.0360  205.2830 O.2   221  ASN221     -0.2867
    103  CB        -0.4710  -20.2530  202.6610 C.3   221  ASN221      0.1155
    104  CG         0.7480  -20.5250  201.8030 C.2   221  ASN221      0.2627
    105  OD1        1.8270  -20.8280  202.3140 O.2   221  ASN221     -0.2716
    106  ND2        0.5870  -20.4040  200.4910 N.am  221  ASN221     -0.0877
    107  N          6.5670  -15.6600  203.4890 N.3   250  GLN250     -0.1245
    108  CA         6.7520  -16.8120  202.6200 C.3   250  GLN250      0.1566
    109  C          8.2230  -17.2070  202.5640 C.2   250  GLN250      0.2260
    110  O          9.0800  -16.3680  202.2890 O.2   250  GLN250     -0.2867
    111  CB         6.2430  -16.5120  201.2110 C.3   250  GLN250      0.0367
    112  CG         6.2870  -17.7170  200.2910 C.3   250  GLN250      0.0905
    113  CD         5.7630  -17.4200  198.9010 C.2   250  GLN250      0.2608
    114  OE1        5.3940  -16.2880  198.5850 O.2   250  GLN250     -0.2717
    115  NE2        5.7250  -18.4450  198.0610 N.am  250  GLN250     -0.0878
    116  N          5.3020  -10.2040  201.3470 N.3   272  TRP272     -0.1241
    117  CA         4.9060   -9.6060  200.0780 C.3   272  TRP272      0.1605
    118  C          3.8090   -8.5620  200.2360 C.2   272  TRP272      0.2264
    119  O          2.7510   -8.8390  200.8000 O.2   272  TRP272     -0.2867
    120  CB         4.4490  -10.6850  199.0960 C.3   272  TRP272      0.0550
    121  CG         5.4860  -11.7230  198.8280 C.ar  272  TRP272      0.0003
    122  CD1        5.5120  -12.9990  199.3100 C.ar  272  TRP272      0.0946
    123  CD2        6.6710  -11.5660  198.0420 C.ar  272  TRP272      0.0152
    124  NE1        6.6290  -13.6540  198.8530 N.ar  272  TRP272     -0.2442
    125  CE2        7.3600  -12.7950  198.0760 C.ar  272  TRP272      0.0810
    126  CE3        7.2130  -10.5080  197.3050 C.ar  272  TRP272      0.0012
    127  CZ2        8.5620  -12.9940  197.4030 C.ar  272  TRP272      0.0191
    128  CZ3        8.4060  -10.7080  196.6370 C.ar  272  TRP272      0.0001
    129  CH2        9.0680  -11.9410  196.6910 C.ar  272  TRP272      0.0015
@<TRIPOS>BOND
     1    43    44    2
     2    43    42    1
     3    41    42    1
     4    42    45    1
     5    45    46    1
     6    46    48   ar
     7    46    47   ar
     8    48    50   ar
     9    47    49   ar
    10    50    51   ar
    11    49    51   ar
    12    51    52    1
    13    21    22    1
    14    20    18    1
    15    26    27    1
    16    26    25    1
    17    29    27   ar
    18    27    28   ar
    19    18    17    2
    20    18    19    1
    21    22    25    1
    22    22    23    1
    23    11    12    1
    24    11    14    1
    25    11    10    1
    26    12    13    2
    27    24    23    2
    28    17    16    1
    29    53    54    1
    30    14    15    1
    31    15    16    1
    32    23    30   am
    33    54    55    1
    34    54    57    1
    35    56    55    2
    36    30    31    1
    37    59    58   ar
    38    33    32    2
    39     8     7   ar
    40    32    31    1
    41    68    67   ar
    42     6     7    1
    43     6     5    1
    44     7     9   ar
    45    96    98   ar
    46    96    94   ar
    47     5     2    1
    48    57    58    1
    49     2     3    1
    50     2     1    1
    51    31    34    1
    52     3     4    2
    53    93    94   ar
    54    93    91   ar
    55    58    60   ar
    56    34    35    1
    57    98    97   ar
    58    94    92   ar
    59    67    66    1
    60    67    69   ar
    61    35    36    1
    62    36    37    1
    63    66    65    1
    64    91    90   ar
    65    97    95   ar
    66    92    90   ar
    67    92    95   ar
    68    37    38    2
    69    82    81    1
    70    82    83    1
    71    90    89    1
    72    81    76   am
    73    65    62    1
    74    83    85   am
    75    83    84    2
    76    62    61    1
    77    62    63    1
    78    85    86    1
    79    38    40    1
    80    38    39    1
    81   128   129   ar
    82   128   126   ar
    83   129   127   ar
    84    76    75    1
    85    76    77    2
    86    89    86    1
    87    74    75    1
    88    63    64    2
    89   126   123   ar
    90    86    87    1
    91   127   125   ar
    92    75    78    1
    93   123   125   ar
    94   123   121   ar
    95   115   113   am
    96    73    72    2
    97   125   124   ar
    98    72    71    1
    99   114   113    2
   100    87    88    2
   101   121   120    1
   102   121   122   ar
   103   124   122   ar
   104   113   112    1
   105    78    80    1
   106    78    79    1
   107   120   117    1
   108    71    70    1
   109   117   118    1
   110   117   116    1
   111   118   119    2
   112   112   111    1
   113   106   104   am
   114   111   108    1
   115   104   105    2
   116   104   103    1
   117   110   109    2
   118   109   108    1
   119   108   107    1
   120   103   100    1
   121    99   100    1
   122   100   101    1
   123   101   102    2
