@<TRIPOS>MOLECULE
tmp/3vszF00.pdb
 92 86 0 0 0
SMALL
GASTEIGER

@<TRIPOS>ATOM
      1  N          9.7000  -28.5490  224.9850 N.3   345  ASN345     -0.1225
      2  CA         8.5330  -27.8320  224.4940 C.3   345  ASN345      0.1785
      3  C          7.2580  -28.3840  225.1250 C.2   345  ASN345      0.2597
      4  O          7.1490  -29.5890  225.3560 O.2   345  ASN345     -0.2718
      5  CB         8.4720  -27.9160  222.9670 C.3   345  ASN345      0.1169
      6  CG         7.5050  -26.9180  222.3610 C.2   345  ASN345      0.2627
      7  OD1        7.2030  -25.8860  222.9600 O.2   345  ASN345     -0.2716
      8  ND2        7.0220  -27.2170  221.1600 N.am  345  ASN345     -0.0877
      9  N          6.3040  -27.5040  225.4120 N.am  346  ALA346     -0.1979
     10  CA         5.0260  -27.9210  225.9850 C.3   346  ALA346      0.1597
     11  C          5.1630  -28.5250  227.3810 C.2   346  ALA346      0.2287
     12  O          4.3270  -29.3280  227.7960 O.2   346  ALA346     -0.2864
     13  CB         4.3140  -28.8850  225.0560 C.3   346  ALA346      0.0319
     14  N          2.0940  -20.3620  227.8520 N.3   384  ASP384     -0.1239
     15  CA         1.0860  -20.6080  226.8270 C.3   384  ASP384      0.1674
     16  C         -0.1090  -21.4130  227.3350 C.2   384  ASP384      0.2266
     17  O          0.0540  -22.3750  228.0850 O.2   384  ASP384     -0.2867
     18  CB         1.7160  -21.3280  225.6350 C.3   384  ASP384      0.1410
     19  CG         0.6900  -21.7670  224.6160 C.2   384  ASP384      0.3668
     20  OD1        0.4720  -22.9880  224.4710 O.co2 384  ASP384     -0.2456
     21  OD2        0.0880  -20.8840  223.9720 O.co2 384  ASP384     -0.2456
     22  N         -2.4430  -24.1360  226.7140 N.3   386  LYS386     -0.1231
     23  CA        -2.4490  -25.3320  225.8730 C.3   386  LYS386      0.1693
     24  C         -3.6400  -25.4120  224.9160 C.2   386  LYS386      0.2592
     25  O         -4.7930  -25.2910  225.3290 O.2   386  LYS386     -0.2718
     26  CB        -2.4040  -26.5910  226.7420 C.3   386  LYS386      0.0285
     27  CG        -2.1710  -27.8750  225.9640 C.3   386  LYS386      0.0035
     28  CD        -2.2940  -29.0950  226.8640 C.3   386  LYS386      0.0206
     29  CE        -1.9400  -30.3720  226.1200 C.3   386  LYS386      0.1093
     30  NZ        -0.5000  -30.4240  225.7470 N.3   386  LYS386     -0.1314
     31  N         -3.3410  -25.6130  223.6360 N.am  387  ASP387     -0.1960
     32  CA        -4.3670  -25.8090  222.6130 C.3   387  ASP387      0.1840
     33  C         -5.3400  -24.6410  222.4820 C.2   387  ASP387      0.2621
     34  O         -6.4970  -24.8300  222.1040 O.2   387  ASP387     -0.2715
     35  CB        -5.1470  -27.0990  222.8810 C.3   387  ASP387      0.1450
     36  CG        -4.2610  -28.3340  222.8680 C.2   387  ASP387      0.3671
     37  OD1       -3.3060  -28.3750  222.0620 O.co2 387  ASP387     -0.2456
     38  OD2       -4.5180  -29.2630  223.6630 O.co2 387  ASP387     -0.2456
     39  N         -4.8690  -23.4380  222.7870 N.am  388  GLU388     -0.1977
     40  CA        -5.7080  -22.2510  222.7010 C.3   388  GLU388      0.1602
     41  C         -7.0590  -22.5240  223.3480 C.2   388  GLU388      0.2287
     42  O         -8.1010  -22.1360  222.8190 O.2   388  GLU388     -0.2864
     43  CB        -5.8700  -21.8600  221.2300 C.3   388  GLU388      0.0415
     44  CG        -4.5500  -21.6990  220.4990 C.3   388  GLU388      0.1163
     45  CD        -4.7080  -21.2090  219.0710 C.2   388  GLU388      0.3649
     46  OE1       -3.7760  -21.4230  218.2660 O.co2 388  GLU388     -0.2457
     47  OE2       -5.7560  -20.6150  218.7450 O.co2 388  GLU388     -0.2457
     48  N          1.1510  -24.4120  229.7640 N.3   397  ILE397     -0.1245
     49  CA         2.4490  -24.9780  229.4200 C.3   397  ILE397      0.1561
     50  C          3.3690  -23.8960  228.8640 C.2   397  ILE397      0.2260
     51  O          2.9290  -22.7830  228.5820 O.2   397  ILE397     -0.2867
     52  CB         2.3090  -26.0840  228.3590 C.3   397  ILE397      0.0252
     53  CG1        1.7670  -25.4930  227.0550 C.3   397  ILE397      0.0019
     54  CG2        1.4020  -27.1970  228.8550 C.3   397  ILE397      0.0019
     55  CD1        1.5880  -26.5060  225.9500 C.3   397  ILE397      0.0001
     56  N          5.3940  -22.9390  225.6470 N.3   399  TYR399     -0.1241
     57  CA         5.4270  -23.3320  224.2460 C.3   399  TYR399      0.1605
     58  C          6.1920  -22.3050  223.4150 C.2   399  TYR399      0.2264
     59  O          6.3620  -21.1610  223.8340 O.2   399  TYR399     -0.2867
     60  CB         4.0030  -23.5070  223.7200 C.3   399  TYR399      0.0534
     61  CG         3.9120  -24.3610  222.4810 C.ar  399  TYR399     -0.0201
     62  CD1        4.0430  -25.7400  222.5660 C.ar  399  TYR399     -0.0009
     63  CD2        3.6810  -23.8010  221.2340 C.ar  399  TYR399     -0.0009
     64  CE1        3.9580  -26.5360  221.4470 C.ar  399  TYR399      0.0417
     65  CE2        3.5920  -24.5930  220.1040 C.ar  399  TYR399      0.0417
     66  CZ         3.7300  -25.9600  220.2190 C.ar  399  TYR399      0.1957
     67  OH         3.6450  -26.7600  219.1030 O.3   399  TYR399     -0.2866
     68  N          4.6860  -17.9760  219.0450 N.3   402  ASN402     -0.1240
     69  CA         4.0510  -17.9890  217.7310 C.3   402  ASN402      0.1653
     70  C          3.0920  -16.8180  217.5090 C.2   402  ASN402      0.2266
     71  O          2.3220  -16.8130  216.5480 O.2   402  ASN402     -0.2867
     72  CB         3.3410  -19.3160  217.4700 C.3   402  ASN402      0.1155
     73  CG         2.3570  -19.6760  218.5480 C.2   402  ASN402      0.2627
     74  OD1        1.8460  -18.8160  219.2650 O.2   402  ASN402     -0.2716
     75  ND2        2.0840  -20.9640  218.6710 N.am  402  ASN402     -0.0877
     76  N         -3.0780  -16.6590  222.8980 N.3   406  ASN406     -0.1225
     77  CA        -2.9990  -17.5460  224.0570 C.3   406  ASN406      0.1785
     78  C         -1.6080  -17.5140  224.6920 C.2   406  ASN406      0.2597
     79  O         -1.2920  -18.3230  225.5640 O.2   406  ASN406     -0.2718
     80  CB        -3.4020  -18.9810  223.7070 C.3   406  ASN406      0.1169
     81  CG        -2.5450  -19.5860  222.6200 C.2   406  ASN406      0.2627
     82  OD1       -2.1140  -18.9020  221.6930 O.2   406  ASN406     -0.2716
     83  ND2       -2.2980  -20.8860  222.7260 N.am  406  ASN406     -0.0877
     84  N         -0.7860  -16.5680  224.2470 N.am  407  GLN407     -0.1979
     85  CA         0.5440  -16.3610  224.8140 C.3   407  GLN407      0.1601
     86  C          0.7200  -14.9150  225.2710 C.2   407  GLN407      0.2287
     87  O          1.7990  -14.5160  225.7130 O.2   407  GLN407     -0.2864
     88  CB         1.6340  -16.7320  223.8030 C.3   407  GLN407      0.0394
     89  CG         1.7150  -18.2160  223.4730 C.3   407  GLN407      0.0908
     90  CD         2.8590  -18.5390  222.5270 C.2   407  GLN407      0.2608
     91  OE1        3.4930  -17.6400  221.9740 O.2   407  GLN407     -0.2717
     92  NE2        3.1300  -19.8260  222.3400 N.am  407  GLN407     -0.0878
@<TRIPOS>BOND
     1    71    70    2
     2    72    69    1
     3    72    73    1
     4    70    69    1
     5    69    68    1
     6    46    45   ar
     7    73    75   am
     8    73    74    2
     9    47    45   ar
    10    45    44    1
    11    67    66    1
    12    65    66   ar
    13    65    63   ar
    14    66    64   ar
    15    44    43    1
    16     8     6   am
    17    43    40    1
    18    63    61   ar
    19    64    62   ar
    20    82    81    2
    21    91    90    2
    22    37    36   ar
    23    34    33    2
    24    92    90   am
    25     6     7    2
    26     6     5    1
    27    61    62   ar
    28    61    60    1
    29    33    32    1
    30    33    39   am
    31    90    89    1
    32    32    35    1
    33    32    31    1
    34    81    83   am
    35    81    80    1
    36    40    39    1
    37    40    41    1
    38    42    41    2
    39    36    35    1
    40    36    38   ar
    41    76    77    1
    42     5     2    1
    43    58    59    2
    44    58    57    1
    45    89    88    1
    46    31    24   am
    47    80    77    1
    48    60    57    1
    49    88    85    1
    50    21    19   ar
    51    77    78    1
    52    57    56    1
    53    84    78   am
    54    84    85    1
    55    20    19   ar
    56     2     1    1
    57     2     3    1
    58    19    18    1
    59    78    79    2
    60    85    86    1
    61    24    25    2
    62    24    23    1
    63    13    10    1
    64     3     4    2
    65     3     9   am
    66    86    87    2
    67     9    10    1
    68    18    15    1
    69    30    29    1
    70    23    22    1
    71    23    26    1
    72    55    53    1
    73    27    26    1
    74    27    28    1
    75    10    11    1
    76    29    28    1
    77    15    16    1
    78    15    14    1
    79    53    52    1
    80    16    17    2
    81    11    12    2
    82    52    54    1
    83    52    49    1
    84    51    50    2
    85    50    49    1
    86    49    48    1
