@<TRIPOS>MOLECULE
tmp/3vt0F00.pdb
 143 138 0 0 0
SMALL
GASTEIGER

@<TRIPOS>ATOM
      1  N         12.3070  -13.9850  189.1230 N.3    80  GLU80      -0.1231
      2  CA        11.8990  -14.2680  190.4940 C.3    80  GLU80       0.1699
      3  C         12.8130  -15.2660  191.1950 C.2    80  GLU80       0.2592
      4  O         13.2910  -16.2230  190.5890 O.2    80  GLU80      -0.2718
      5  CB        10.4560  -14.7740  190.5320 C.3    80  GLU80       0.0402
      6  CG         9.4230  -13.7370  190.1380 C.3    80  GLU80       0.1161
      7  CD         8.0030  -14.2200  190.3570 C.2    80  GLU80       0.3649
      8  OE1        7.8180  -15.4310  190.6110 O.co2  80  GLU80      -0.2457
      9  OE2        7.0730  -13.3890  190.2790 O.co2  80  GLU80      -0.2457
     10  N         13.0480  -15.0260  192.4800 N.am   81  ARG81      -0.1980
     11  CA        13.7960  -15.9470  193.3310 C.3    81  ARG81       0.1597
     12  C         15.1710  -16.3290  192.7890 C.2    81  ARG81       0.2287
     13  O         15.4700  -17.5130  192.6320 O.2    81  ARG81      -0.2864
     14  CB        12.9690  -17.2050  193.6010 C.3    81  ARG81       0.0334
     15  CG        11.6220  -16.9080  194.2220 C.3    81  ARG81       0.0492
     16  CD        10.8790  -18.1740  194.5890 C.3    81  ARG81       0.2205
     17  NE         9.6310  -17.8680  195.2790 N.pl3  81  ARG81      -0.0865
     18  CZ         9.5350  -17.6660  196.5890 C.cat  81  ARG81       0.5346
     19  NH1       10.6160  -17.7400  197.3530 N.pl3  81  ARG81       0.1354
     20  NH2        8.3590  -17.3890  197.1350 N.pl3  81  ARG81       0.1354
     21  N         14.1560  -17.8190  188.2400 N.3    98  HIS98      -0.1241
     22  CA        12.8990  -18.1380  187.5750 C.3    98  HIS98       0.1621
     23  C         12.5500  -17.0470  186.5700 C.2    98  HIS98       0.2264
     24  O         12.2680  -15.9100  186.9500 O.2    98  HIS98      -0.2867
     25  CB        11.7800  -18.2830  188.6070 C.3    98  HIS98       0.0745
     26  CG        10.4110  -18.3950  188.0090 C.ar   98  HIS98       0.0817
     27  ND1        9.2630  -18.1480  188.7300 N.ar   98  HIS98      -0.2268
     28  CD2       10.0070  -18.7310  186.7620 C.ar   98  HIS98       0.1154
     29  CE1        8.2100  -18.3220  187.9520 C.ar   98  HIS98       0.1986
     30  NE2        8.6350  -18.6770  186.7520 N.ar   98  HIS98      -0.2212
     31  N          2.6430  -15.7820  183.7950 N.3   105  TYR105     -0.1241
     32  CA         3.5490  -16.8330  184.2390 C.3   105  TYR105      0.1605
     33  C          3.4480  -18.0550  183.3310 C.2   105  TYR105      0.2264
     34  O          3.7310  -19.1770  183.7500 O.2   105  TYR105     -0.2867
     35  CB         3.2340  -17.2320  185.6830 C.3   105  TYR105      0.0534
     36  CG         3.5440  -16.1630  186.7110 C.ar  105  TYR105     -0.0201
     37  CD1        4.6900  -16.2360  187.4930 C.ar  105  TYR105     -0.0009
     38  CD2        2.6900  -15.0840  186.9020 C.ar  105  TYR105     -0.0009
     39  CE1        4.9770  -15.2650  188.4350 C.ar  105  TYR105      0.0417
     40  CE2        2.9690  -14.1070  187.8420 C.ar  105  TYR105      0.0417
     41  CZ         4.1140  -14.2030  188.6040 C.ar  105  TYR105      0.1957
     42  OH         4.3980  -13.2350  189.5400 O.3   105  TYR105     -0.2866
     43  N          9.1180  -22.8190  187.7220 N.3   147  ARG147     -0.1231
     44  CA         8.7580  -21.5590  188.3620 C.3   147  ARG147      0.1694
     45  C          9.5600  -21.3310  189.6440 C.2   147  ARG147      0.2592
     46  O         10.7730  -21.1210  189.5860 O.2   147  ARG147     -0.2718
     47  CB         7.2500  -21.5030  188.6200 C.3   147  ARG147      0.0321
     48  CG         6.4330  -21.2690  187.3510 C.3   147  ARG147      0.0489
     49  CD         4.9370  -21.4310  187.5830 C.3   147  ARG147      0.2205
     50  NE         4.1590  -21.0520  186.4050 N.pl3 147  ARG147     -0.0865
     51  CZ         2.8740  -21.3460  186.2330 C.cat 147  ARG147      0.5346
     52  NH1        2.2200  -22.0380  187.1570 N.pl3 147  ARG147      0.1354
     53  NH2        2.2430  -20.9610  185.1310 N.pl3 147  ARG147      0.1354
     54  N          8.8900  -21.3650  190.7940 N.am  148  ASP148     -0.1974
     55  CA         9.5800  -21.2080  192.0740 C.3   148  ASP148      0.1709
     56  C         10.7800  -22.1400  192.1560 C.2   148  ASP148      0.2293
     57  O         10.6330  -23.3560  192.0710 O.2   148  ASP148     -0.2864
     58  CB         8.6360  -21.4680  193.2510 C.3   148  ASP148      0.1436
     59  CG         7.8600  -20.2320  193.6600 C.2   148  ASP148      0.3671
     60  OD1        7.4740  -19.4380  192.7730 O.co2 148  ASP148     -0.2456
     61  OD2        7.6590  -20.0480  194.8790 O.co2 148  ASP148     -0.2456
     62  N          2.5590  -27.1590  186.3240 N.3   167  GLU167     -0.1231
     63  CA         1.6340  -26.1570  186.8420 C.3   167  GLU167      0.1699
     64  C          1.6950  -26.0850  188.3680 C.2   167  GLU167      0.2592
     65  O          0.6650  -26.0010  189.0370 O.2   167  GLU167     -0.2718
     66  CB         0.2040  -26.4450  186.3750 C.3   167  GLU167      0.0402
     67  CG        -0.7100  -25.2300  186.3860 C.3   167  GLU167      0.1161
     68  CD        -0.3040  -24.1910  185.3580 C.2   167  GLU167      0.3649
     69  OE1        0.3160  -24.5710  184.3430 O.co2 167  GLU167     -0.2457
     70  OE2       -0.6020  -22.9950  185.5650 O.co2 167  GLU167     -0.2457
     71  N          2.9120  -26.1280  188.9060 N.am  168  ASN168     -0.1974
     72  CA         3.1420  -26.0080  190.3450 C.3   168  ASN168      0.1688
     73  C          2.6640  -27.2090  191.1600 C.2   168  ASN168      0.2292
     74  O          2.8130  -27.2340  192.3830 O.2   168  ASN168     -0.2864
     75  CB         2.5140  -24.7220  190.8910 C.3   168  ASN168      0.1181
     76  CG         3.0840  -23.4760  190.2450 C.2   168  ASN168      0.2629
     77  OD1        4.2080  -23.4820  189.7420 O.2   168  ASN168     -0.2716
     78  ND2        2.3130  -22.3960  190.2620 N.am  168  ASN168     -0.0877
     79  N          1.4220  -30.0230  195.4040 N.3   195  GLN195     -0.1245
     80  CA         1.3620  -28.6190  195.0150 C.3   195  GLN195      0.1566
     81  C          2.1130  -27.7340  196.0030 C.2   195  GLN195      0.2260
     82  O          1.6480  -26.6550  196.3710 O.2   195  GLN195     -0.2867
     83  CB        -0.0910  -28.1590  194.8680 C.3   195  GLN195      0.0367
     84  CG        -0.2500  -26.8760  194.0740 C.3   195  GLN195      0.0905
     85  CD        -1.6930  -26.4400  193.9560 C.2   195  GLN195      0.2608
     86  OE1       -2.5670  -26.9560  194.6510 O.2   195  GLN195     -0.2717
     87  NE2       -1.9520  -25.4890  193.0660 N.am  195  GLN195     -0.0878
     88  N          5.3230  -25.3120  197.2140 N.3   197  GLU197     -0.1245
     89  CA         5.9290  -24.1770  196.5390 C.3   197  GLU197      0.1567
     90  C          7.0730  -23.5550  197.3410 C.2   197  GLU197      0.2260
     91  O          7.3630  -23.9780  198.4650 O.2   197  GLU197     -0.2867
     92  CB         4.8590  -23.1320  196.2540 C.3   197  GLU197      0.0388
     93  CG         5.0110  -22.4370  194.9200 C.3   197  GLU197      0.1160
     94  CD         3.7580  -21.6770  194.5460 C.2   197  GLU197      0.3649
     95  OE1        3.3620  -21.7260  193.3630 O.co2 197  GLU197     -0.2457
     96  OE2        3.1640  -21.0330  195.4410 O.co2 197  GLU197     -0.2457
     97  N          0.2270  -23.0610  197.6380 N.3   215  CYS215     -0.1235
     98  CA         0.0110  -22.2560  196.4420 C.3   215  CYS215      0.1677
     99  C         -1.2180  -21.3570  196.5950 C.2   215  CYS215      0.2270
    100  O         -2.3140  -21.6970  196.1470 O.2   215  CYS215     -0.2867
    101  CB        -0.1260  -23.1470  195.2050 C.3   215  CYS215      0.0956
    102  SG         1.3980  -23.9840  194.6900 S.3   215  CYS215     -0.0801
    103  N         -0.9980  -17.7770  195.9160 N.3   217  GLY217     -0.1210
    104  CA        -0.6070  -16.4900  195.3700 C.3   217  GLY217      0.1956
    105  C          0.2850  -15.7050  196.3130 C.2   217  GLY217      0.2611
    106  O          1.1730  -16.2670  196.9530 O.2   217  GLY217     -0.2717
    107  N          0.0510  -14.3990  196.3940 N.am  218  TRP218     -0.1976
    108  CA         0.8190  -13.5390  197.2860 C.3   218  TRP218      0.1640
    109  C          0.4660  -13.8120  198.7420 C.2   218  TRP218      0.2290
    110  O          1.3190  -13.7210  199.6260 O.2   218  TRP218     -0.2864
    111  CB         0.5700  -12.0660  196.9640 C.3   218  TRP218      0.0576
    112  CG         1.0800  -11.6450  195.6260 C.ar  218  TRP218      0.0006
    113  CD1        0.3500  -11.1400  194.5910 C.ar  218  TRP218      0.0946
    114  CD2        2.4380  -11.6940  195.1740 C.ar  218  TRP218      0.0152
    115  NE1        1.1700  -10.8660  193.5240 N.ar  218  TRP218     -0.2442
    116  CE2        2.4570  -11.1970  193.8560 C.ar  218  TRP218      0.0810
    117  CE3        3.6400  -12.1070  195.7570 C.ar  218  TRP218      0.0012
    118  CZ2        3.6290  -11.1040  193.1110 C.ar  218  TRP218      0.0191
    119  CZ3        4.8020  -12.0140  195.0160 C.ar  218  TRP218      0.0001
    120  CH2        4.7890  -11.5170  193.7070 C.ar  218  TRP218      0.0015
    121  N          6.5520  -15.8960  203.2980 N.3   250  GLN250     -0.1245
    122  CA         6.7330  -17.0460  202.4250 C.3   250  GLN250      0.1566
    123  C          8.2130  -17.3980  202.3590 C.2   250  GLN250      0.2260
    124  O          9.0450  -16.5390  202.0660 O.2   250  GLN250     -0.2867
    125  CB         6.1940  -16.7470  201.0240 C.3   250  GLN250      0.0367
    126  CG         6.2210  -17.9350  200.0740 C.3   250  GLN250      0.0905
    127  CD         5.6600  -17.6000  198.7050 C.2   250  GLN250      0.2608
    128  OE1        5.2810  -16.4600  198.4380 O.2   250  GLN250     -0.2717
    129  NE2        5.6060  -18.5950  197.8270 N.am  250  GLN250     -0.0878
    130  N          5.2330  -10.4540  201.2150 N.3   272  TRP272     -0.1241
    131  CA         4.8380   -9.8380  199.9550 C.3   272  TRP272      0.1605
    132  C          3.7210   -8.8190  200.1420 C.2   272  TRP272      0.2264
    133  O          2.6640   -9.1320  200.6880 O.2   272  TRP272     -0.2867
    134  CB         4.4100  -10.9060  198.9490 C.3   272  TRP272      0.0550
    135  CG         5.4750  -11.9180  198.6690 C.ar  272  TRP272      0.0003
    136  CD1        5.5290  -13.2010  199.1290 C.ar  272  TRP272      0.0946
    137  CD2        6.6470  -11.7300  197.8670 C.ar  272  TRP272      0.0152
    138  NE1        6.6590  -13.8250  198.6600 N.ar  272  TRP272     -0.2442
    139  CE2        7.3630  -12.9440  197.8840 C.ar  272  TRP272      0.0810
    140  CE3        7.1600  -10.6540  197.1360 C.ar  272  TRP272      0.0012
    141  CZ2        8.5640  -13.1110  197.1990 C.ar  272  TRP272      0.0191
    142  CZ3        8.3530  -10.8230  196.4550 C.ar  272  TRP272      0.0001
    143  CH2        9.0410  -12.0410  196.4930 C.ar  272  TRP272      0.0015
@<TRIPOS>BOND
     1    33    34    2
     2    33    32    1
     3    31    32    1
     4    32    35    1
     5    69    68   ar
     6    53    51    1
     7    68    70   ar
     8    68    67    1
     9    35    36    1
    10    51    50    2
    11    51    52    1
    12    62    63    1
    13    66    67    1
    14    66    63    1
    15    50    49    1
    16    23    24    2
    17    23    22    1
    18    36    38   ar
    19    36    37   ar
    20    30    28   ar
    21    30    29   ar
    22    28    26   ar
    23    63    64    1
    24    38    40   ar
    25    48    49    1
    26    48    47    1
    27    37    39   ar
    28    22    21    1
    29    22    25    1
    30    43    44    1
    31    40    41   ar
    32    29    27   ar
    33    26    25    1
    34    26    27   ar
    35    44    47    1
    36    44    45    1
    37    64    71   am
    38    64    65    2
    39    39    41   ar
    40    41    42    1
    41    71    72    1
    42     1     2    1
    43    46    45    2
    44    45    54   am
    45    77    76    2
    46     6     7    1
    47     6     5    1
    48    76    78   am
    49    76    75    1
    50     9     7   ar
    51    72    75    1
    52    72    73    1
    53     7     8   ar
    54     2     5    1
    55     2     3    1
    56     4     3    2
    57    54    55    1
    58    73    74    2
    59     3    10   am
    60    57    56    2
    61    55    56    1
    62    55    58    1
    63    10    11    1
    64    13    12    2
    65    60    59   ar
    66    12    11    1
    67    87    85   am
    68   118   120   ar
    69   118   116   ar
    70    58    59    1
    71    11    14    1
    72    95    94   ar
    73   115   116   ar
    74   115   113   ar
    75    14    15    1
    76    59    61   ar
    77   120   119   ar
    78   116   114   ar
    79    85    84    1
    80    85    86    2
    81    84    83    1
    82    15    16    1
    83    94    93    1
    84    94    96   ar
    85    16    17    1
    86   113   112   ar
    87   102   101    1
    88    83    80    1
    89    93    92    1
    90    80    79    1
    91    80    81    1
    92   119   117   ar
    93   114   112   ar
    94   114   117   ar
    95   101    98    1
    96    17    18    2
    97   104   103    1
    98   104   105    1
    99   112   111    1
   100    81    82    2
   101   100    99    2
   102    92    89    1
   103   105   107   am
   104   105   106    2
   105   107   108    1
   106    98    99    1
   107    98    97    1
   108   142   143   ar
   109   142   140   ar
   110   143   141   ar
   111    89    88    1
   112    89    90    1
   113    18    20    1
   114    18    19    1
   115   111   108    1
   116   140   137   ar
   117   141   139   ar
   118   108   109    1
   119    90    91    2
   120   129   127   am
   121   137   139   ar
   122   137   135   ar
   123   139   138   ar
   124   128   127    2
   125   138   136   ar
   126   135   134    1
   127   135   136   ar
   128   127   126    1
   129   109   110    2
   130   134   131    1
   131   131   132    1
   132   131   130    1
   133   126   125    1
   134   132   133    2
   135   125   122    1
   136   124   123    2
   137   123   122    1
   138   122   121    1
