@<TRIPOS>MOLECULE
tmp/3vt0B00.pdb
 81 74 0 0 0
SMALL
GASTEIGER

@<TRIPOS>ATOM
      1  N         -7.9810  -17.0250  313.6100 N.3   244  SER244     -0.1217
      2  CA        -7.6650  -17.6970  312.3540 C.3   244  SER244      0.1889
      3  C         -8.5410  -17.2380  311.1890 C.2   244  SER244      0.2288
      4  O         -8.2070  -17.4740  310.0270 O.2   244  SER244     -0.2866
      5  CB        -7.7740  -19.2150  312.5220 C.3   244  SER244      0.2089
      6  OG        -9.0800  -19.5900  312.9280 O.3   244  SER244     -0.2183
      7  N         -1.9350  -13.1310  327.9400 N.3   346  ALA346     -0.1245
      8  CA        -1.5270  -14.5030  328.2360 C.3   346  ALA346      0.1562
      9  C         -0.9530  -14.6400  329.6450 C.2   346  ALA346      0.2260
     10  O         -0.1670  -15.5470  329.9200 O.2   346  ALA346     -0.2867
     11  CB        -0.5330  -15.0090  327.1960 C.3   346  ALA346      0.0290
     12  N         -9.4960  -17.1710  329.8440 N.3   384  ASP384     -0.1239
     13  CA        -9.2750  -17.9850  328.6550 C.3   384  ASP384      0.1674
     14  C         -8.5520  -19.2910  328.9750 C.2   384  ASP384      0.2266
     15  O         -7.7240  -19.3450  329.8820 O.2   384  ASP384     -0.2867
     16  CB        -8.4720  -17.1790  327.6310 C.3   384  ASP384      0.1410
     17  CG        -8.1120  -17.9870  326.4050 C.2   384  ASP384      0.3668
     18  OD1       -7.1360  -18.7600  326.4750 O.co2 384  ASP384     -0.2456
     19  OD2       -8.7940  -17.8380  325.3710 O.co2 384  ASP384     -0.2456
     20  N         -5.8100  -21.6360  327.8580 N.3   386  LYS386     -0.1231
     21  CA        -4.6120  -21.6060  327.0190 C.3   386  LYS386      0.1693
     22  C         -4.6440  -22.6340  325.8870 C.2   386  LYS386      0.2592
     23  O         -4.8480  -23.8250  326.1180 O.2   386  LYS386     -0.2718
     24  CB        -3.3570  -21.8080  327.8780 C.3   386  LYS386      0.0285
     25  CG        -2.0360  -21.6190  327.1400 C.3   386  LYS386      0.0035
     26  CD        -0.8520  -21.9240  328.0510 C.3   386  LYS386      0.0206
     27  CE         0.4740  -21.6280  327.3700 C.3   386  LYS386      0.1093
     28  NZ         0.6040  -20.1930  326.9990 N.3   386  LYS386     -0.1314
     29  N         -4.4410  -22.1580  324.6620 N.am  387  ASP387     -0.1960
     30  CA        -4.3640  -23.0230  323.4860 C.3   387  ASP387      0.1840
     31  C         -5.6140  -23.8820  323.3050 C.2   387  ASP387      0.2621
     32  O         -5.5400  -24.9920  322.7780 O.2   387  ASP387     -0.2715
     33  CB        -3.1190  -23.9100  323.5560 C.3   387  ASP387      0.1450
     34  CG        -1.8370  -23.1060  323.6450 C.2   387  ASP387      0.3671
     35  OD1       -1.8070  -21.9720  323.1180 O.co2 387  ASP387     -0.2456
     36  OD2       -0.8630  -23.6060  324.2450 O.co2 387  ASP387     -0.2456
     37  N         -6.7590  -23.3590  323.7340 N.am  388  GLU388     -0.1977
     38  CA        -8.0320  -24.0720  323.6300 C.3   388  GLU388      0.1602
     39  C         -7.9020  -25.5360  324.0180 C.2   388  GLU388      0.2287
     40  O         -8.3680  -26.4190  323.3000 O.2   388  GLU388     -0.2864
     41  CB        -8.6040  -23.9630  322.2160 C.3   388  GLU388      0.0415
     42  CG        -8.8370  -22.5410  321.7440 C.3   388  GLU388      0.1163
     43  CD        -9.8160  -22.4740  320.5930 C.2   388  GLU388      0.3649
     44  OE1       -9.5990  -21.6670  319.6640 O.co2 388  GLU388     -0.2457
     45  OE2      -10.8070  -23.2330  320.6190 O.co2 388  GLU388     -0.2457
     46  N         -5.6010  -18.6080  331.5330 N.3   397  ILE397     -0.1245
     47  CA        -4.9190  -17.3220  331.4390 C.3   397  ILE397      0.1561
     48  C         -5.8970  -16.2260  331.0370 C.2   397  ILE397      0.2260
     49  O         -7.0620  -16.4970  330.7550 O.2   397  ILE397     -0.2867
     50  CB        -3.7790  -17.3610  330.4020 C.3   397  ILE397      0.0252
     51  CG1       -4.3380  -17.6710  329.0120 C.3   397  ILE397      0.0019
     52  CG2       -2.7270  -18.3820  330.8000 C.3   397  ILE397      0.0019
     53  CD1       -3.2860  -17.7250  327.9270 C.3   397  ILE397      0.0001
     54  N         -6.6810  -13.5070  328.1510 N.3   399  TYR399     -0.1241
     55  CA        -6.3250  -13.3290  326.7490 C.3   399  TYR399      0.1605
     56  C         -7.2360  -12.3300  326.0460 C.2   399  TYR399      0.2264
     57  O         -8.3140  -12.0010  326.5380 O.2   399  TYR399     -0.2867
     58  CB        -6.3600  -14.6770  326.0230 C.3   399  TYR399      0.0534
     59  CG        -5.4600  -14.7510  324.8110 C.ar  399  TYR399     -0.0201
     60  CD1       -4.1140  -15.0650  324.9420 C.ar  399  TYR399     -0.0009
     61  CD2       -5.9560  -14.5170  323.5350 C.ar  399  TYR399     -0.0009
     62  CE1       -3.2870  -15.1380  323.8410 C.ar  399  TYR399      0.0417
     63  CE2       -5.1340  -14.5880  322.4260 C.ar  399  TYR399      0.0417
     64  CZ        -3.8010  -14.8990  322.5860 C.ar  399  TYR399      0.1957
     65  OH        -2.9750  -14.9720  321.4890 O.3   399  TYR399     -0.2866
     66  N        -11.4580  -13.0390  321.7040 N.3   402  ASN402     -0.1240
     67  CA       -11.4340  -13.5340  320.3320 C.3   402  ASN402      0.1653
     68  C        -12.6750  -14.3380  319.9490 C.2   402  ASN402      0.2266
     69  O        -12.6800  -15.0470  318.9430 O.2   402  ASN402     -0.2867
     70  CB       -10.1690  -14.3610  320.0780 C.3   402  ASN402      0.1155
     71  CG       -10.0260  -15.5250  321.0400 C.2   402  ASN402      0.2627
     72  OD1      -11.0060  -15.9940  321.6180 O.2   402  ASN402     -0.2716
     73  ND2       -8.7980  -15.9970  321.2160 N.am  402  ASN402     -0.0877
     74  N        -13.3860  -21.1360  324.2420 N.3   406  ASN406     -0.1240
     75  CA       -12.5320  -21.2890  325.4120 C.3   406  ASN406      0.1653
     76  C        -12.5500  -20.0390  326.2880 C.2   406  ASN406      0.2266
     77  O        -11.8470  -19.9640  327.2960 O.2   406  ASN406     -0.2867
     78  CB       -11.1010  -21.6350  324.9950 C.3   406  ASN406      0.1155
     79  CG       -10.4760  -20.5690  324.1150 C.2   406  ASN406      0.2627
     80  OD1      -11.1630  -19.9020  323.3410 O.2   406  ASN406     -0.2716
     81  ND2       -9.1630  -20.4080  324.2270 N.am  406  ASN406     -0.0877
@<TRIPOS>BOND
     1     4     3    2
     2     3     2    1
     3     2     5    1
     4     2     1    1
     5     5     6    1
     6    69    68    2
     7    44    43   ar
     8    68    67    1
     9    70    67    1
    10    70    71    1
    11    67    66    1
    12    43    45   ar
    13    43    42    1
    14    71    73   am
    15    71    72    2
    16    65    64    1
    17    42    41    1
    18    41    38    1
    19    63    64   ar
    20    63    61   ar
    21    64    62   ar
    22    32    31    2
    23    35    34   ar
    24    40    39    2
    25    31    30    1
    26    31    37   am
    27    80    79    2
    28    30    33    1
    29    30    29    1
    30    61    59   ar
    31    33    34    1
    32    38    37    1
    33    38    39    1
    34    34    36   ar
    35    62    60   ar
    36    79    81   am
    37    79    78    1
    38    74    75    1
    39    29    22   am
    40    59    60   ar
    41    59    58    1
    42    78    75    1
    43    19    17   ar
    44    75    76    1
    45    22    23    2
    46    22    21    1
    47    58    55    1
    48    56    57    2
    49    56    55    1
    50    76    77    2
    51    17    18   ar
    52    17    16    1
    53    55    54    1
    54    28    27    1
    55    21    20    1
    56    21    24    1
    57    25    24    1
    58    25    26    1
    59    11     8    1
    60    27    26    1
    61    16    13    1
    62    53    51    1
    63     7     8    1
    64     8     9    1
    65    13    14    1
    66    13    12    1
    67    14    15    2
    68    51    50    1
    69     9    10    2
    70    50    52    1
    71    50    47    1
    72    49    48    2
    73    48    47    1
    74    47    46    1
