@<TRIPOS>MOLECULE
tmp/3vt1E01.pdb
 122 119 0 0 0
SMALL
GASTEIGER

@<TRIPOS>ATOM
      1  N         15.6030   -9.9650  193.5420 N.3    37  GLU37      -0.1245
      2  CA        14.9410   -9.2310  192.4690 C.3    37  GLU37       0.1567
      3  C         14.9870   -7.7290  192.7090 C.2    37  GLU37       0.2260
      4  O         14.9750   -7.2630  193.8480 O.2    37  GLU37      -0.2867
      5  CB        13.4790   -9.6600  192.3180 C.3    37  GLU37       0.0388
      6  CG        13.2630  -11.1510  192.1410 C.3    37  GLU37       0.1160
      7  CD        11.7930  -11.5270  192.1910 C.2    37  GLU37       0.3649
      8  OE1       10.9500  -10.6620  191.8680 O.co2  37  GLU37      -0.2457
      9  OE2       11.4800  -12.6810  192.5530 O.co2  37  GLU37      -0.2457
     10  N         12.4160  -13.8950  188.3290 N.3    80  GLU80      -0.1231
     11  CA        11.9840  -14.1410  189.6970 C.3    80  GLU80       0.1699
     12  C         12.8580  -15.1550  190.4250 C.2    80  GLU80       0.2592
     13  O         13.3080  -16.1400  189.8400 O.2    80  GLU80      -0.2718
     14  CB        10.5270  -14.6030  189.7040 C.3    80  GLU80       0.0402
     15  CG         9.5400  -13.5410  189.2640 C.3    80  GLU80       0.1161
     16  CD         8.1020  -13.9760  189.4480 C.2    80  GLU80       0.3649
     17  OE1        7.8740  -15.1760  189.7150 O.co2  80  GLU80      -0.2457
     18  OE2        7.2010  -13.1210  189.3180 O.co2  80  GLU80      -0.2457
     19  N         13.0870  -14.9030  191.7100 N.am   81  ARG81      -0.1980
     20  CA        13.7990  -15.8410  192.5700 C.3    81  ARG81       0.1597
     21  C         15.1640  -16.2650  192.0370 C.2    81  ARG81       0.2287
     22  O         15.4280  -17.4560  191.8740 O.2    81  ARG81      -0.2864
     23  CB        12.9330  -17.0700  192.8440 C.3    81  ARG81       0.0334
     24  CG        11.5960  -16.7170  193.4600 C.3    81  ARG81       0.0492
     25  CD        10.8020  -17.9450  193.8390 C.3    81  ARG81       0.2205
     26  NE         9.5700  -17.5760  194.5260 N.pl3  81  ARG81      -0.0865
     27  CZ         9.4900  -17.3570  195.8340 C.cat  81  ARG81       0.5346
     28  NH1       10.5730  -17.4710  196.5930 N.pl3  81  ARG81       0.1354
     29  NH2        8.3310  -17.0220  196.3840 N.pl3  81  ARG81       0.1354
     30  N         14.1930  -17.7810  187.4910 N.3    98  HIS98      -0.1241
     31  CA        12.9350  -18.0880  186.8190 C.3    98  HIS98       0.1621
     32  C         12.6050  -16.9910  185.8130 C.2    98  HIS98       0.2264
     33  O         12.3360  -15.8540  186.1970 O.2    98  HIS98      -0.2867
     34  CB        11.8050  -18.2210  187.8420 C.3    98  HIS98       0.0745
     35  CG        10.4410  -18.3190  187.2320 C.ar   98  HIS98       0.0817
     36  ND1        9.2890  -18.0600  187.9430 N.ar   98  HIS98      -0.2268
     37  CD2       10.0440  -18.6450  185.9790 C.ar   98  HIS98       0.1154
     38  CE1        8.2420  -18.2210  187.1550 C.ar   98  HIS98       0.1986
     39  NE2        8.6720  -18.5770  185.9580 N.ar   98  HIS98      -0.2212
     40  N          2.7330  -15.5380  183.1970 N.3   105  TYR105     -0.1241
     41  CA         3.6180  -16.5960  183.6710 C.3   105  TYR105      0.1605
     42  C          3.4820  -17.8320  182.7900 C.2   105  TYR105      0.2264
     43  O          3.7290  -18.9540  183.2300 O.2   105  TYR105     -0.2867
     44  CB         3.3060  -16.9550  185.1260 C.3   105  TYR105      0.0534
     45  CG         3.6500  -15.8590  186.1090 C.ar  105  TYR105     -0.0201
     46  CD1        4.8050  -15.9280  186.8770 C.ar  105  TYR105     -0.0009
     47  CD2        2.8250  -14.7540  186.2650 C.ar  105  TYR105     -0.0009
     48  CE1        5.1270  -14.9280  187.7740 C.ar  105  TYR105      0.0417
     49  CE2        3.1380  -13.7490  187.1590 C.ar  105  TYR105      0.0417
     50  CZ         4.2900  -13.8410  187.9110 C.ar  105  TYR105      0.1957
     51  OH         4.6060  -12.8410  188.8010 O.3   105  TYR105     -0.2866
     52  N          8.8810  -21.2070  190.0380 N.3   148  ASP148     -0.1239
     53  CA         9.5380  -21.0170  191.3310 C.3   148  ASP148      0.1674
     54  C         10.7260  -21.9640  191.4560 C.2   148  ASP148      0.2266
     55  O         10.5680  -23.1830  191.3930 O.2   148  ASP148     -0.2867
     56  CB         8.5450  -21.2390  192.4720 C.3   148  ASP148      0.1410
     57  CG         7.7620  -19.9860  192.8130 C.2   148  ASP148      0.3668
     58  OD1        7.4260  -19.2210  191.8840 O.co2 148  ASP148     -0.2456
     59  OD2        7.4750  -19.7700  194.0080 O.co2 148  ASP148     -0.2456
     60  N          5.3140  -24.9600  196.3150 N.3   197  GLU197     -0.1245
     61  CA         5.9380  -23.8460  195.6060 C.3   197  GLU197      0.1567
     62  C          7.0650  -23.2480  196.4340 C.2   197  GLU197      0.2260
     63  O          7.2900  -23.6590  197.5720 O.2   197  GLU197     -0.2867
     64  CB         4.9170  -22.7660  195.2520 C.3   197  GLU197      0.0388
     65  CG         5.1490  -22.1370  193.8870 C.3   197  GLU197      0.1160
     66  CD         4.3220  -20.8870  193.6680 C.2   197  GLU197      0.3649
     67  OE1        3.7840  -20.7220  192.5530 O.co2 197  GLU197     -0.2457
     68  OE2        4.2210  -20.0650  194.6030 O.co2 197  GLU197     -0.2457
     69  N          0.3860  -22.5900  196.6150 N.3   215  CYS215     -0.1221
     70  CA         0.2160  -21.7630  195.4270 C.3   215  CYS215      0.1808
     71  C         -1.0080  -20.8690  195.5880 C.2   215  CYS215      0.2602
     72  O         -2.0940  -21.1960  195.1110 O.2   215  CYS215     -0.2717
     73  CB         0.1030  -22.6260  194.1680 C.3   215  CYS215      0.0970
     74  SG         1.6370  -23.4630  193.7000 S.3   215  CYS215     -0.0800
     75  N         -0.8230  -19.7370  196.2580 N.am  216  THR216     -0.1939
     76  CA        -1.9210  -18.8110  196.5050 C.3   216  THR216      0.2028
     77  C         -1.5650  -17.3900  196.0830 C.2   216  THR216      0.2643
     78  O         -1.9970  -16.4190  196.7040 O.2   216  THR216     -0.2714
     79  CB        -2.3320  -18.8170  197.9880 C.3   216  THR216      0.1808
     80  OG1       -1.2020  -18.4760  198.7990 O.3   216  THR216     -0.2208
     81  CG2       -2.8380  -20.1920  198.3930 C.3   216  THR216      0.0379
     82  N         -0.7700  -17.2790  195.0250 N.am  217  GLY217     -0.1939
     83  CA        -0.3560  -15.9880  194.5080 C.3   217  GLY217      0.2014
     84  C          0.5370  -15.2410  195.4780 C.2   217  GLY217      0.2638
     85  O          1.4070  -15.8350  196.1170 O.2   217  GLY217     -0.2714
     86  N          0.3250  -13.9330  195.5860 N.am  218  TRP218     -0.1973
     87  CA         1.1010  -13.1120  196.5060 C.3   218  TRP218      0.1640
     88  C          0.7330  -13.4020  197.9570 C.2   218  TRP218      0.2290
     89  O          1.5830  -13.3460  198.8460 O.2   218  TRP218     -0.2864
     90  CB         0.8890  -11.6280  196.2090 C.3   218  TRP218      0.0576
     91  CG         1.4290  -11.2080  194.8800 C.ar  218  TRP218      0.0006
     92  CD1        0.7260  -10.6720  193.8430 C.ar  218  TRP218      0.0946
     93  CD2        2.7850  -11.3190  194.4310 C.ar  218  TRP218      0.0152
     94  NE1        1.5620  -10.4230  192.7830 N.ar  218  TRP218     -0.2442
     95  CE2        2.8310  -10.8140  193.1170 C.ar  218  TRP218      0.0810
     96  CE3        3.9650  -11.7880  195.0160 C.ar  218  TRP218      0.0012
     97  CZ2        4.0110  -10.7660  192.3780 C.ar  218  TRP218      0.0191
     98  CZ3        5.1350  -11.7400  194.2810 C.ar  218  TRP218      0.0001
     99  CH2        5.1490  -11.2330  192.9760 C.ar  218  TRP218      0.0015
    100  N          6.5460  -15.6660  202.5830 N.3   250  GLN250     -0.1245
    101  CA         6.7290  -16.8120  201.7050 C.3   250  GLN250      0.1566
    102  C          8.2110  -17.1690  201.6420 C.2   250  GLN250      0.2260
    103  O          9.0460  -16.3140  201.3480 O.2   250  GLN250     -0.2867
    104  CB         6.1920  -16.5010  200.3070 C.3   250  GLN250      0.0367
    105  CG         6.2170  -17.6800  199.3490 C.3   250  GLN250      0.0905
    106  CD         5.6550  -17.3340  197.9820 C.2   250  GLN250      0.2608
    107  OE1        5.2760  -16.1910  197.7240 O.2   250  GLN250     -0.2717
    108  NE2        5.5940  -18.3240  197.1000 N.am  250  GLN250     -0.0878
    109  N          5.4410  -10.2250  200.5330 N.3   272  TRP272     -0.1241
    110  CA         5.0600   -9.5900  199.2760 C.3   272  TRP272      0.1605
    111  C          3.9470   -8.5620  199.4430 C.2   272  TRP272      0.2264
    112  O          2.8780   -8.8650  199.9710 O.2   272  TRP272     -0.2867
    113  CB         4.6410  -10.6440  198.2490 C.3   272  TRP272      0.0550
    114  CG         5.7120  -11.6490  197.9660 C.ar  272  TRP272      0.0003
    115  CD1        5.7670  -12.9390  198.4070 C.ar  272  TRP272      0.0946
    116  CD2        6.8900  -11.4430  197.1790 C.ar  272  TRP272      0.0152
    117  NE1        6.9070  -13.5500  197.9400 N.ar  272  TRP272     -0.2442
    118  CE2        7.6130  -12.6520  197.1840 C.ar  272  TRP272      0.0810
    119  CE3        7.4030  -10.3530  196.4680 C.ar  272  TRP272      0.0012
    120  CZ2        8.8220  -12.8010  196.5080 C.ar  272  TRP272      0.0191
    121  CZ3        8.6020  -10.5030  195.7970 C.ar  272  TRP272      0.0001
    122  CH2        9.2990  -11.7180  195.8220 C.ar  272  TRP272      0.0015
@<TRIPOS>BOND
     1    42    43    2
     2    42    41    1
     3    40    41    1
     4    41    44    1
     5    44    45    1
     6    32    33    2
     7    32    31    1
     8    39    37   ar
     9    39    38   ar
    10    37    35   ar
    11    45    47   ar
    12    45    46   ar
    13    47    49   ar
    14    31    30    1
    15    31    34    1
    16    46    48   ar
    17    38    36   ar
    18    49    50   ar
    19    35    34    1
    20    35    36   ar
    21    48    50   ar
    22    50    51    1
    23    10    11    1
    24    15    16    1
    25    15    14    1
    26    18    16   ar
    27    16    17   ar
    28    11    14    1
    29    11    12    1
    30    13    12    2
    31    52    53    1
    32    12    19   am
    33    53    54    1
    34    53    56    1
    35    55    54    2
    36    19    20    1
    37     8     7   ar
    38    22    21    2
    39    58    57   ar
    40    21    20    1
    41     6     7    1
    42     6     5    1
    43     7     9   ar
    44     5     2    1
    45    97    99   ar
    46    97    95   ar
    47     2     3    1
    48     2     1    1
    49    56    57    1
    50    67    66   ar
    51    20    23    1
    52     3     4    2
    53    94    95   ar
    54    94    92   ar
    55    57    59   ar
    56    23    24    1
    57    99    98   ar
    58    95    93   ar
    59    24    25    1
    60    66    65    1
    61    66    68   ar
    62    74    73    1
    63    25    26    1
    64    92    91   ar
    65    65    64    1
    66    73    70    1
    67    98    96   ar
    68    93    91   ar
    69    93    96   ar
    70    83    82    1
    71    83    84    1
    72    26    27    2
    73    91    90    1
    74    82    77   am
    75    72    71    2
    76    64    61    1
    77    70    71    1
    78    70    69    1
    79    84    86   am
    80    84    85    2
    81    86    87    1
    82    71    75   am
    83    61    60    1
    84    61    62    1
    85   121   122   ar
    86   121   119   ar
    87   122   120   ar
    88    27    29    1
    89    27    28    1
    90    77    76    1
    91    77    78    2
    92    90    87    1
    93    75    76    1
    94    62    63    2
    95   119   116   ar
    96    76    79    1
    97    87    88    1
    98   120   118   ar
    99   108   106   am
   100   116   118   ar
   101   116   114   ar
   102   118   117   ar
   103   107   106    2
   104   117   115   ar
   105    88    89    2
   106   114   113    1
   107   114   115   ar
   108   106   105    1
   109    79    81    1
   110    79    80    1
   111   113   110    1
   112   110   111    1
   113   110   109    1
   114   105   104    1
   115   111   112    2
   116   104   101    1
   117   103   102    2
   118   102   101    1
   119   101   100    1
