@<TRIPOS>MOLECULE
tmp/3vt1B01.pdb
 85 80 0 0 0
SMALL
GASTEIGER

@<TRIPOS>ATOM
      1  N         27.0520   14.1610  168.4700 N.3   358  ASP358     -0.1225
      2  CA        28.2080   15.0300  168.6450 C.3   358  ASP358      0.1805
      3  C         27.8420   16.2670  169.4580 C.2   358  ASP358      0.2598
      4  O         26.6660   16.5320  169.7050 O.2   358  ASP358     -0.2718
      5  CB        28.7480   15.4450  167.2750 C.3   358  ASP358      0.1424
      6  CG        30.1080   16.1070  167.3530 C.2   358  ASP358      0.3668
      7  OD1       30.8210   15.9080  168.3580 O.co2 358  ASP358     -0.2456
      8  OD2       30.4620   16.8320  166.4000 O.co2 358  ASP358     -0.2456
      9  N         28.8540   17.0190  169.8770 N.am  359  VAL359     -0.1966
     10  CA        28.6330   18.2630  170.6010 C.3   359  VAL359      0.1727
     11  C         28.9050   19.4260  169.6570 C.2   359  VAL359      0.2616
     12  O         29.8820   19.4070  168.9090 O.2   359  VAL359     -0.2715
     13  CB        29.5350   18.3650  171.8430 C.3   359  VAL359      0.0290
     14  CG1       29.2700   19.6650  172.5880 C.3   359  VAL359      0.0023
     15  CG2       29.3130   17.1700  172.7530 C.3   359  VAL359      0.0023
     16  N         28.0390   20.4340  169.6860 N.am  360  LEU360     -0.1963
     17  CA        28.1750   21.5750  168.7890 C.3   360  LEU360      0.1728
     18  C         29.5420   22.2420  168.9270 C.2   360  LEU360      0.2616
     19  O         29.9540   22.6130  170.0250 O.2   360  LEU360     -0.2715
     20  CB        27.0560   22.5860  169.0420 C.3   360  LEU360      0.0311
     21  CG        26.9910   23.7830  168.0930 C.3   360  LEU360      0.0022
     22  CD1       26.9110   23.3130  166.6490 C.3   360  LEU360      0.0001
     23  CD2       25.8050   24.6680  168.4410 C.3   360  LEU360      0.0001
     24  N         30.2400   22.3810  167.8030 N.am  361  ASP361     -0.1957
     25  CA        31.5710   22.9840  167.7770 C.3   361  ASP361      0.1840
     26  C         32.5940   22.1500  168.5450 C.2   361  ASP361      0.2622
     27  O         33.7190   22.5940  168.7750 O.2   361  ASP361     -0.2715
     28  CB        31.5340   24.4090  168.3350 C.3   361  ASP361      0.1450
     29  CG        30.6210   25.3230  167.5370 C.2   361  ASP361      0.3671
     30  OD1       30.4950   25.1170  166.3110 O.co2 361  ASP361     -0.2456
     31  OD2       30.0330   26.2490  168.1340 O.co2 361  ASP361     -0.2456
     32  N         32.1960   20.9460  168.9440 N.am  362  GLY362     -0.1954
     33  CA        33.0530   20.0780  169.7310 C.3   362  GLY362      0.1869
     34  C         33.5270   20.7110  171.0250 C.2   362  GLY362      0.2309
     35  O         34.6470   20.4630  171.4740 O.2   362  GLY362     -0.2863
     36  N         24.3560   18.0350  168.9580 N.3   371  VAL371     -0.1245
     37  CA        23.8980   17.9780  167.5760 C.3   371  VAL371      0.1561
     38  C         24.4120   16.7270  166.8740 C.2   371  VAL371      0.2260
     39  O         25.2210   15.9850  167.4280 O.2   371  VAL371     -0.2867
     40  CB        24.3780   19.2090  166.7860 C.3   371  VAL371      0.0252
     41  CG1       23.8570   20.4870  167.4230 C.3   371  VAL371      0.0019
     42  CG2       25.8990   19.2270  166.7090 C.3   371  VAL371      0.0019
     43  N         26.3340   15.0660  163.3430 N.3   373  TRP373     -0.1241
     44  CA        27.3720   15.4870  162.4120 C.3   373  TRP373      0.1605
     45  C         27.9050   14.2980  161.6160 C.2   373  TRP373      0.2264
     46  O         27.8180   13.1550  162.0660 O.2   373  TRP373     -0.2867
     47  CB        28.5130   16.1630  163.1750 C.3   373  TRP373      0.0550
     48  CG        29.2800   17.1570  162.3630 C.ar  373  TRP373      0.0003
     49  CD1       30.3750   16.9140  161.5860 C.ar  373  TRP373      0.0946
     50  CD2       29.0110   18.5600  162.2490 C.ar  373  TRP373      0.0152
     51  NE1       30.8040   18.0770  160.9950 N.ar  373  TRP373     -0.2442
     52  CE2       29.9830   19.1020  161.3850 C.ar  373  TRP373      0.0810
     53  CE3       28.0430   19.4090  162.7930 C.ar  373  TRP373      0.0012
     54  CZ2       30.0140   20.4550  161.0530 C.ar  373  TRP373      0.0191
     55  CZ3       28.0750   20.7510  162.4620 C.ar  373  TRP373      0.0001
     56  CH2       29.0540   21.2610  161.6010 C.ar  373  TRP373      0.0015
     57  N         33.4120   12.1510  161.4200 N.3   376  ASN376     -0.1240
     58  CA        34.7330   12.7170  161.1510 C.3   376  ASN376      0.1653
     59  C         35.7930   12.1940  162.1190 C.2   376  ASN376      0.2266
     60  O         36.9490   12.6150  162.0800 O.2   376  ASN376     -0.2867
     61  CB        34.6970   14.2480  161.1640 C.3   376  ASN376      0.1155
     62  CG        34.2220   14.8100  162.4860 C.2   376  ASN376      0.2627
     63  OD1       34.4310   14.2120  163.5400 O.2   376  ASN376     -0.2716
     64  ND2       33.5850   15.9740  162.4360 N.am  376  ASN376     -0.0877
     65  N         36.3220   12.6590  165.2190 N.3   378  SER378     -0.1217
     66  CA        36.8440   13.5990  166.2050 C.3   378  SER378      0.1889
     67  C         36.3960   13.1980  167.6110 C.2   378  SER378      0.2288
     68  O         35.3500   12.5710  167.7800 O.2   378  SER378     -0.2866
     69  CB        36.3860   15.0210  165.8840 C.3   378  SER378      0.2089
     70  OG        34.9770   15.1310  165.9730 O.3   378  SER378     -0.2183
     71  N         34.9820   14.6660  169.9850 N.3   380  SER380     -0.1217
     72  CA        33.6700   15.1440  170.4090 C.3   380  SER380      0.1889
     73  C         32.5450   14.1920  170.0070 C.2   380  SER380      0.2288
     74  O         31.4130   14.3240  170.4730 O.2   380  SER380     -0.2866
     75  CB        33.4040   16.5430  169.8460 C.3   380  SER380      0.2089
     76  OG        33.4180   16.5380  168.4290 O.3   380  SER380     -0.2183
     77  N         35.7000   13.5260  175.1240 N.3   399  LYS399     -0.1245
     78  CA        36.4520   14.7770  175.0920 C.3   399  LYS399      0.1561
     79  C         36.1680   15.6460  176.3110 C.2   399  LYS399      0.2260
     80  O         37.0670   15.9420  177.0970 O.2   399  LYS399     -0.2867
     81  CB        36.1520   15.5560  173.8090 C.3   399  LYS399      0.0271
     82  CG        36.9580   16.8370  173.6620 C.3   399  LYS399      0.0035
     83  CD        36.7240   17.4950  172.3110 C.3   399  LYS399      0.0206
     84  CE        37.5520   18.7620  172.1690 C.3   399  LYS399      0.1093
     85  NZ        37.3960   19.3880  170.8280 N.3   399  LYS399     -0.1314
@<TRIPOS>BOND
     1    51    52   ar
     2    51    49   ar
     3    54    52   ar
     4    54    56   ar
     5    58    61    1
     6    58    57    1
     7    58    59    1
     8    61    62    1
     9    52    50   ar
    10    49    48   ar
    11    56    55   ar
    12    45    46    2
    13    45    44    1
    14    60    59    2
    15    50    48   ar
    16    50    53   ar
    17    48    47    1
    18    44    47    1
    19    44    43    1
    20    64    62   am
    21    55    53   ar
    22    62    63    2
    23    65    66    1
    24    69    70    1
    25    69    66    1
    26    66    67    1
    27    30    29   ar
    28     8     6   ar
    29    22    21    1
    30    42    40    1
    31    40    41    1
    32    40    37    1
    33    38    39    2
    34    38    37    1
    35     5     6    1
    36     5     2    1
    37     6     7   ar
    38    29    31   ar
    39    29    28    1
    40    37    36    1
    41    67    68    2
    42    25    24    1
    43    25    28    1
    44    25    26    1
    45    24    18   am
    46    21    23    1
    47    21    20    1
    48    76    75    1
    49     1     2    1
    50    26    27    2
    51    26    32   am
    52     2     3    1
    53    17    18    1
    54    17    20    1
    55    17    16    1
    56    12    11    2
    57    18    19    2
    58    32    33    1
    59     3     4    2
    60     3     9   am
    61    11    16   am
    62    11    10    1
    63    33    34    1
    64    75    72    1
    65     9    10    1
    66    71    72    1
    67    73    72    1
    68    73    74    2
    69    10    13    1
    70    85    84    1
    71    34    35    2
    72    13    14    1
    73    13    15    1
    74    84    83    1
    75    83    82    1
    76    82    81    1
    77    81    78    1
    78    78    77    1
    79    78    79    1
    80    79    80    2
