@<TRIPOS>MOLECULE
tmp/3vt1A00.pdb
 83 76 0 0 0
SMALL
GASTEIGER

@<TRIPOS>ATOM
      1  N         -7.6430  -13.3450  314.8330 N.3   243  ASN243     -0.1240
      2  CA        -7.6510  -14.8010  314.7530 C.3   243  ASN243      0.1653
      3  C         -7.3560  -15.3090  313.3440 C.2   243  ASN243      0.2266
      4  O         -6.8500  -14.5710  312.4990 O.2   243  ASN243     -0.2867
      5  CB        -8.9760  -15.3700  315.2670 C.3   243  ASN243      0.1155
      6  CG       -10.1690  -14.8700  314.4820 C.2   243  ASN243      0.2627
      7  OD1      -10.0220  -14.3150  313.3940 O.2   243  ASN243     -0.2716
      8  ND2      -11.3630  -15.0660  315.0310 N.am  243  ASN243     -0.0877
      9  N         -1.7010  -12.6560  327.4630 N.3   346  ALA346     -0.1245
     10  CA        -1.2840  -14.0300  327.7340 C.3   346  ALA346      0.1562
     11  C         -0.7180  -14.1890  329.1440 C.2   346  ALA346      0.2260
     12  O          0.0840  -15.0860  329.4020 O.2   346  ALA346     -0.2867
     13  CB        -0.2790  -14.5110  326.6920 C.3   346  ALA346      0.0290
     14  N         -9.3730  -16.7050  329.3080 N.3   384  ASP384     -0.1239
     15  CA        -9.1640  -17.5020  328.1050 C.3   384  ASP384      0.1674
     16  C         -8.4490  -18.8180  328.4030 C.2   384  ASP384      0.2266
     17  O         -7.6070  -18.8900  329.2960 O.2   384  ASP384     -0.2867
     18  CB        -8.3600  -16.6890  327.0850 C.3   384  ASP384      0.1410
     19  CG        -8.0130  -17.4820  325.8440 C.2   384  ASP384      0.3668
     20  OD1       -7.0400  -18.2650  325.8870 O.co2 384  ASP384     -0.2456
     21  OD2       -8.7160  -17.3250  324.8250 O.co2 384  ASP384     -0.2456
     22  N         -5.7400  -21.2140  327.2510 N.3   386  LYS386     -0.1231
     23  CA        -4.5420  -21.2130  326.4120 C.3   386  LYS386      0.1693
     24  C         -4.5920  -22.2330  325.2720 C.2   386  LYS386      0.2592
     25  O         -4.8240  -23.4210  325.4970 O.2   386  LYS386     -0.2718
     26  CB        -3.2960  -21.4500  327.2680 C.3   386  LYS386      0.0285
     27  CG        -1.9840  -21.2930  326.5180 C.3   386  LYS386      0.0035
     28  CD        -0.7970  -21.6270  327.4080 C.3   386  LYS386      0.0206
     29  CE         0.5180  -21.3590  326.6970 C.3   386  LYS386      0.1093
     30  NZ         0.6650  -19.9250  326.3260 N.3   386  LYS386     -0.1314
     31  N         -4.3710  -21.7510  324.0510 N.am  387  ASP387     -0.1960
     32  CA        -4.3070  -22.6020  322.8620 C.3   387  ASP387      0.1840
     33  C         -5.5710  -23.4320  322.6580 C.2   387  ASP387      0.2621
     34  O         -5.5140  -24.5330  322.1130 O.2   387  ASP387     -0.2715
     35  CB        -3.0830  -23.5220  322.9230 C.3   387  ASP387      0.1450
     36  CG        -1.7790  -22.7550  323.0290 C.2   387  ASP387      0.3671
     37  OD1       -1.7130  -21.6160  322.5220 O.co2 387  ASP387     -0.2456
     38  OD2       -0.8200  -23.2930  323.6210 O.co2 387  ASP387     -0.2456
     39  N         -6.7070  -22.8920  323.0860 N.am  388  GLU388     -0.1977
     40  CA        -7.9880  -23.5800  322.9600 C.3   388  GLU388      0.1602
     41  C         -7.8690  -25.0550  323.3310 C.2   388  GLU388      0.2287
     42  O         -8.3380  -25.9280  322.6000 O.2   388  GLU388     -0.2864
     43  CB        -8.5400  -23.4370  321.5390 C.3   388  GLU388      0.0415
     44  CG        -8.7410  -22.0010  321.0870 C.3   388  GLU388      0.1163
     45  CD        -9.2760  -21.9040  319.6700 C.2   388  GLU388      0.3649
     46  OE1       -8.7730  -22.6330  318.7890 O.co2 388  GLU388     -0.2457
     47  OE2      -10.2040  -21.1000  319.4390 O.co2 388  GLU388     -0.2457
     48  N         -5.4180  -18.2100  330.9980 N.3   397  ILE397     -0.1245
     49  CA        -4.7320  -16.9250  330.9210 C.3   397  ILE397      0.1561
     50  C         -5.6930  -15.8190  330.4950 C.2   397  ILE397      0.2260
     51  O         -6.8560  -16.0790  330.1870 O.2   397  ILE397     -0.2867
     52  CB        -3.5660  -16.9660  329.9150 C.3   397  ILE397      0.0252
     53  CG1       -4.0860  -17.2800  328.5110 C.3   397  ILE397      0.0019
     54  CG2       -2.5260  -17.9880  330.3430 C.3   397  ILE397      0.0019
     55  CD1       -3.0040  -17.3360  327.4540 C.3   397  ILE397      0.0001
     56  N         -6.4220  -13.0650  327.6160 N.3   399  TYR399     -0.1241
     57  CA        -6.0940  -12.8750  326.2080 C.3   399  TYR399      0.1605
     58  C         -7.0070  -11.8650  325.5320 C.2   399  TYR399      0.2264
     59  O         -8.0720  -11.5260  326.0480 O.2   399  TYR399     -0.2867
     60  CB        -6.1540  -14.2070  325.4570 C.3   399  TYR399      0.0534
     61  CG        -5.2840  -14.2530  324.2210 C.ar  399  TYR399     -0.0201
     62  CD1       -3.9360  -14.5710  324.3050 C.ar  399  TYR399     -0.0009
     63  CD2       -5.8150  -13.9790  322.9680 C.ar  399  TYR399     -0.0009
     64  CE1       -3.1410  -14.6130  323.1750 C.ar  399  TYR399      0.0417
     65  CE2       -5.0300  -14.0180  321.8350 C.ar  399  TYR399      0.0417
     66  CZ        -3.6940  -14.3350  321.9440 C.ar  399  TYR399      0.1957
     67  OH        -2.9080  -14.3760  320.8160 O.3   399  TYR399     -0.2866
     68  N        -11.3170  -12.5290  321.3050 N.3   402  ASN402     -0.1240
     69  CA       -11.3170  -12.9970  319.9240 C.3   402  ASN402      0.1653
     70  C        -12.5740  -13.7700  319.5370 C.2   402  ASN402      0.2266
     71  O        -12.5990  -14.4610  318.5200 O.2   402  ASN402     -0.2867
     72  CB       -10.0700  -13.8430  319.6470 C.3   402  ASN402      0.1155
     73  CG        -9.9450  -15.0280  320.5880 C.2   402  ASN402      0.2627
     74  OD1      -10.9320  -15.4880  321.1620 O.2   402  ASN402     -0.2716
     75  ND2       -8.7250  -15.5260  320.7520 N.am  402  ASN402     -0.0877
     76  N        -13.3130  -20.6330  323.6290 N.3   406  ASN406     -0.1240
     77  CA       -12.4430  -20.8320  324.7800 C.3   406  ASN406      0.1653
     78  C        -12.4460  -19.6010  325.6870 C.2   406  ASN406      0.2266
     79  O        -11.7270  -19.5480  326.6860 O.2   406  ASN406     -0.2867
     80  CB       -11.0190  -21.1760  324.3330 C.3   406  ASN406      0.1155
     81  CG       -10.3950  -20.0880  323.4790 C.2   406  ASN406      0.2627
     82  OD1      -11.0870  -19.3920  322.7360 O.2   406  ASN406     -0.2716
     83  ND2       -9.0780  -19.9420  323.5770 N.am  406  ASN406     -0.0877
@<TRIPOS>BOND
     1     4     3    2
     2     3     2    1
     3     7     6    2
     4     6     8   am
     5     6     5    1
     6     2     1    1
     7     2     5    1
     8    71    70    2
     9    46    45   ar
    10    47    45   ar
    11    70    69    1
    12    72    69    1
    13    72    73    1
    14    45    44    1
    15    69    68    1
    16    73    75   am
    17    73    74    2
    18    67    66    1
    19    44    43    1
    20    43    40    1
    21    65    66   ar
    22    65    63   ar
    23    66    64   ar
    24    34    33    2
    25    37    36   ar
    26    42    41    2
    27    33    32    1
    28    33    39   am
    29    82    81    2
    30    32    35    1
    31    32    31    1
    32    35    36    1
    33    40    39    1
    34    40    41    1
    35    63    61   ar
    36    36    38   ar
    37    64    62   ar
    38    81    83   am
    39    81    80    1
    40    76    77    1
    41    31    24   am
    42    61    62   ar
    43    61    60    1
    44    80    77    1
    45    77    78    1
    46    21    19   ar
    47    24    25    2
    48    24    23    1
    49    60    57    1
    50    58    59    2
    51    58    57    1
    52    78    79    2
    53    19    20   ar
    54    19    18    1
    55    57    56    1
    56    30    29    1
    57    23    22    1
    58    23    26    1
    59    27    26    1
    60    27    28    1
    61    13    10    1
    62    29    28    1
    63    18    15    1
    64    55    53    1
    65     9    10    1
    66    10    11    1
    67    15    16    1
    68    15    14    1
    69    16    17    2
    70    53    52    1
    71    11    12    2
    72    52    54    1
    73    52    49    1
    74    51    50    2
    75    50    49    1
    76    49    48    1
