@<TRIPOS>MOLECULE
tmp/3vt2C00.pdb
 82 77 0 0 0
SMALL
GASTEIGER

@<TRIPOS>ATOM
      1  N         26.1860   22.7140  180.5540 N.3   367  ALA367     -0.1245
      2  CA        24.8970   23.0580  179.9600 C.3   367  ALA367      0.1562
      3  C         24.9790   23.2730  178.4490 C.2   367  ALA367      0.2260
      4  O         24.1190   23.9310  177.8620 O.2   367  ALA367     -0.2867
      5  CB        24.3020   24.2840  180.6460 C.3   367  ALA367      0.0290
      6  N         22.0270   14.9450  179.8120 N.3   405  ASP405     -0.1225
      7  CA        21.0950   15.5020  180.7840 C.3   405  ASP405      0.1805
      8  C         19.8780   16.1500  180.1290 C.2   405  ASP405      0.2598
      9  O         20.0090   16.8970  179.1600 O.2   405  ASP405     -0.2718
     10  CB        21.8230   16.5290  181.6560 C.3   405  ASP405      0.1424
     11  CG        20.9210   17.1560  182.6970 C.2   405  ASP405      0.3668
     12  OD1       20.1010   18.0250  182.3340 O.co2 405  ASP405     -0.2456
     13  OD2       21.0430   16.7880  183.8840 O.co2 405  ASP405     -0.2456
     14  N         18.6960   15.8590  180.6630 N.am  406  VAL406     -0.1966
     15  CA        17.4740   16.5250  180.2260 C.3   406  VAL406      0.1727
     16  C         17.3220   17.8410  180.9790 C.2   406  VAL406      0.2616
     17  O         17.0130   17.8520  182.1700 O.2   406  VAL406     -0.2715
     18  CB        16.2270   15.6540  180.4630 C.3   406  VAL406      0.0290
     19  CG1       14.9630   16.4440  180.1610 C.3   406  VAL406      0.0023
     20  CG2       16.2930   14.3930  179.6160 C.3   406  VAL406      0.0023
     21  N         17.5420   18.9450  180.2740 N.am  407  LYS407     -0.1963
     22  CA        17.5970   20.2670  180.8910 C.3   407  LYS407      0.1728
     23  C         16.4290   20.5590  181.8310 C.2   407  LYS407      0.2616
     24  O         15.2640   20.3820  181.4720 O.2   407  LYS407     -0.2715
     25  CB        17.6890   21.3520  179.8150 C.3   407  LYS407      0.0311
     26  CG        17.9550   22.7480  180.3550 C.3   407  LYS407      0.0038
     27  CD        18.1520   23.7430  179.2230 C.3   407  LYS407      0.0206
     28  CE        18.4920   25.1260  179.7500 C.3   407  LYS407      0.1093
     29  NZ        18.7160   26.0930  178.6400 N.3   407  LYS407     -0.1314
     30  N         16.7600   21.0020  183.0410 N.am  408  ASP408     -0.1957
     31  CA        15.7660   21.4320  184.0200 C.3   408  ASP408      0.1840
     32  C         14.7540   20.3450  184.3740 C.2   408  ASP408      0.2621
     33  O         13.6040   20.6420  184.7000 O.2   408  ASP408     -0.2715
     34  CB        15.0440   22.6890  183.5280 C.3   408  ASP408      0.1450
     35  CG        15.9840   23.8650  183.3430 C.2   408  ASP408      0.3671
     36  OD1       16.9480   23.9870  184.1290 O.co2 408  ASP408     -0.2456
     37  OD2       15.7600   24.6650  182.4120 O.co2 408  ASP408     -0.2456
     38  N         15.1880   19.0890  184.3160 N.am  409  GLU409     -0.1977
     39  CA        14.3340   17.9620  184.6750 C.3   409  GLU409      0.1602
     40  C         12.9660   18.0440  184.0060 C.2   409  GLU409      0.2287
     41  O         11.9500   17.7070  184.6140 O.2   409  GLU409     -0.2864
     42  CB        14.1610   17.8860  186.1930 C.3   409  GLU409      0.0415
     43  CG        15.4640   17.7510  186.9640 C.3   409  GLU409      0.1163
     44  CD        15.2440   17.6180  188.4580 C.2   409  GLU409      0.3649
     45  OE1       16.2440   17.5890  189.2060 O.co2 409  GLU409     -0.2457
     46  OE2       14.0730   17.5410  188.8840 O.co2 409  GLU409     -0.2457
     47  N         21.0320   18.4490  177.0710 N.3   418  ILE418     -0.1245
     48  CA        22.3150   19.1240  177.2160 C.3   418  ILE418      0.1561
     49  C         23.2870   18.2410  177.9860 C.2   418  ILE418      0.2260
     50  O         22.8960   17.2150  178.5410 O.2   418  ILE418     -0.2867
     51  CB        22.1660   20.4470  177.9860 C.3   418  ILE418      0.0252
     52  CG1       21.7310   20.1710  179.4280 C.3   418  ILE418      0.0019
     53  CG2       21.1770   21.3680  177.2870 C.3   418  ILE418      0.0019
     54  CD1       21.5580   21.4190  180.2660 C.3   418  ILE418      0.0001
     55  N         25.5940   18.1100  181.3010 N.3   420  TYR420     -0.1241
     56  CA        25.6020   18.7930  182.5870 C.3   420  TYR420      0.1605
     57  C         26.4480   18.0350  183.6010 C.2   420  TYR420      0.2264
     58  O         26.7670   16.8630  183.4040 O.2   420  TYR420     -0.2867
     59  CB        24.1710   18.9470  183.1060 C.3   420  TYR420      0.0534
     60  CG        23.9940   20.0330  184.1430 C.ar  420  TYR420     -0.0201
     61  CD1       23.8910   21.3660  183.7680 C.ar  420  TYR420     -0.0009
     62  CD2       23.9150   19.7260  185.4940 C.ar  420  TYR420     -0.0009
     63  CE1       23.7240   22.3640  184.7100 C.ar  420  TYR420      0.0417
     64  CE2       23.7480   20.7170  186.4440 C.ar  420  TYR420      0.0417
     65  CZ        23.6530   22.0350  186.0460 C.ar  420  TYR420      0.1957
     66  OH        23.4860   23.0260  186.9860 O.3   420  TYR420     -0.2866
     67  N         24.9170   14.8200  188.6390 N.3   423  ASN423     -0.1240
     68  CA        24.2710   15.1360  189.9070 C.3   423  ASN423      0.1653
     69  C         23.3620   14.0170  190.4060 C.2   423  ASN423      0.2266
     70  O         22.5630   14.2140  191.3200 O.2   423  ASN423     -0.2867
     71  CB        23.4960   16.4510  189.8020 C.3   423  ASN423      0.1155
     72  CG        22.5030   16.4540  188.6590 C.2   423  ASN423      0.2627
     73  OD1       22.0720   15.3990  188.1930 O.2   423  ASN423     -0.2716
     74  ND2       22.1340   17.6430  188.1990 N.am  423  ASN423     -0.0877
     75  N         17.1020   12.4960  185.6540 N.3   427  ASN427     -0.1240
     76  CA        17.1060   13.1190  184.3370 C.3   427  ASN427      0.1653
     77  C         18.4610   12.9520  183.6570 C.2   427  ASN427      0.2266
     78  O         18.6910   13.4710  182.5630 O.2   427  ASN427     -0.2867
     79  CB        16.7210   14.5980  184.4320 C.3   427  ASN427      0.1155
     80  CG        17.6860   15.3990  185.2800 C.2   427  ASN427      0.2627
     81  OD1       17.7300   15.2510  186.5020 O.2   427  ASN427     -0.2716
     82  ND2       18.4590   16.2650  184.6350 N.am  427  ASN427     -0.0877
@<TRIPOS>BOND
     1    47    48    1
     2    48    49    1
     3    48    51    1
     4    53    51    1
     5     4     3    2
     6    49    50    2
     7    51    52    1
     8     3     2    1
     9    29    28    1
    10     9     8    2
    11    27    28    1
    12    27    26    1
    13    52    54    1
    14    20    18    1
    15     6     7    1
    16    25    26    1
    17    25    22    1
    18     2     1    1
    19     2     5    1
    20     8    14   am
    21     8     7    1
    22    19    18    1
    23    15    18    1
    24    15    14    1
    25    15    16    1
    26    21    22    1
    27    21    16   am
    28     7    10    1
    29    22    23    1
    30    16    17    2
    31    55    56    1
    32    24    23    2
    33    10    11    1
    34    23    30   am
    35    12    11   ar
    36    37    35   ar
    37    78    77    2
    38    56    59    1
    39    56    57    1
    40    11    13   ar
    41    30    31    1
    42    59    60    1
    43    35    34    1
    44    35    36   ar
    45    58    57    2
    46    34    31    1
    47    77    76    1
    48    61    60   ar
    49    61    63   ar
    50    40    41    2
    51    40    39    1
    52    31    32    1
    53    60    62   ar
    54    38    32   am
    55    38    39    1
    56    76    79    1
    57    76    75    1
    58    32    33    2
    59    79    80    1
    60    82    80   am
    61    39    42    1
    62    63    65   ar
    63    80    81    2
    64    62    64   ar
    65    65    64   ar
    66    65    66    1
    67    42    43    1
    68    43    44    1
    69    73    72    2
    70    74    72   am
    71    44    46   ar
    72    44    45   ar
    73    67    68    1
    74    72    71    1
    75    71    68    1
    76    68    69    1
    77    69    70    2
