@<TRIPOS>MOLECULE
tmp/3vt2F01.pdb
 141 137 0 0 0
SMALL
GASTEIGER

@<TRIPOS>ATOM
      1  N         15.0060   -9.9780  194.4390 N.3    37  GLU37      -0.1245
      2  CA        14.3230   -9.2660  193.3660 C.3    37  GLU37       0.1567
      3  C         14.3610   -7.7580  193.5790 C.2    37  GLU37       0.2260
      4  O         14.3530   -7.2770  194.7120 O.2    37  GLU37      -0.2867
      5  CB        12.8630   -9.7170  193.2680 C.3    37  GLU37       0.0388
      6  CG        12.6640  -11.2140  193.1050 C.3    37  GLU37       0.1160
      7  CD        11.1990  -11.6100  193.1470 C.2    37  GLU37       0.3649
      8  OE1       10.3370  -10.7340  192.9220 O.co2  37  GLU37      -0.2457
      9  OE2       10.9070  -12.7950  193.4110 O.co2  37  GLU37      -0.2457
     10  N         11.9200  -13.9010  189.1810 N.3    80  GLU80      -0.1231
     11  CA        11.4930  -14.1440  190.5530 C.3    80  GLU80       0.1699
     12  C         12.3730  -15.1620  191.2700 C.2    80  GLU80       0.2592
     13  O         12.8180  -16.1460  190.6790 O.2    80  GLU80      -0.2718
     14  CB        10.0340  -14.6040  190.5860 C.3    80  GLU80       0.0402
     15  CG         9.0390  -13.5540  190.1240 C.3    80  GLU80       0.1161
     16  CD         7.6030  -14.0170  190.2680 C.2    80  GLU80       0.3649
     17  OE1        7.3890  -15.2170  190.5380 O.co2  80  GLU80      -0.2457
     18  OE2        6.6890  -13.1800  190.1150 O.co2  80  GLU80      -0.2457
     19  N         12.6160  -14.9080  192.5520 N.am   81  ARG81      -0.1980
     20  CA        13.3420  -15.8360  193.4130 C.3    81  ARG81       0.1597
     21  C         14.7200  -16.2230  192.8820 C.2    81  ARG81       0.2287
     22  O         15.0070  -17.4050  192.6990 O.2    81  ARG81      -0.2864
     23  CB        12.5000  -17.0880  193.6680 C.3    81  ARG81       0.0334
     24  CG        11.1440  -16.7890  194.2840 C.3    81  ARG81       0.0492
     25  CD        10.3820  -18.0560  194.6270 C.3    81  ARG81       0.2205
     26  NE         9.1370  -17.7530  195.3250 N.pl3  81  ARG81      -0.0865
     27  CZ         9.0450  -17.5680  196.6380 C.cat  81  ARG81       0.5346
     28  NH1       10.1290  -17.6590  197.3970 N.pl3  81  ARG81       0.1354
     29  NH2        7.8730  -17.2940  197.1920 N.pl3  81  ARG81       0.1354
     30  N         13.6980  -17.7000  188.2980 N.3    98  HIS98      -0.1241
     31  CA        12.4500  -17.9990  187.6070 C.3    98  HIS98       0.1621
     32  C         12.1410  -16.8990  186.5970 C.2    98  HIS98       0.2264
     33  O         11.9420  -15.7430  186.9710 O.2    98  HIS98      -0.2867
     34  CB        11.3080  -18.1230  188.6190 C.3    98  HIS98       0.0745
     35  CG         9.9540  -18.2470  187.9940 C.ar   98  HIS98       0.0817
     36  ND1        8.7900  -17.9930  188.6870 N.ar   98  HIS98      -0.2268
     37  CD2        9.5770  -18.6000  186.7430 C.ar   98  HIS98       0.1154
     38  CE1        7.7550  -18.1800  187.8890 C.ar   98  HIS98       0.1986
     39  NE2        8.2050  -18.5500  186.7030 N.ar   98  HIS98      -0.2212
     40  N          2.2620  -15.4380  183.8390 N.3   105  TYR105     -0.1241
     41  CA         3.1230  -16.5140  184.3140 C.3   105  TYR105      0.1605
     42  C          2.9980  -17.7440  183.4210 C.2   105  TYR105      0.2264
     43  O          3.2680  -18.8640  183.8530 O.2   105  TYR105     -0.2867
     44  CB         2.7700  -16.8850  185.7580 C.3   105  TYR105      0.0534
     45  CG         3.0840  -15.8090  186.7740 C.ar  105  TYR105     -0.0201
     46  CD1        4.2510  -15.8570  187.5260 C.ar  105  TYR105     -0.0009
     47  CD2        2.2130  -14.7470  186.9830 C.ar  105  TYR105     -0.0009
     48  CE1        4.5420  -14.8770  188.4570 C.ar  105  TYR105      0.0417
     49  CE2        2.4970  -13.7630  187.9110 C.ar  105  TYR105      0.0417
     50  CZ         3.6620  -13.8330  188.6450 C.ar  105  TYR105      0.1957
     51  OH         3.9480  -12.8550  189.5700 O.3   105  TYR105     -0.2866
     52  N          8.5670  -22.6650  187.8190 N.3   147  ARG147     -0.1231
     53  CA         8.2610  -21.3910  188.4610 C.3   147  ARG147      0.1694
     54  C          9.0930  -21.1780  189.7260 C.2   147  ARG147      0.2592
     55  O         10.3080  -20.9920  189.6480 O.2   147  ARG147     -0.2718
     56  CB         6.7650  -21.2840  188.7700 C.3   147  ARG147      0.0321
     57  CG         5.8860  -21.1510  187.5350 C.3   147  ARG147      0.0489
     58  CD         4.4760  -20.7210  187.9090 C.3   147  ARG147      0.2205
     59  NE         3.6580  -20.4200  186.7370 N.pl3 147  ARG147     -0.0865
     60  CZ         2.7750  -21.2580  186.2050 C.cat 147  ARG147      0.5346
     61  NH1        2.5890  -22.4560  186.7420 N.pl3 147  ARG147      0.1354
     62  NH2        2.0740  -20.8990  185.1390 N.pl3 147  ARG147      0.1354
     63  N          8.4380  -21.2010  190.8850 N.am  148  ASP148     -0.1974
     64  CA         9.1320  -21.0310  192.1610 C.3   148  ASP148      0.1709
     65  C         10.3100  -21.9910  192.2700 C.2   148  ASP148      0.2293
     66  O         10.1400  -23.2070  192.1910 O.2   148  ASP148     -0.2864
     67  CB         8.1740  -21.2350  193.3370 C.3   148  ASP148      0.1436
     68  CG         7.3150  -20.0160  193.6060 C.2   148  ASP148      0.3671
     69  OD1        7.1010  -19.2190  192.6690 O.co2 148  ASP148     -0.2456
     70  OD2        6.8520  -19.8550  194.7550 O.co2 148  ASP148     -0.2456
     71  N          2.3900  -26.0360  188.8900 N.3   168  ASN168     -0.1240
     72  CA         2.6400  -25.8940  190.3230 C.3   168  ASN168      0.1653
     73  C          2.1490  -27.0720  191.1600 C.2   168  ASN168      0.2266
     74  O          2.2730  -27.0640  192.3850 O.2   168  ASN168     -0.2867
     75  CB         2.0350  -24.5900  190.8480 C.3   168  ASN168      0.1155
     76  CG         2.6500  -23.3630  190.2070 C.2   168  ASN168      0.2627
     77  OD1        3.3590  -23.4610  189.2050 O.2   168  ASN168     -0.2716
     78  ND2        2.3820  -22.1980  190.7820 N.am  168  ASN168     -0.0877
     79  N          4.7820  -25.1350  196.9000 N.3   197  GLU197     -0.1245
     80  CA         5.6610  -24.2280  196.1670 C.3   197  GLU197      0.1567
     81  C          6.6430  -23.5140  197.0900 C.2   197  GLU197      0.2260
     82  O          6.7250  -23.8150  198.2810 O.2   197  GLU197     -0.2867
     83  CB         4.8510  -23.1930  195.3840 C.3   197  GLU197      0.0388
     84  CG         4.1000  -22.2180  196.2740 C.3   197  GLU197      0.1160
     85  CD         3.5430  -21.0300  195.5150 C.2   197  GLU197      0.3649
     86  OE1        3.8950  -20.8590  194.3280 O.co2 197  GLU197     -0.2457
     87  OE2        2.7560  -20.2620  196.1080 O.co2 197  GLU197     -0.2457
     88  N         -0.1820  -22.9140  197.5860 N.3   215  CYS215     -0.1221
     89  CA        -0.3210  -22.0020  196.4550 C.3   215  CYS215      0.1808
     90  C         -1.5460  -21.1080  196.6150 C.2   215  CYS215      0.2602
     91  O         -2.6410  -21.4510  196.1690 O.2   215  CYS215     -0.2717
     92  CB        -0.4010  -22.7810  195.1400 C.3   215  CYS215      0.0970
     93  SG         1.0730  -23.7600  194.7630 S.3   215  CYS215     -0.0800
     94  N         -1.3560  -19.9590  197.2540 N.am  216  THR216     -0.1939
     95  CA        -2.4550  -19.0330  197.4910 C.3   216  THR216      0.2028
     96  C         -2.1060  -17.6190  197.0350 C.2   216  THR216      0.2643
     97  O         -2.5700  -16.6390  197.6160 O.2   216  THR216     -0.2714
     98  CB        -2.8600  -19.0070  198.9780 C.3   216  THR216      0.1808
     99  OG1       -1.7300  -18.6370  199.7770 O.3   216  THR216     -0.2208
    100  CG2       -3.3580  -20.3770  199.4200 C.3   216  THR216      0.0379
    101  N         -1.2880  -17.5210  195.9920 N.am  217  GLY217     -0.1939
    102  CA        -0.8940  -16.2310  195.4560 C.3   217  GLY217      0.2014
    103  C         -0.0360  -15.4430  196.4250 C.2   217  GLY217      0.2638
    104  O          0.8460  -15.9990  197.0790 O.2   217  GLY217     -0.2714
    105  N         -0.2940  -14.1420  196.5170 N.am  218  TRP218     -0.1973
    106  CA         0.4470  -13.2830  197.4320 C.3   218  TRP218      0.1640
    107  C          0.0430  -13.5430  198.8780 C.2   218  TRP218      0.2290
    108  O          0.8440  -13.3740  199.7980 O.2   218  TRP218     -0.2864
    109  CB         0.2290  -11.8090  197.0880 C.3   218  TRP218      0.0576
    110  CG         0.7570  -11.4130  195.7440 C.ar  218  TRP218      0.0006
    111  CD1        0.0330  -10.9630  194.6800 C.ar  218  TRP218      0.0946
    112  CD2        2.1240  -11.4360  195.3190 C.ar  218  TRP218      0.0152
    113  NE1        0.8650  -10.7000  193.6190 N.ar  218  TRP218     -0.2442
    114  CE2        2.1550  -10.9830  193.9860 C.ar  218  TRP218      0.0810
    115  CE3        3.3260  -11.7940  195.9370 C.ar  218  TRP218      0.0012
    116  CZ2        3.3380  -10.8790  193.2590 C.ar  218  TRP218      0.0191
    117  CZ3        4.5000  -11.6890  195.2140 C.ar  218  TRP218      0.0001
    118  CH2        4.4970  -11.2360  193.8900 C.ar  218  TRP218      0.0015
    119  N          6.0520  -15.7350  203.5330 N.3   250  GLN250     -0.1245
    120  CA         6.2190  -16.9170  202.6970 C.3   250  GLN250      0.1566
    121  C          7.6890  -17.3060  202.5920 C.2   250  GLN250      0.2260
    122  O          8.5320  -16.4720  202.2640 O.2   250  GLN250     -0.2867
    123  CB         5.6350  -16.6810  201.3030 C.3   250  GLN250      0.0367
    124  CG         5.7310  -17.8870  200.3820 C.3   250  GLN250      0.0905
    125  CD         5.1060  -17.6400  199.0230 C.2   250  GLN250      0.2608
    126  OE1        4.7660  -16.5080  198.6780 O.2   250  GLN250     -0.2717
    127  NE2        4.9480  -18.7030  198.2430 N.am  250  GLN250     -0.0878
    128  N          4.8650  -10.2800  201.4080 N.3   272  TRP272     -0.1241
    129  CA         4.4970   -9.6520  200.1450 C.3   272  TRP272      0.1605
    130  C          3.3880   -8.6210  200.3180 C.2   272  TRP272      0.2264
    131  O          2.3280   -8.9190  200.8690 O.2   272  TRP272     -0.2867
    132  CB         4.0820  -10.7110  199.1230 C.3   272  TRP272      0.0550
    133  CG         5.1570  -11.7110  198.8220 C.ar  272  TRP272      0.0003
    134  CD1        5.2180  -13.0040  199.2520 C.ar  272  TRP272      0.0946
    135  CD2        6.3300  -11.4970  198.0270 C.ar  272  TRP272      0.0152
    136  NE1        6.3540  -13.6110  198.7720 N.ar  272  TRP272     -0.2442
    137  CE2        7.0540  -12.7060  198.0170 C.ar  272  TRP272      0.0810
    138  CE3        6.8370  -10.4020  197.3220 C.ar  272  TRP272      0.0012
    139  CZ2        8.2570  -12.8500  197.3310 C.ar  272  TRP272      0.0191
    140  CZ3        8.0310  -10.5470  196.6410 C.ar  272  TRP272      0.0001
    141  CH2        8.7280  -11.7610  196.6510 C.ar  272  TRP272      0.0015
@<TRIPOS>BOND
     1    42    43    2
     2    42    41    1
     3    40    41    1
     4    41    44    1
     5    62    60    1
     6    44    45    1
     7    60    59    2
     8    60    61    1
     9    32    33    2
    10    32    31    1
    11    39    37   ar
    12    39    38   ar
    13    59    58    1
    14    37    35   ar
    15    45    47   ar
    16    45    46   ar
    17    47    49   ar
    18    46    48   ar
    19    57    58    1
    20    57    56    1
    21    31    30    1
    22    31    34    1
    23    52    53    1
    24    38    36   ar
    25    49    50   ar
    26    35    34    1
    27    35    36   ar
    28    48    50   ar
    29    53    56    1
    30    53    54    1
    31    50    51    1
    32    71    72    1
    33    10    11    1
    34    77    76    2
    35    55    54    2
    36    54    63   am
    37    18    16   ar
    38    15    16    1
    39    15    14    1
    40    76    78   am
    41    76    75    1
    42    16    17   ar
    43    72    75    1
    44    72    73    1
    45    11    14    1
    46    11    12    1
    47    13    12    2
    48    63    64    1
    49    73    74    2
    50    12    19   am
    51    64    65    1
    52    64    67    1
    53    66    65    2
    54    19    20    1
    55    69    68   ar
    56    22    21    2
    57    21    20    1
    58     8     7   ar
    59     6     7    1
    60     6     5    1
    61     7     9   ar
    62   116   118   ar
    63   116   114   ar
    64     5     2    1
    65    67    68    1
    66     2     3    1
    67     2     1    1
    68    20    23    1
    69     3     4    2
    70    68    70   ar
    71   113   114   ar
    72   113   111   ar
    73    23    24    1
    74   118   117   ar
    75   114   112   ar
    76    24    25    1
    77    86    85   ar
    78    25    26    1
    79   111   110   ar
    80    93    92    1
    81    92    89    1
    82   117   115   ar
    83   112   110   ar
    84   112   115   ar
    85    26    27    2
    86    83    80    1
    87    83    84    1
    88   102   101    1
    89   102   103    1
    90    85    87   ar
    91    85    84    1
    92   110   109    1
    93   101    96   am
    94    80    79    1
    95    80    81    1
    96    91    90    2
    97   103   105   am
    98   103   104    2
    99    89    90    1
   100    89    88    1
   101   105   106    1
   102    90    94   am
   103    27    29    1
   104    27    28    1
   105   140   141   ar
   106   140   138   ar
   107   141   139   ar
   108    96    95    1
   109    96    97    2
   110   109   106    1
   111    81    82    2
   112    94    95    1
   113   138   135   ar
   114   139   137   ar
   115   106   107    1
   116    95    98    1
   117   137   135   ar
   118   137   136   ar
   119   135   133   ar
   120   127   125   am
   121   126   125    2
   122   136   134   ar
   123   133   132    1
   124   133   134   ar
   125   107   108    2
   126    98   100    1
   127    98    99    1
   128   125   124    1
   129   132   129    1
   130   129   130    1
   131   129   128    1
   132   130   131    2
   133   124   123    1
   134   123   120    1
   135   122   121    2
   136   121   120    1
   137   120   119    1
