@<TRIPOS>MOLECULE
tmp/3vt6A00.pdb
 132 124 0 0 0
SMALL
GASTEIGER

@<TRIPOS>ATOM
      1  N         10.6090    4.3030   16.7900 N.3    54  ILE54      -0.1231
      2  CA        10.7760    2.9270   16.3410 C.3    54  ILE54       0.1692
      3  C         10.5580    2.8360   14.8340 C.2    54  ILE54       0.2591
      4  O         11.3080    2.1580   14.1320 O.2    54  ILE54      -0.2718
      5  CB         9.7910    1.9730   17.0600 C.3    54  ILE54       0.0266
      6  CG1       10.1020    1.9460   18.5590 C.3    54  ILE54       0.0019
      7  CG2        9.8990    0.5690   16.4790 C.3    54  ILE54       0.0020
      8  CD1        9.1470    1.0990   19.3740 C.3    54  ILE54       0.0001
      9  N          9.5400    3.5300   14.3360 N.am   55  GLN55      -0.1979
     10  CA         9.2780    3.5620   12.9020 C.3    55  GLN55       0.1601
     11  C         10.4820    4.0930   12.1350 C.2    55  GLN55       0.2287
     12  O         10.8450    3.5590   11.0890 O.2    55  GLN55      -0.2864
     13  CB         8.0650    4.4400   12.5970 C.3    55  GLN55       0.0394
     14  CG         6.7500    3.9000   13.1200 C.3    55  GLN55       0.0908
     15  CD         5.5640    4.6920   12.6100 C.2    55  GLN55       0.2608
     16  OE1        5.3360    4.7790   11.4020 O.2    55  GLN55      -0.2717
     17  NE2        4.8020    5.2780   13.5280 N.am   55  GLN55      -0.0878
     18  N         13.3790    1.6310   11.9930 N.3    58  ILE58      -0.1245
     19  CA        13.0970    0.6100   10.9900 C.3    58  ILE58       0.1561
     20  C         13.4210    1.1340    9.5920 C.2    58  ILE58       0.2260
     21  O         14.0870    0.4590    8.8060 O.2    58  ILE58      -0.2867
     22  CB        11.6150    0.1720   11.0440 C.3    58  ILE58       0.0252
     23  CG1       11.3210   -0.4860   12.3950 C.3    58  ILE58       0.0019
     24  CG2       11.3120   -0.7980    9.9080 C.3    58  ILE58       0.0019
     25  CD1        9.8520   -0.7760   12.6390 C.3    58  ILE58       0.0001
     26  N         16.3550   -0.6870    7.1860 N.3    62  LYS62      -0.1245
     27  CA        16.1030   -1.3010    5.8880 C.3    62  LYS62       0.1561
     28  C         17.1420   -0.8780    4.8570 C.2    62  LYS62       0.2260
     29  O         17.3850   -1.5890    3.8810 O.2    62  LYS62      -0.2867
     30  CB        14.7050   -0.9300    5.3860 C.3    62  LYS62       0.0271
     31  CG        13.5770   -1.4250    6.2730 C.3    62  LYS62       0.0035
     32  CD        12.3240   -1.7400    5.4680 C.3    62  LYS62       0.0206
     33  CE        11.6700   -0.4810    4.9220 C.3    62  LYS62       0.1093
     34  NZ        10.3300   -0.7730    4.3360 N.3    62  LYS62      -0.1314
     35  N         21.3750   -5.6830    5.0720 N.3    67  PHE67      -0.1241
     36  CA        20.2850   -5.9770    5.9960 C.3    67  PHE67       0.1605
     37  C         19.1340   -6.6680    5.2750 C.2    67  PHE67       0.2264
     38  O         18.4570   -7.5280    5.8430 O.2    67  PHE67      -0.2867
     39  CB        19.7840   -4.6830    6.6480 C.3    67  PHE67       0.0534
     40  CG        18.6860   -4.8940    7.6500 C.ar   67  PHE67      -0.0203
     41  CD1       18.9760   -5.3350    8.9370 C.ar   67  PHE67      -0.0042
     42  CD2       17.3590   -4.6600    7.3070 C.ar   67  PHE67      -0.0042
     43  CE1       17.9600   -5.5400    9.8710 C.ar   67  PHE67      -0.0003
     44  CE2       16.3350   -4.8610    8.2320 C.ar   67  PHE67      -0.0003
     45  CZ        16.6370   -5.3020    9.5160 C.ar   67  PHE67      -0.0000
     46  N         13.2870  -12.3660    7.0320 N.3    72  SER72      -0.1202
     47  CA        12.3980  -11.4460    7.7260 C.3    72  SER72       0.2020
     48  C         12.4380  -11.7260    9.2240 C.2    72  SER72       0.2618
     49  O         12.3490  -10.8080   10.0370 O.2    72  SER72      -0.2717
     50  CB        10.9640  -11.5930    7.2150 C.3    72  SER72       0.2103
     51  OG        10.3640  -12.7730    7.7180 O.3    72  SER72      -0.2182
     52  N         12.5810  -12.9990    9.5820 N.am   73  ASP73      -0.1973
     53  CA        12.5970  -13.4010   10.9840 C.3    73  ASP73       0.1709
     54  C         13.8220  -12.8630   11.7150 C.2    73  ASP73       0.2293
     55  O         13.7220  -12.4070   12.8550 O.2    73  ASP73      -0.2864
     56  CB        12.5570  -14.9280   11.1020 C.3    73  ASP73       0.1436
     57  CG        11.1860  -15.5020   10.7930 C.2    73  ASP73       0.3671
     58  OD1       10.6210  -15.1650    9.7300 O.co2  73  ASP73      -0.2456
     59  OD2       10.6740  -16.2890   11.6180 O.co2  73  ASP73      -0.2456
     60  N         15.5020  -10.2510   10.6210 N.3    75  GLN75      -0.1231
     61  CA        15.2480   -8.8160   10.6010 C.3    75  GLN75       0.1698
     62  C         14.4270   -8.4170   11.8220 C.2    75  GLN75       0.2592
     63  O         14.7240   -7.4200   12.4840 O.2    75  GLN75      -0.2718
     64  CB        14.4920   -8.4220    9.3300 C.3    75  GLN75       0.0381
     65  CG        15.2960   -8.5700    8.0530 C.3    75  GLN75       0.0905
     66  CD        14.5520   -8.0570    6.8350 C.2    75  GLN75       0.2608
     67  OE1       15.1080   -7.9780    5.7410 O.2    75  GLN75      -0.2717
     68  NE2       13.2860   -7.7050    7.0210 N.am   75  GLN75      -0.0878
     69  N         13.4000   -9.2090   12.1190 N.am   76  ILE76      -0.1980
     70  CA        12.5060   -8.9170   13.2330 C.3    76  ILE76       0.1595
     71  C         13.2450   -8.9820   14.5600 C.2    76  ILE76       0.2287
     72  O         13.0890   -8.1050   15.4110 O.2    76  ILE76      -0.2864
     73  CB        11.3290   -9.9170   13.2870 C.3    76  ILE76       0.0276
     74  CG1       10.4940   -9.8150   12.0080 C.3    76  ILE76       0.0022
     75  CG2       10.4710   -9.6450   14.5180 C.3    76  ILE76       0.0022
     76  CD1        9.8880   -8.4490   11.7670 C.3    76  ILE76       0.0001
     77  N         15.7860   -5.9670   15.1290 N.3    79  LEU79      -0.1231
     78  CA        15.1230   -4.6980   15.4170 C.3    79  LEU79       0.1693
     79  C         14.4490   -4.7160   16.7810 C.2    79  LEU79       0.2591
     80  O         14.4930   -3.7320   17.5200 O.2    79  LEU79      -0.2718
     81  CB        14.0810   -4.3870   14.3410 C.3    79  LEU79       0.0284
     82  CG        14.6210   -3.8850   13.0020 C.3    79  LEU79       0.0019
     83  CD1       13.4690   -3.6960   12.0270 C.3    79  LEU79       0.0001
     84  CD2       15.3690   -2.5740   13.2120 C.3    79  LEU79       0.0001
     85  N         13.8280   -5.8420   17.1100 N.am   80  LYS80      -0.1980
     86  CA        13.0650   -5.9640   18.3450 C.3    80  LYS80       0.1596
     87  C         13.9720   -5.8210   19.5650 C.2    80  LYS80       0.2287
     88  O         13.5450   -5.3370   20.6150 O.2    80  LYS80      -0.2864
     89  CB        12.3500   -7.3170   18.3800 C.3    80  LYS80       0.0298
     90  CG        11.2340   -7.4050   19.4020 C.3    80  LYS80       0.0038
     91  CD        10.3990   -8.6600   19.2040 C.3    80  LYS80       0.0206
     92  CE         9.3620   -8.8090   20.3070 C.3    80  LYS80       0.1093
     93  NZ         9.9880   -8.8890   21.6580 N.3    80  LYS80      -0.1314
     94  N          0.1880    0.5160   19.9700 N.3   232  PRO232     -0.2102
     95  CA         0.2040   -0.8660   19.4780 C.3   232  PRO232      0.1504
     96  C          1.5830   -1.3110   18.9920 C.2   232  PRO232      0.2575
     97  O          1.9730   -2.4640   19.1800 O.2   232  PRO232     -0.2718
     98  CB        -0.8310   -0.8590   18.3530 C.3   232  PRO232      0.0282
     99  CG        -1.7570    0.2590   18.7190 C.3   232  PRO232      0.0208
    100  CD        -0.8710    1.3120   19.3240 C.3   232  PRO232      0.0893
    101  N          2.3210   -0.3930   18.3730 N.am  233  LEU233     -0.1980
    102  CA         3.6570   -0.7040   17.8760 C.3   233  LEU233      0.1596
    103  C          4.6150   -0.9310   19.0370 C.2   233  LEU233      0.2287
    104  O          5.3500   -1.9200   19.0640 O.2   233  LEU233     -0.2864
    105  CB         4.1780    0.4380   16.9980 C.3   233  LEU233      0.0297
    106  CG         5.5860    0.2770   16.4150 C.3   233  LEU233      0.0022
    107  CD1        5.6480   -0.9660   15.5390 C.3   233  LEU233      0.0001
    108  CD2        5.9470    1.5180   15.6070 C.3   233  LEU233      0.0001
    109  N          3.9860   -4.1940   20.5170 N.3   236  GLU236     -0.1231
    110  CA         4.3860   -5.3070   19.6670 C.3   236  GLU236      0.1699
    111  C          5.8930   -5.5290   19.7270 C.2   236  GLU236      0.2592
    112  O          6.3580   -6.6700   19.7380 O.2   236  GLU236     -0.2718
    113  CB         3.9620   -5.0490   18.2180 C.3   236  GLU236      0.0402
    114  CG         4.2830   -6.1950   17.2670 C.3   236  GLU236      0.1161
    115  CD         3.8670   -5.9050   15.8360 C.2   236  GLU236      0.3649
    116  OE1        4.7600   -5.7460   14.9790 O.co2 236  GLU236     -0.2457
    117  OE2        2.6480   -5.8380   15.5680 O.co2 236  GLU236     -0.2457
    118  N          6.6500   -4.4370   19.7700 N.am  237  VAL237     -0.1980
    119  CA         8.1060   -4.5190   19.7200 C.3   237  VAL237      0.1595
    120  C          8.7360   -4.7130   21.0970 C.2   237  VAL237      0.2287
    121  O          9.6890   -5.4780   21.2440 O.2   237  VAL237     -0.2864
    122  CB         8.7110   -3.2540   19.0670 C.3   237  VAL237      0.0276
    123  CG1       10.2300   -3.3310   19.0860 C.3   237  VAL237      0.0022
    124  CG2        8.2120   -3.1220   17.6370 C.3   237  VAL237      0.0022
    125  N          4.5090   -8.0110   25.0030 N.3   240  ASN240     -0.1240
    126  CA         3.1640   -7.9640   25.5710 C.3   240  ASN240      0.1653
    127  C          3.0460   -8.8740   26.7940 C.2   240  ASN240      0.2266
    128  O          2.2070   -9.8010   26.7610 O.2   240  ASN240     -0.2867
    129  CB         2.1320   -8.3820   24.5180 C.3   240  ASN240      0.1155
    130  CG         2.1140   -7.4540   23.3170 C.2   240  ASN240      0.2627
    131  OD1        1.5890   -6.3410   23.3860 O.2   240  ASN240     -0.2716
    132  ND2        2.6870   -7.9080   22.2080 N.am  240  ASN240     -0.0877
@<TRIPOS>BOND
     1    29    28    2
     2    34    33    1
     3    28    27    1
     4    33    32    1
     5    35    36    1
     6    37    38    2
     7    37    36    1
     8    30    27    1
     9    30    31    1
    10    32    31    1
    11    67    66    2
    12    27    26    1
    13    36    39    1
    14    39    40    1
    15    66    68   am
    16    66    65    1
    17    46    47    1
    18    50    51    1
    19    50    47    1
    20    42    40   ar
    21    42    44   ar
    22    40    41   ar
    23    47    48    1
    24    65    64    1
    25    44    45   ar
    26    21    20    2
    27    41    43   ar
    28    48    52   am
    29    48    49    2
    30    64    61    1
    31    45    43   ar
    32    52    53    1
    33    20    19    1
    34    58    57   ar
    35    24    22    1
    36    61    60    1
    37    61    62    1
    38    57    56    1
    39    57    59   ar
    40    53    56    1
    41    53    54    1
    42    19    22    1
    43    19    18    1
    44    22    23    1
    45    12    11    2
    46    16    15    2
    47    54    55    2
    48    76    74    1
    49    62    69   am
    50    62    63    2
    51    74    73    1
    52    83    82    1
    53    69    70    1
    54    11    10    1
    55    23    25    1
    56    13    10    1
    57    13    14    1
    58    15    14    1
    59    15    17   am
    60    10     9    1
    61    82    84    1
    62    82    81    1
    63    70    73    1
    64    70    71    1
    65    73    75    1
    66     4     3    2
    67     9     3   am
    68    81    78    1
    69    71    72    2
    70     3     2    1
    71   116   115   ar
    72    77    78    1
    73    78    79    1
    74   107   106    1
    75   117   115   ar
    76   108   106    1
    77   115   114    1
    78     2     1    1
    79     2     5    1
    80   106   105    1
    81     7     5    1
    82    79    85   am
    83    79    80    2
    84   105   102    1
    85     5     6    1
    86    85    86    1
    87   114   113    1
    88   124   122    1
    89   102   101    1
    90   102   103    1
    91   113   110    1
    92    86    89    1
    93    86    87    1
    94    98    99    1
    95    98    95    1
    96   101    96   am
    97    89    90    1
    98     6     8    1
    99    99   100    1
   100    96    97    2
   101    96    95    1
   102   103   104    2
   103   122   123    1
   104   122   119    1
   105    91    90    1
   106    91    92    1
   107   100    94    1
   108    95    94    1
   109    87    88    2
   110   110   111    1
   111   110   109    1
   112   119   118    1
   113   119   120    1
   114   111   112    2
   115   111   118   am
   116    92    93    1
   117   120   121    2
   118   132   130   am
   119   130   131    2
   120   130   129    1
   121   129   126    1
   122   125   126    1
   123   126   127    1
   124   128   127    2
