@<TRIPOS>MOLECULE
tmp/3vt7A00.pdb
 136 128 0 0 0
SMALL
GASTEIGER

@<TRIPOS>ATOM
      1  N         10.7180    4.4640   16.6150 N.3    54  ILE54      -0.1231
      2  CA        10.9490    3.0920   16.1850 C.3    54  ILE54       0.1692
      3  C         10.6890    3.0740   14.6460 C.2    54  ILE54       0.2591
      4  O         11.4600    2.4460   13.9210 O.2    54  ILE54      -0.2718
      5  CB         9.9480    2.1220   16.8910 C.3    54  ILE54       0.0266
      6  CG1       10.3290    1.9780   18.3930 C.3    54  ILE54       0.0019
      7  CG2       10.0020    0.7200   16.2000 C.3    54  ILE54       0.0020
      8  CD1        9.2320    1.2230   19.2550 C.3    54  ILE54       0.0001
      9  N          9.6050    3.7040   14.1930 N.am   55  GLN55      -0.1979
     10  CA         9.3470    3.7730   12.7550 C.3    55  GLN55       0.1601
     11  C         10.5610    4.3580   12.0250 C.2    55  GLN55       0.2287
     12  O         10.9600    3.8670   10.9590 O.2    55  GLN55      -0.2864
     13  CB         8.1040    4.6250   12.4610 C.3    55  GLN55       0.0394
     14  CG         6.8460    3.9360   12.9770 C.3    55  GLN55       0.0908
     15  CD         5.5890    4.7090   12.6290 C.2    55  GLN55       0.2608
     16  OE1        4.8150    5.1000   13.5300 O.2    55  GLN55      -0.2717
     17  NE2        5.3750    4.9310   11.3230 N.am   55  GLN55      -0.0878
     18  N         13.5430    1.9030   11.9070 N.3    58  ILE58      -0.1245
     19  CA        13.2930    0.8830   10.8790 C.3    58  ILE58       0.1561
     20  C         13.5840    1.4100    9.4750 C.2    58  ILE58       0.2260
     21  O         14.2380    0.6990    8.6870 O.2    58  ILE58      -0.2867
     22  CB        11.8370    0.3670   10.9100 C.3    58  ILE58       0.0252
     23  CG1       11.5720   -0.4000   12.2250 C.3    58  ILE58       0.0019
     24  CG2       11.5640   -0.4770    9.6550 C.3    58  ILE58       0.0019
     25  CD1       10.0550   -0.4890   12.5590 C.3    58  ILE58       0.0001
     26  N         16.5900   -0.2430    7.0300 N.3    62  LYS62      -0.1245
     27  CA        16.3100   -0.7750    5.6870 C.3    62  LYS62       0.1561
     28  C         17.3200   -0.2690    4.6670 C.2    62  LYS62       0.2260
     29  O         17.5660   -0.9160    3.6280 O.2    62  LYS62      -0.2867
     30  CB        14.9160   -0.3650    5.2400 C.3    62  LYS62       0.0271
     31  CG        13.8090   -1.1270    5.9500 C.3    62  LYS62       0.0035
     32  CD        12.4360   -0.5650    5.5870 C.3    62  LYS62       0.0206
     33  CE        12.0910   -0.7990    4.1480 C.3    62  LYS62       0.1093
     34  NZ        10.6100   -0.6550    3.9800 N.3    62  LYS62      -0.1314
     35  N         21.7220   -4.9170    4.6940 N.3    67  PHE67      -0.1241
     36  CA        20.6550   -5.3000    5.5990 C.3    67  PHE67       0.1605
     37  C         19.5440   -6.0000    4.8040 C.2    67  PHE67       0.2264
     38  O         18.9570   -6.9380    5.3270 O.2    67  PHE67      -0.2867
     39  CB        20.1190   -4.0550    6.3650 C.3    67  PHE67       0.0534
     40  CG        19.0420   -4.3600    7.3670 C.ar   67  PHE67      -0.0203
     41  CD1       19.3460   -4.7690    8.6720 C.ar   67  PHE67      -0.0042
     42  CD2       17.6970   -4.2120    7.0100 C.ar   67  PHE67      -0.0042
     43  CE1       18.3320   -5.0150    9.6140 C.ar   67  PHE67      -0.0003
     44  CE2       16.6810   -4.4560    7.9360 C.ar   67  PHE67      -0.0003
     45  CZ        16.9790   -4.8490    9.2370 C.ar   67  PHE67      -0.0000
     46  N         13.6410  -11.7830    6.3280 N.3    72  SER72      -0.1202
     47  CA        12.7320  -10.9530    7.0920 C.3    72  SER72       0.2020
     48  C         12.7840  -11.3340    8.5820 C.2    72  SER72       0.2618
     49  O         12.7820  -10.4540    9.4490 O.2    72  SER72      -0.2717
     50  CB        11.3100  -11.0640    6.5350 C.3    72  SER72       0.2103
     51  OG        10.6090  -12.0330    7.2690 O.3    72  SER72      -0.2182
     52  N         12.8470  -12.6200    8.9110 N.am   73  ASP73      -0.1973
     53  CA        12.9930  -13.0580   10.3100 C.3    73  ASP73       0.1709
     54  C         14.2100  -12.4260   11.0430 C.2    73  ASP73       0.2293
     55  O         14.1140  -12.0010   12.2120 O.2    73  ASP73      -0.2864
     56  CB        13.2250  -14.5580   10.4010 C.3    73  ASP73       0.1436
     57  CG        11.9450  -15.3740   10.4530 C.2    73  ASP73       0.3671
     58  OD1       10.8190  -14.8150   10.4610 O.co2  73  ASP73      -0.2456
     59  OD2       12.1080  -16.6230   10.4860 O.co2  73  ASP73      -0.2456
     60  N         15.8660   -9.7980   10.1560 N.3    75  GLN75      -0.1231
     61  CA        15.6560   -8.3540   10.2150 C.3    75  GLN75       0.1698
     62  C         14.8040   -7.9980   11.4210 C.2    75  GLN75       0.2592
     63  O         15.1120   -7.0460   12.1610 O.2    75  GLN75      -0.2718
     64  CB        14.9760   -7.8530    8.9420 C.3    75  GLN75       0.0381
     65  CG        15.8400   -8.0980    7.6790 C.3    75  GLN75       0.0905
     66  CD        15.2130   -7.5570    6.3970 C.2    75  GLN75       0.2608
     67  OE1       14.2800   -6.7480    6.4200 O.2    75  GLN75      -0.2717
     68  NE2       15.7350   -8.0080    5.2570 N.am   75  GLN75      -0.0878
     69  N         13.7030   -8.7380   11.6140 N.am   76  ILE76      -0.1980
     70  CA        12.9120   -8.5960   12.8350 C.3    76  ILE76       0.1595
     71  C         13.6190   -8.7170   14.1760 C.2    76  ILE76       0.2287
     72  O         13.4460   -7.8570   15.0480 O.2    76  ILE76      -0.2864
     73  CB        11.7190   -9.6050   12.8530 C.3    76  ILE76       0.0276
     74  CG1       10.8760   -9.3750   11.5950 C.3    76  ILE76       0.0022
     75  CG2       10.9240   -9.4690   14.2010 C.3    76  ILE76       0.0022
     76  CD1       10.1680   -8.0820   11.5460 C.3    76  ILE76       0.0001
     77  N         15.9670   -5.7710   14.6770 N.3    79  LEU79      -0.1231
     78  CA        15.2600   -4.5130   15.0480 C.3    79  LEU79       0.1693
     79  C         14.6510   -4.5270   16.4110 C.2    79  LEU79       0.2591
     80  O         14.7140   -3.5490   17.1770 O.2    79  LEU79      -0.2718
     81  CB        14.1940   -4.1690   14.0110 C.3    79  LEU79       0.0284
     82  CG        14.9190   -3.4050   12.8940 C.3    79  LEU79       0.0019
     83  CD1       14.0890   -3.5640   11.6410 C.3    79  LEU79       0.0001
     84  CD2       15.1760   -1.8950   13.2960 C.3    79  LEU79       0.0001
     85  N         14.0310   -5.6330   16.7680 N.am   80  LYS80      -0.1980
     86  CA        13.4390   -5.6720   18.1000 C.3    80  LYS80       0.1596
     87  C         14.5100   -5.5120   19.2000 C.2    80  LYS80       0.2287
     88  O         14.2860   -4.9350   20.2630 O.2    80  LYS80      -0.2864
     89  CB        12.7490   -7.0360   18.2990 C.3    80  LYS80       0.0298
     90  CG        11.2400   -7.0630   18.2000 C.3    80  LYS80       0.0038
     91  CD        10.7790   -8.5550   18.2680 C.3    80  LYS80       0.0206
     92  CE         9.8060   -8.9300   19.4120 C.3    80  LYS80       0.1093
     93  NZ         9.8690   -8.1140   20.6420 N.3    80  LYS80      -0.1314
     94  N          0.3140    0.5790   19.6470 N.3   222  PRO222     -0.2102
     95  CA         0.3950   -0.8250   19.1810 C.3   222  PRO222      0.1504
     96  C          1.8010   -1.2390   18.7550 C.2   222  PRO222      0.2575
     97  O          2.2680   -2.3690   19.0400 O.2   222  PRO222     -0.2718
     98  CB        -0.5920   -0.8670   18.0090 C.3   222  PRO222      0.0282
     99  CG        -1.6730    0.1360   18.4140 C.3   222  PRO222      0.0208
    100  CD        -0.8330    1.2940   19.0910 C.3   222  PRO222      0.0893
    101  N          2.5140   -0.3130   18.0990 N.am  223  LEU223     -0.1980
    102  CA         3.8790   -0.6740   17.6960 C.3   223  LEU223      0.1596
    103  C          4.8340   -0.8800   18.8290 C.2   223  LEU223      0.2287
    104  O          5.6410   -1.8140   18.7980 O.2   223  LEU223     -0.2864
    105  CB         4.4150    0.3590   16.6610 C.3   223  LEU223      0.0297
    106  CG         5.8070    0.0990   16.1150 C.3   223  LEU223      0.0022
    107  CD1        5.8140   -1.1670   15.2230 C.3   223  LEU223      0.0001
    108  CD2        6.2240    1.3730   15.2960 C.3   223  LEU223      0.0001
    109  N          4.2320   -4.2270   20.3380 N.3   226  GLU226     -0.1231
    110  CA         4.7300   -5.3090   19.4880 C.3   226  GLU226      0.1699
    111  C          6.2460   -5.3800   19.5470 C.2   226  GLU226      0.2592
    112  O          6.8240   -6.4520   19.6860 O.2   226  GLU226     -0.2718
    113  CB         4.2750   -5.1180   18.0410 C.3   226  GLU226      0.0402
    114  CG         4.8260   -6.2170   17.1400 C.3   226  GLU226      0.1161
    115  CD         4.4750   -6.0320   15.6470 C.2   226  GLU226      0.3649
    116  OE1        5.4570   -5.8950   14.8690 O.co2 226  GLU226     -0.2457
    117  OE2        3.2770   -6.0400   15.2810 O.co2 226  GLU226     -0.2457
    118  N          6.9090   -4.2300   19.4850 N.am  227  VAL227     -0.1980
    119  CA         8.3730   -4.2690   19.4580 C.3   227  VAL227      0.1595
    120  C          8.9920   -4.5280   20.8390 C.2   227  VAL227      0.2287
    121  O          9.9070   -5.3590   20.9920 O.2   227  VAL227     -0.2864
    122  CB         8.9400   -2.9610   18.8220 C.3   227  VAL227      0.0276
    123  CG1       10.5000   -2.9880   18.8890 C.3   227  VAL227      0.0022
    124  CG2        8.4730   -2.8060   17.3900 C.3   227  VAL227      0.0022
    125  N          7.3250   -5.4940   23.5670 N.3   229  GLY229     -0.1210
    126  CA         6.7260   -6.6570   24.1870 C.3   229  GLY229      0.1956
    127  C          5.3930   -6.3250   24.8010 C.2   229  GLY229      0.2611
    128  O          5.0750   -5.1420   25.1150 O.2   229  GLY229     -0.2717
    129  N          4.5910   -7.3870   24.9480 N.am  230  ASN230     -0.1974
    130  CA         3.2200   -7.2980   25.4170 C.3   230  ASN230      0.1688
    131  C          2.9650   -8.6050   26.2000 C.2   230  ASN230      0.2292
    132  O          3.0270   -8.5750   27.4560 O.2   230  ASN230     -0.2864
    133  CB         2.2860   -7.1850   24.2050 C.3   230  ASN230      0.1181
    134  CG         0.8370   -6.8840   24.5910 C.2   230  ASN230      0.2629
    135  OD1        0.4810   -6.8380   25.7730 O.2   230  ASN230     -0.2716
    136  ND2       -0.0130   -6.6780   23.5770 N.am  230  ASN230     -0.0877
@<TRIPOS>BOND
     1    29    28    2
     2    34    33    1
     3    33    32    1
     4    28    27    1
     5    35    36    1
     6    37    38    2
     7    37    36    1
     8    30    27    1
     9    30    31    1
    10    68    66   am
    11    32    31    1
    12    36    39    1
    13    27    26    1
    14    46    47    1
    15    39    40    1
    16    66    67    2
    17    66    65    1
    18    50    47    1
    19    50    51    1
    20    42    40   ar
    21    42    44   ar
    22    47    48    1
    23    40    41   ar
    24    65    64    1
    25    44    45   ar
    26    48    52   am
    27    48    49    2
    28    41    43   ar
    29    21    20    2
    30    52    53    1
    31    64    61    1
    32    45    43   ar
    33    20    19    1
    34    24    22    1
    35    60    61    1
    36    61    62    1
    37    53    56    1
    38    53    54    1
    39    56    57    1
    40    57    58   ar
    41    57    59   ar
    42    19    22    1
    43    19    18    1
    44    22    23    1
    45    12    11    2
    46    54    55    2
    47    17    15   am
    48    62    69   am
    49    62    63    2
    50    76    74    1
    51    74    73    1
    52    69    70    1
    53    83    82    1
    54    11    10    1
    55    23    25    1
    56    13    10    1
    57    13    14    1
    58    15    14    1
    59    15    16    2
    60    10     9    1
    61    70    73    1
    62    70    71    1
    63    73    75    1
    64    82    84    1
    65    82    81    1
    66     4     3    2
    67    81    78    1
    68    71    72    2
    69     9     3   am
    70     3     2    1
    71    77    78    1
    72   116   115   ar
    73    78    79    1
    74   107   106    1
    75   117   115   ar
    76   108   106    1
    77   115   114    1
    78   106   105    1
    79     2     1    1
    80     2     5    1
    81     7     5    1
    82    79    85   am
    83    79    80    2
    84   105   102    1
    85    85    86    1
    86     5     6    1
    87   114   113    1
    88   124   122    1
    89   102   101    1
    90   102   103    1
    91    98    99    1
    92    98    95    1
    93   113   110    1
    94   101    96   am
    95    86    89    1
    96    86    87    1
    97    90    91    1
    98    90    89    1
    99    91    92    1
   100     6     8    1
   101    99   100    1
   102    96    97    2
   103    96    95    1
   104   104   103    2
   105   122   123    1
   106   122   119    1
   107   100    94    1
   108    95    94    1
   109    87    88    2
   110    92    93    1
   111   119   118    1
   112   119   120    1
   113   118   111   am
   114   110   111    1
   115   110   109    1
   116   111   112    2
   117   120   121    2
   118   125   126    1
   119   136   134   am
   120   126   127    1
   121   133   134    1
   122   133   130    1
   123   134   135    2
   124   127   129   am
   125   127   128    2
   126   129   130    1
   127   130   131    1
   128   131   132    2
