@<TRIPOS>MOLECULE
tmp/3vt7A01.pdb
 242 228 0 0 0
SMALL
GASTEIGER

@<TRIPOS>ATOM
      1  N         15.7340   11.4390   10.3060 N.3    21  TYR21      -0.1241
      2  CA        15.8500   12.2300   11.5420 C.3    21  TYR21       0.1605
      3  C         15.6180   13.7020   11.2180 C.2    21  TYR21       0.2264
      4  O         16.4840   14.3380   10.6590 O.2    21  TYR21      -0.2867
      5  CB        17.2530   12.0660   12.1630 C.3    21  TYR21       0.0534
      6  CG        17.3860   12.6470   13.5550 C.ar   21  TYR21      -0.0201
      7  CD1       17.4860   14.0420   13.7470 C.ar   21  TYR21      -0.0009
      8  CD2       17.3930   11.8180   14.6870 C.ar   21  TYR21      -0.0009
      9  CE1       17.5850   14.5940   15.0390 C.ar   21  TYR21       0.0417
     10  CE2       17.4900   12.3690   16.0030 C.ar   21  TYR21       0.0417
     11  CZ        17.5810   13.7630   16.1490 C.ar   21  TYR21       0.1957
     12  OH        17.5920   14.3160   17.4030 O.3    21  TYR21      -0.2866
     13  N         11.6340   18.6020   14.3590 N.3    25  TYR25      -0.1241
     14  CA        10.5270   18.0530   15.1360 C.3    25  TYR25       0.1605
     15  C          9.1580   18.4460   14.5880 C.2    25  TYR25       0.2264
     16  O          8.1840   18.6100   15.3670 O.2    25  TYR25      -0.2867
     17  CB        10.6110   18.5490   16.5780 C.3    25  TYR25       0.0534
     18  CG        11.7840   18.0570   17.3840 C.ar   25  TYR25      -0.0201
     19  CD1       11.8360   18.2950   18.7740 C.ar   25  TYR25      -0.0009
     20  CD2       12.8280   17.3170   16.7900 C.ar   25  TYR25      -0.0009
     21  CE1       12.8850   17.8100   19.5340 C.ar   25  TYR25       0.0417
     22  CE2       13.8700   16.8260   17.5340 C.ar   25  TYR25       0.0417
     23  CZ        13.9020   17.0730   18.8940 C.ar   25  TYR25       0.1957
     24  OH        14.9710   16.6080   19.6260 O.3    25  TYR25      -0.2866
     25  N          6.2590   16.3540   15.9110 N.3    28  PHE28      -0.1241
     26  CA         5.9630   16.1670   17.3290 C.3    28  PHE28       0.1605
     27  C          4.6420   16.7460   17.7430 C.2    28  PHE28       0.2264
     28  O          4.0720   16.3210   18.7230 O.2    28  PHE28      -0.2867
     29  CB         7.0110   16.7970   18.2520 C.3    28  PHE28       0.0534
     30  CG         8.3150   16.0280   18.3380 C.ar   28  PHE28      -0.0203
     31  CD1        8.8620   15.3960   17.2070 C.ar   28  PHE28      -0.0042
     32  CD2        9.0140   15.9970   19.5090 C.ar   28  PHE28      -0.0042
     33  CE1       10.1020   14.7360   17.2660 C.ar   28  PHE28      -0.0003
     34  CE2       10.2750   15.3400   19.5780 C.ar   28  PHE28      -0.0003
     35  CZ        10.8100   14.7140   18.4740 C.ar   28  PHE28      -0.0000
     36  N          3.7630    9.5900   30.0700 N.3    43  LEU43      -0.1245
     37  CA         3.8150    8.3400   29.3490 C.3    43  LEU43       0.1561
     38  C          3.1590    8.4450   27.9580 C.2    43  LEU43       0.2260
     39  O          3.7240    7.9260   26.9670 O.2    43  LEU43      -0.2867
     40  CB         3.1580    7.1990   30.1540 C.3    43  LEU43       0.0270
     41  CG         3.1860    5.8370   29.4480 C.3    43  LEU43       0.0019
     42  CD1        4.6090    5.4500   28.9960 C.3    43  LEU43       0.0001
     43  CD2        2.5900    4.7900   30.4030 C.3    43  LEU43       0.0001
     44  N          5.7000   10.4540   25.6530 N.3    46  LEU46      -0.1231
     45  CA         6.9300    9.7440   25.3800 C.3    46  LEU46       0.1693
     46  C          6.6750    8.4010   24.7030 C.2    46  LEU46       0.2591
     47  O          7.5140    7.9740   23.8800 O.2    46  LEU46      -0.2718
     48  CB         7.7750    9.5530   26.6530 C.3    46  LEU46       0.0284
     49  CG         8.2780   10.9000   27.2330 C.3    46  LEU46       0.0019
     50  CD1        9.1430   10.6350   28.4840 C.3    46  LEU46       0.0001
     51  CD2        9.1370   11.6360   26.1790 C.3    46  LEU46       0.0001
     52  N          5.5290    7.7400   24.9870 N.am   47  ALA47      -0.1980
     53  CA         5.2440    6.5210   24.2190 C.3    47  ALA47       0.1597
     54  C          5.0970    6.8590   22.7430 C.2    47  ALA47       0.2287
     55  O          5.5610    6.1150   21.8990 O.2    47  ALA47      -0.2864
     56  CB         3.9720    5.8600   24.7040 C.3    47  ALA47       0.0319
     57  N          6.4050    9.4870   21.1100 N.3    49  LEU49      -0.1231
     58  CA         7.7260    9.8280   20.5970 C.3    49  LEU49       0.1693
     59  C          8.5480    8.5570   20.3230 C.2    49  LEU49       0.2591
     60  O          9.2040    8.4470   19.3180 O.2    49  LEU49      -0.2718
     61  CB         8.4580   10.6970   21.6290 C.3    49  LEU49       0.0284
     62  CG         9.9630   10.8740   21.3880 C.3    49  LEU49       0.0019
     63  CD1       10.1740   11.5110   20.0310 C.3    49  LEU49       0.0001
     64  CD2       10.5960   11.7000   22.5850 C.3    49  LEU49       0.0001
     65  N          8.5270    7.6280   21.2620 N.am   50  VAL50      -0.1980
     66  CA         9.2830    6.3970   21.0370 C.3    50  VAL50       0.1595
     67  C          8.7060    5.5850   19.8740 C.2    50  VAL50       0.2287
     68  O          9.4730    5.0020   19.0750 O.2    50  VAL50      -0.2864
     69  CB         9.3150    5.5820   22.3430 C.3    50  VAL50       0.0276
     70  CG1        9.8130    4.1030   22.0620 C.3    50  VAL50       0.0022
     71  CG2       10.2940    6.2450   23.3030 C.3    50  VAL50       0.0022
     72  N          7.0880    6.6730   17.2580 N.3    52  TYR52      -0.1227
     73  CA         7.5220    7.4140   16.0640 C.3    52  TYR52       0.1736
     74  C          8.9620    7.0710   15.7320 C.2    52  TYR52       0.2596
     75  O          9.3310    6.8580   14.5690 O.2    52  TYR52      -0.2718
     76  CB         7.3500    8.9040   16.3490 C.3    52  TYR52       0.0548
     77  CG         7.9190    9.8440   15.3280 C.ar   52  TYR52      -0.0200
     78  CD1        7.1680   10.2140   14.2130 C.ar   52  TYR52      -0.0009
     79  CD2        9.1780   10.3620   15.4680 C.ar   52  TYR52      -0.0009
     80  CE1        7.7260   11.1220   13.2430 C.ar   52  TYR52       0.0417
     81  CE2        9.7120   11.2610   14.5390 C.ar   52  TYR52       0.0417
     82  CZ         8.9930   11.6370   13.4450 C.ar   52  TYR52       0.1957
     83  OH         9.5110   12.6300   12.5790 O.3    52  TYR52      -0.2866
     84  N          9.7910    7.0120   16.7610 N.am   53  SER53      -0.1952
     85  CA        11.2010    6.8730   16.5290 C.3    53  SER53       0.1924
     86  C         11.5030    5.4200   16.1030 C.2    53  SER53       0.2314
     87  O         12.4850    5.1940   15.3780 O.2    53  SER53      -0.2863
     88  CB        11.9600    7.2140   17.8120 C.3    53  SER53       0.2116
     89  OG        11.7700    8.6070   18.1240 O.3    53  SER53      -0.2180
     90  N         15.5500    0.0620   21.0560 N.3    84  ILE84      -0.1245
     91  CA        15.7450    1.0100   22.1750 C.3    84  ILE84       0.1561
     92  C         17.1950    1.5870   22.1880 C.2    84  ILE84       0.2260
     93  O         17.3950    2.7440   22.5390 O.2    84  ILE84      -0.2867
     94  CB        15.4260    0.3380   23.5560 C.3    84  ILE84       0.0252
     95  CG1       15.4920    1.3470   24.7060 C.3    84  ILE84       0.0019
     96  CG2       16.4640   -0.7480   23.8600 C.3    84  ILE84       0.0019
     97  CD1       14.3940    2.3880   24.6400 C.3    84  ILE84       0.0001
     98  N         17.4790    4.2530   19.5310 N.3    87  ILE87      -0.1231
     99  CA        16.7590    5.4660   20.0010 C.3    87  ILE87       0.1692
    100  C         17.6730    6.2160   20.9810 C.2    87  ILE87       0.2591
    101  O         17.7750    7.4510   20.9500 O.2    87  ILE87      -0.2718
    102  CB        15.4070    5.0330   20.6320 C.3    87  ILE87       0.0266
    103  CG1       14.4660    4.5720   19.4980 C.3    87  ILE87       0.0019
    104  CG2       14.7750    6.1810   21.4160 C.3    87  ILE87       0.0020
    105  CD1       13.1350    3.8750   19.9450 C.3    87  ILE87       0.0001
    106  N         18.3060    5.4950   21.8820 N.am   88  MET88      -0.1979
    107  CA        19.2300    6.1430   22.8140 C.3    88  MET88       0.1605
    108  C         20.3740    6.7750   22.0760 C.2    88  MET88       0.2287
    109  O         20.6740    7.9680   22.2980 O.2    88  MET88      -0.2864
    110  CB        19.7360    5.1270   23.8460 C.3    88  MET88       0.0413
    111  CG        18.5770    4.7490   24.7890 C.3    88  MET88       0.0598
    112  SD        19.1410    3.4140   25.9140 S.3    88  MET88      -0.1393
    113  CE        17.6810    3.2780   27.0230 C.3    88  MET88       0.0692
    114  N         20.4630    7.7980   18.8480 N.3    90  ARG90      -0.1231
    115  CA        20.0750    8.8810   17.9500 C.3    90  ARG90       0.1694
    116  C         19.6650   10.0870   18.7670 C.2    90  ARG90       0.2592
    117  O         19.8230   11.2650   18.3130 O.2    90  ARG90      -0.2718
    118  CB        18.9110    8.4010   17.0560 C.3    90  ARG90       0.0321
    119  CG        17.4990    8.3800   17.6530 C.3    90  ARG90       0.0489
    120  CD        16.6200    7.4170   16.8510 C.3    90  ARG90       0.2205
    121  NE        16.5940    7.7020   15.3910 N.pl3  90  ARG90      -0.0865
    122  CZ        15.7300    8.5450   14.8360 C.cat  90  ARG90       0.5346
    123  NH1       14.8140    9.1930   15.5790 N.pl3  90  ARG90       0.1354
    124  NH2       15.7950    8.7920   13.5020 N.pl3  90  ARG90       0.1354
    125  N         19.1970    9.8250   19.9960 N.am   91  SER91      -0.1952
    126  CA        18.7890   10.9630   20.8590 C.3    91  SER91       0.1924
    127  C         20.0090   11.7960   21.3170 C.2    91  SER91       0.2314
    128  O         19.8190   12.8970   21.8770 O.2    91  SER91      -0.2863
    129  CB        17.9920   10.4470   22.0700 C.3    91  SER91       0.2116
    130  OG        18.8230    9.8150   23.0260 O.3    91  SER91      -0.2180
    131  N         19.9580   15.3910   20.1300 N.3    94  SER94      -0.1217
    132  CA        19.1860   16.4210   20.8120 C.3    94  SER94       0.1889
    133  C         19.6420   16.6730   22.2490 C.2    94  SER94       0.2288
    134  O         19.2050   17.6250   22.9010 O.2    94  SER94      -0.2866
    135  CB        17.6950   16.0790   20.8050 C.3    94  SER94       0.2089
    136  OG        17.4070   14.8220   21.4190 O.3    94  SER94      -0.2183
    137  N         13.3590   17.2760   27.1260 N.3   101  TYR101     -0.1241
    138  CA        12.9390   16.3590   28.1870 C.3   101  TYR101      0.1605
    139  C         13.9940   16.2700   29.2590 C.2   101  TYR101      0.2264
    140  O         15.1710   16.0720   28.9600 O.2   101  TYR101     -0.2867
    141  CB        12.6970   14.9600   27.6130 C.3   101  TYR101      0.0534
    142  CG        11.8070   15.0070   26.4000 C.ar  101  TYR101     -0.0201
    143  CD1       12.3390   14.8100   25.1260 C.ar  101  TYR101     -0.0009
    144  CD2       10.4420   15.3190   26.5260 C.ar  101  TYR101     -0.0009
    145  CE1       11.5350   14.9130   23.9780 C.ar  101  TYR101      0.0417
    146  CE2        9.6340   15.4460   25.3920 C.ar  101  TYR101      0.0417
    147  CZ        10.1840   15.2330   24.1240 C.ar  101  TYR101      0.1957
    148  OH         9.3850   15.3200   23.0080 O.3   101  TYR101     -0.2866
    149  N         11.1280   11.9080   32.3540 N.3   106  VAL106     -0.1245
    150  CA        11.3060   10.4770   32.1340 C.3   106  VAL106      0.1561
    151  C         10.7640    9.7430   33.3260 C.2   106  VAL106      0.2260
    152  O         10.1870    8.6720   33.1880 O.2   106  VAL106     -0.2867
    153  CB        12.7890   10.1210   31.8900 C.3   106  VAL106      0.0252
    154  CG1       12.9340    8.6190   31.4070 C.3   106  VAL106      0.0019
    155  CG2       13.3670   11.0410   30.7630 C.3   106  VAL106      0.0019
    156  N          7.2490    9.0340   33.0270 N.3   109  ALA109     -0.1245
    157  CA         6.8080    8.0000   32.0910 C.3   109  ALA109      0.1562
    158  C          6.9560    6.6350   32.7070 C.2   109  ALA109      0.2260
    159  O          6.8180    5.6370   32.0040 O.2   109  ALA109     -0.2867
    160  CB         7.6210    8.0880   30.7340 C.3   109  ALA109      0.0290
    161  N          9.7510    5.4730   34.6810 N.3   111  HIS111     -0.1241
    162  CA        11.1170    5.0000   34.8280 C.3   111  HIS111      0.1621
    163  C         11.8020    5.6100   36.0410 C.2   111  HIS111      0.2264
    164  O         11.3820    6.6660   36.5350 O.2   111  HIS111     -0.2867
    165  CB        11.9210    5.2770   33.5410 C.3   111  HIS111      0.0745
    166  CG        11.5180    4.3660   32.4180 C.ar  111  HIS111      0.0817
    167  ND1       11.8010    3.0160   32.4300 N.ar  111  HIS111     -0.2268
    168  CD2       10.8090    4.5940   31.2770 C.ar  111  HIS111      0.1154
    169  CE1       11.2730    2.4470   31.3570 C.ar  111  HIS111      0.1986
    170  NE2       10.6640    3.3790   30.6450 N.ar  111  HIS111     -0.2212
    171  N         17.6500    3.5750   35.7080 N.3   115  LEU115     -0.1245
    172  CA        17.8400    3.7020   34.2490 C.3   115  LEU115      0.1561
    173  C         18.3650    5.0800   33.9010 C.2   115  LEU115      0.2260
    174  O         19.3400    5.2240   33.1390 O.2   115  LEU115     -0.2867
    175  CB        16.5250    3.4870   33.4700 C.3   115  LEU115      0.0270
    176  CG        16.5910    3.6690   31.9250 C.3   115  LEU115      0.0019
    177  CD1       17.6020    2.7240   31.3250 C.3   115  LEU115      0.0001
    178  CD2       15.2140    3.4090   31.3190 C.3   115  LEU115      0.0001
    179  N         21.7360    6.4530   31.8780 N.3   119  LEU119     -0.1245
    180  CA        21.3990    6.9580   30.5490 C.3   119  LEU119      0.1561
    181  C         22.0130    8.3530   30.3580 C.2   119  LEU119      0.2260
    182  O         22.6410    8.6300   29.3260 O.2   119  LEU119     -0.2867
    183  CB        19.8600    7.0010   30.3590 C.3   119  LEU119      0.0270
    184  CG        19.3790    7.6660   29.0490 C.3   119  LEU119      0.0019
    185  CD1       19.9880    6.9880   27.8570 C.3   119  LEU119      0.0001
    186  CD2       17.8760    7.5300   28.9510 C.3   119  LEU119      0.0001
    187  N         16.2760   -0.9340   30.7420 N.3   203  HIS203     -0.1241
    188  CA        15.0090   -0.4810   30.1900 C.3   203  HIS203      0.1621
    189  C         13.9890   -1.6270   30.0720 C.2   203  HIS203      0.2264
    190  O         12.8320   -1.4420   30.3880 O.2   203  HIS203     -0.2867
    191  CB        15.2010    0.1750   28.8100 C.3   203  HIS203      0.0745
    192  CG        13.8980    0.5460   28.1700 C.ar  203  HIS203      0.0817
    193  ND1       13.2640   -0.2670   27.2590 N.ar  203  HIS203     -0.2268
    194  CD2       13.0610    1.5880   28.3970 C.ar  203  HIS203      0.1154
    195  CE1       12.0850    0.2610   26.9560 C.ar  203  HIS203      0.1986
    196  NE2       11.9380    1.3860   27.6370 N.ar  203  HIS203     -0.2212
    197  N         10.3930   -1.5530   31.6480 N.3   207  TYR207     -0.1241
    198  CA         9.2820   -1.6050   30.7340 C.3   207  TYR207      0.1605
    199  C          8.3380   -2.7470   31.0990 C.2   207  TYR207      0.2264
    200  O          7.1300   -2.5860   31.0810 O.2   207  TYR207     -0.2867
    201  CB         9.7960   -1.7770   29.3010 C.3   207  TYR207      0.0534
    202  CG         8.6750   -1.9540   28.3190 C.ar  207  TYR207     -0.0201
    203  CD1        8.0510   -0.8490   27.7220 C.ar  207  TYR207     -0.0009
    204  CD2        8.2080   -3.2210   27.9960 C.ar  207  TYR207     -0.0009
    205  CE1        6.9720   -1.0330   26.8190 C.ar  207  TYR207      0.0417
    206  CE2        7.1320   -3.4130   27.1020 C.ar  207  TYR207      0.0417
    207  CZ         6.5350   -2.3080   26.5260 C.ar  207  TYR207      0.1957
    208  OH         5.4970   -2.4830   25.6530 O.3   207  TYR207     -0.2866
    209  N          6.3250   -1.5530   34.1170 N.3   210  LEU210     -0.1245
    210  CA         5.2970   -0.5330   33.9300 C.3   210  LEU210      0.1561
    211  C          4.1900   -1.0830   33.0190 C.2   210  LEU210      0.2260
    212  O          3.0050   -0.8390   33.2750 O.2   210  LEU210     -0.2867
    213  CB         5.9120    0.7580   33.3940 C.3   210  LEU210      0.0270
    214  CG         6.4010    0.8890   31.9640 C.3   210  LEU210      0.0019
    215  CD1        5.3100    1.4970   31.1130 C.3   210  LEU210      0.0001
    216  CD2        7.6060    1.8450   31.9450 C.3   210  LEU210      0.0001
    217  N          0.2360    2.9490   25.9010 N.3   220  LEU220     -0.1245
    218  CA         1.2880    2.7550   24.9100 C.3   220  LEU220      0.1561
    219  C          0.6910    2.7310   23.5180 C.2   220  LEU220      0.2260
    220  O         -0.4980    2.9700   23.3530 O.2   220  LEU220     -0.2867
    221  CB         2.0290    1.4400   25.1740 C.3   220  LEU220      0.0270
    222  CG         2.6410    1.4240   26.5970 C.3   220  LEU220      0.0019
    223  CD1        3.3050    0.0400   26.8750 C.3   220  LEU220      0.0001
    224  CD2        3.7050    2.5110   26.7440 C.3   220  LEU220      0.0001
    225  N          4.7270   -0.0510   19.8750 N.3   224  VAL224     -0.1245
    226  CA         5.5960   -0.1890   21.0330 C.3   224  VAL224      0.1561
    227  C          5.2870   -1.5490   21.6880 C.2   224  VAL224      0.2260
    228  O          6.2040   -2.2690   22.0850 O.2   224  VAL224     -0.2867
    229  CB         5.3260    0.9160   22.0490 C.3   224  VAL224      0.0252
    230  CG1        5.9580    0.5490   23.4110 C.3   224  VAL224      0.0019
    231  CG2        5.8950    2.2440   21.5090 C.3   224  VAL224      0.0019
    232  N          8.4910   -3.8620   21.8790 N.3   228  PHE228     -0.1241
    233  CA         9.1190   -3.9590   23.1970 C.3   228  PHE228      0.1605
    234  C          8.5000   -5.0730   23.9970 C.2   228  PHE228      0.2264
    235  O          9.0680   -5.5420   25.0060 O.2   228  PHE228     -0.2867
    236  CB         8.9680   -2.6740   23.9880 C.3   228  PHE228      0.0534
    237  CG         9.7960   -1.5320   23.4590 C.ar  228  PHE228     -0.0203
    238  CD1        9.6120   -0.2490   23.9500 C.ar  228  PHE228     -0.0042
    239  CD2       10.7880   -1.7440   22.5150 C.ar  228  PHE228     -0.0042
    240  CE1       10.3870    0.7920   23.5300 C.ar  228  PHE228     -0.0003
    241  CE2       11.5840   -0.6860   22.0820 C.ar  228  PHE228     -0.0003
    242  CZ        11.3960    0.5660   22.5800 C.ar  228  PHE228     -0.0000
@<TRIPOS>BOND
     1     1     2    1
     2     4     3    2
     3     3     2    1
     4     2     5    1
     5     5     6    1
     6    83    82    1
     7    80    82   ar
     8    80    78   ar
     9    82    81   ar
    10   124   122    1
    11     6     7   ar
    12     6     8   ar
    13     7     9   ar
    14    78    77   ar
    15    13    14    1
    16    81    79   ar
    17    75    74    2
    18    15    14    1
    19    15    16    2
    20     8    10   ar
    21   122   121    2
    22   122   123    1
    23     9    11   ar
    24    14    17    1
    25    77    79   ar
    26    77    76    1
    27    87    86    2
    28   121   120    1
    29    74    73    1
    30    74    84   am
    31    25    26    1
    32    10    11   ar
    33    73    76    1
    34    73    72    1
    35    86    85    1
    36    11    12    1
    37    85    84    1
    38    85    88    1
    39    17    18    1
    40    20    18   ar
    41    20    22   ar
    42   120   119    1
    43   118   119    1
    44   118   115    1
    45    31    33   ar
    46    31    30   ar
    47    33    35   ar
    48    26    27    1
    49    26    29    1
    50    18    19   ar
    51    22    23   ar
    52    27    28    2
    53    88    89    1
    54   115   116    1
    55   115   114    1
    56    29    30    1
    57   117   116    2
    58    30    32   ar
    59    35    34   ar
    60   116   125   am
    61    19    21   ar
    62    23    21   ar
    63    23    24    1
    64    68    67    2
    65    60    59    2
    66   103   105    1
    67   103   102    1
    68    32    34   ar
    69    98    99    1
    70    67    66    1
    71   225   226    1
    72   125   126    1
    73    99   102    1
    74    99   100    1
    75    63    62    1
    76   131   132    1
    77    59    58    1
    78    59    65   am
    79    58    57    1
    80    58    61    1
    81   102   104    1
    82   135   132    1
    83   135   136    1
    84   132   133    1
    85   126   127    1
    86   126   129    1
    87   101   100    2
    88   100   106   am
    89   226   227    1
    90   226   229    1
    91    66    65    1
    92    66    69    1
    93    90    91    1
    94   127   128    2
    95    62    61    1
    96    62    64    1
    97   231   229    1
    98   227   228    2
    99   232   233    1
   100   106   107    1
   101    55    54    2
   102   229   230    1
   103    70    69    1
   104   129   130    1
   105   108   109    2
   106   108   107    1
   107   241   239   ar
   108   241   242   ar
   109    91    92    1
   110    91    94    1
   111    92    93    2
   112   133   134    2
   113    69    71    1
   114   239   237   ar
   115   242   240   ar
   116    54    53    1
   117   107   110    1
   118   148   147    1
   119   233   236    1
   120   233   234    1
   121   220   219    2
   122   237   238   ar
   123   237   236    1
   124   219   218    1
   125   240   238   ar
   126    94    96    1
   127    94    95    1
   128   110   111    1
   129    47    46    2
   130   145   147   ar
   131   145   143   ar
   132   234   235    2
   133   147   146   ar
   134    53    56    1
   135    53    52    1
   136    97    95    1
   137    46    52   am
   138    46    45    1
   139   111   112    1
   140   218   221    1
   141   218   217    1
   142   143   142   ar
   143   221   222    1
   144    45    44    1
   145    45    48    1
   146   146   144   ar
   147   208   207    1
   148   112   113    1
   149    51    49    1
   150   142   144   ar
   151   142   141    1
   152   207   205   ar
   153   207   206   ar
   154   222   224    1
   155   222   223    1
   156    48    49    1
   157   205   203   ar
   158   195   193   ar
   159   195   196   ar
   160    39    38    2
   161   206   204   ar
   162   137   138    1
   163    49    50    1
   164   193   192   ar
   165   141   138    1
   166   196   194   ar
   167   203   202   ar
   168   185   184    1
   169    38    37    1
   170   204   202   ar
   171   192   194   ar
   172   192   191    1
   173   138   139    1
   174   202   201    1
   175   191   188    1
   176   186   184    1
   177   140   139    2
   178    42    41    1
   179   184   183    1
   180   201   198    1
   181   182   181    2
   182    37    36    1
   183    37    40    1
   184    41    40    1
   185    41    43    1
   186   189   188    1
   187   189   190    2
   188   188   187    1
   189   181   180    1
   190   183   180    1
   191   180   179    1
   192   170   168   ar
   193   170   169   ar
   194   198   199    1
   195   198   197    1
   196   160   157    1
   197   155   153    1
   198   200   199    2
   199   215   214    1
   200   168   166   ar
   201   178   176    1
   202   177   176    1
   203   169   167   ar
   204   154   153    1
   205   153   150    1
   206   176   175    1
   207   216   214    1
   208   214   213    1
   209   159   158    2
   210   157   158    1
   211   157   156    1
   212   150   149    1
   213   150   151    1
   214   166   167   ar
   215   166   165    1
   216   211   212    2
   217   211   210    1
   218   174   173    2
   219   152   151    2
   220   213   210    1
   221   175   172    1
   222   165   162    1
   223   173   172    1
   224   210   209    1
   225   172   171    1
   226   161   162    1
   227   162   163    1
   228   163   164    2
