@<TRIPOS>MOLECULE
tmp/3vtaB00.pdb
 87 83 0 0 0
SMALL
GASTEIGER

@<TRIPOS>ATOM
      1  N        -13.8500  -15.9780   -0.2380 N.3    94  HIS94      -0.1241
      2  CA       -13.9630  -17.3690   -0.6600 C.3    94  HIS94       0.1621
      3  C        -12.6210  -17.9600   -1.1070 C.2    94  HIS94       0.2264
      4  O        -12.2850  -19.0990   -0.7720 O.2    94  HIS94      -0.2867
      5  CB       -14.9980  -17.4420   -1.7780 C.3    94  HIS94       0.0745
      6  CG       -15.2480  -18.8210   -2.3040 C.ar   94  HIS94       0.0817
      7  ND1      -14.3090  -19.5260   -3.0290 N.ar   94  HIS94      -0.2268
      8  CD2      -16.3600  -19.5960   -2.2720 C.ar   94  HIS94       0.1154
      9  CE1      -14.8330  -20.6710   -3.4260 C.ar   94  HIS94       0.1986
     10  NE2      -16.0760  -20.7370   -2.9800 N.ar   94  HIS94      -0.2212
     11  N        -12.0670  -25.0320   -6.3870 N.3   163  SER163     -0.1202
     12  CA       -13.3740  -24.9360   -5.7610 C.3   163  SER163      0.2020
     13  C        -14.3830  -24.1770   -6.6020 C.2   163  SER163      0.2619
     14  O        -15.0980  -23.3140   -6.0950 O.2   163  SER163     -0.2717
     15  CB       -13.2660  -24.2830   -4.3890 C.3   163  SER163      0.2103
     16  OG       -12.7340  -25.1930   -3.4420 O.3   163  SER163     -0.2182
     17  N        -14.4400  -24.5080   -7.8880 N.am  164  VAL164     -0.1965
     18  CA       -15.3900  -23.8900   -8.8090 C.3   164  VAL164      0.1727
     19  C        -16.1290  -24.9780   -9.6120 C.2   164  VAL164      0.2616
     20  O        -15.5750  -26.0490   -9.8860 O.2   164  VAL164     -0.2715
     21  CB       -14.6850  -22.9170   -9.7770 C.3   164  VAL164      0.0290
     22  CG1      -13.7220  -23.6580  -10.6530 C.3   164  VAL164      0.0023
     23  CG2      -15.7130  -22.2000  -10.6170 C.3   164  VAL164      0.0023
     24  N        -17.3840  -24.7060   -9.9750 N.am  165  GLY165     -0.1955
     25  CA       -18.1720  -25.6730  -10.7260 C.3   165  GLY165      0.1869
     26  C        -18.0760  -25.5140  -12.2340 C.2   165  GLY165      0.2309
     27  O        -17.7330  -24.4370  -12.7380 O.2   165  GLY165     -0.2863
     28  N        -14.5380  -29.8020   -6.3790 N.3   194  SER194     -0.1217
     29  CA       -15.7900  -29.9110   -5.6430 C.3   194  SER194      0.1889
     30  C        -16.8850  -30.4640   -6.5400 C.2   194  SER194      0.2288
     31  O        -16.9820  -30.0970   -7.7100 O.2   194  SER194     -0.2866
     32  CB       -16.2050  -28.5360   -5.1080 C.3   194  SER194      0.2089
     33  OG       -15.6410  -27.4940   -5.8880 O.3   194  SER194     -0.2183
     34  N        -20.0010  -29.8560   -6.3700 N.3   196  GLY196     -0.1210
     35  CA       -21.0720  -28.9050   -6.6170 C.3   196  GLY196      0.1956
     36  C        -22.1220  -28.8990   -5.5140 C.2   196  GLY196      0.2611
     37  O        -22.2020  -29.8440   -4.7160 O.2   196  GLY196     -0.2717
     38  N        -22.9470  -27.8540   -5.4670 N.am  197  ASN197     -0.1974
     39  CA       -23.9520  -27.7720   -4.4130 C.3   197  ASN197      0.1688
     40  C        -25.3990  -27.8890   -4.8750 C.2   197  ASN197      0.2292
     41  O        -26.2930  -27.2540   -4.3130 O.2   197  ASN197     -0.2864
     42  CB       -23.7610  -26.4780   -3.6070 C.3   197  ASN197      0.1181
     43  CG       -22.3080  -26.2490   -3.2040 C.2   197  ASN197      0.2629
     44  OD1      -21.5350  -27.1900   -3.0380 O.2   197  ASN197     -0.2716
     45  ND2      -21.9400  -24.9960   -3.0330 N.am  197  ASN197     -0.0877
     46  N        -26.9800  -30.3180    0.4780 N.3   365  PHE365     -0.1241
     47  CA       -26.6650  -29.6150   -0.7660 C.3   365  PHE365      0.1605
     48  C        -25.5740  -30.2300   -1.6540 C.2   365  PHE365      0.2264
     49  O        -25.4840  -29.8920   -2.8310 O.2   365  PHE365     -0.2867
     50  CB       -26.3230  -28.1500   -0.4670 C.3   365  PHE365      0.0534
     51  CG       -25.0570  -27.9550    0.3380 C.ar  365  PHE365     -0.0203
     52  CD1      -23.8030  -28.2360   -0.2130 C.ar  365  PHE365     -0.0042
     53  CD2      -25.1160  -27.4730    1.6430 C.ar  365  PHE365     -0.0042
     54  CE1      -22.6290  -28.0390    0.5220 C.ar  365  PHE365     -0.0003
     55  CE2      -23.9470  -27.2720    2.3850 C.ar  365  PHE365     -0.0003
     56  CZ       -22.7030  -27.5560    1.8220 C.ar  365  PHE365     -0.0000
     57  N        -20.0020  -23.0710    4.6090 N.3   412  SER412     -0.1202
     58  CA       -20.2430  -24.4450    4.1890 C.3   412  SER412      0.2020
     59  C        -20.1040  -24.5990    2.6810 C.2   412  SER412      0.2619
     60  O        -20.0230  -23.6060    1.9600 O.2   412  SER412     -0.2717
     61  CB       -21.6480  -24.8590    4.6030 C.3   412  SER412      0.2103
     62  OG       -21.9180  -24.4300    5.9210 O.3   412  SER412     -0.2182
     63  N        -20.0880  -25.8460    2.2070 N.am  413  GLY413     -0.1942
     64  CA       -19.9700  -26.1000    0.7790 C.3   413  GLY413      0.2014
     65  C        -18.8590  -27.0520    0.3530 C.2   413  GLY413      0.2640
     66  O        -17.8520  -27.2290    1.0530 O.2   413  GLY413     -0.2714
     67  N        -19.0420  -27.6620   -0.8150 N.am  414  THR414     -0.1936
     68  CA       -18.0620  -28.5890   -1.3540 C.3   414  THR414      0.2028
     69  C        -16.8140  -27.8200   -1.7490 C.2   414  THR414      0.2643
     70  O        -15.8100  -28.3960   -2.1410 O.2   414  THR414     -0.2714
     71  CB       -18.6200  -29.3650   -2.5790 C.3   414  THR414      0.1808
     72  OG1      -18.6990  -28.5060   -3.7220 O.3   414  THR414     -0.2208
     73  CG2      -20.0090  -29.9000   -2.2690 C.3   414  THR414      0.0379
     74  N        -16.8730  -26.5030   -1.6450 N.am  415  SER415     -0.1935
     75  CA       -15.7080  -25.6950   -1.9720 C.3   415  SER415      0.2055
     76  C        -14.7770  -25.6940   -0.7530 C.2   415  SER415      0.2642
     77  O        -13.6000  -25.3620   -0.8540 O.2   415  SER415     -0.2714
     78  CB       -16.1310  -24.2690   -2.3860 C.3   415  SER415      0.2130
     79  OG       -17.4120  -23.9220   -1.8680 O.3   415  SER415     -0.2179
     80  N        -15.3140  -26.1070    0.3920 N.am  416  MET416     -0.1976
     81  CA       -14.5270  -26.1910    1.6250 C.3   416  MET416      0.1605
     82  C        -13.9570  -27.6080    1.8140 C.2   416  MET416      0.2287
     83  O        -12.8440  -27.7830    2.3300 O.2   416  MET416     -0.2864
     84  CB       -15.3800  -25.7840    2.8350 C.3   416  MET416      0.0413
     85  CG       -15.3850  -24.2700    3.1250 C.3   416  MET416      0.0598
     86  SD       -15.8050  -23.2240    1.6890 S.3   416  MET416     -0.1393
     87  CE       -17.4450  -23.8050    1.3550 C.3   416  MET416      0.0692
@<TRIPOS>BOND
     1    27    26    2
     2    26    25    1
     3    25    24    1
     4    22    21    1
     5    23    21    1
     6    24    19   am
     7    20    19    2
     8    21    18    1
     9    19    18    1
    10    18    17    1
    11    17    13   am
    12    31    30    2
    13    35    34    1
    14    35    36    1
    15    13    14    2
    16    13    12    1
    17    30    29    1
    18    11    12    1
    19    28    29    1
    20    33    32    1
    21    12    15    1
    22    29    32    1
    23    36    38   am
    24    36    37    2
    25    38    39    1
    26    40    39    1
    27    40    41    2
    28    39    42    1
    29    15    16    1
    30    72    71    1
    31    42    43    1
    32     9     7   ar
    33     9    10   ar
    34    43    44    2
    35    43    45   am
    36     7     6   ar
    37    10     8   ar
    38    49    48    2
    39    71    73    1
    40    71    68    1
    41    78    75    1
    42    78    79    1
    43     6     8   ar
    44     6     5    1
    45    70    69    2
    46    75    74    1
    47    75    76    1
    48     5     2    1
    49    69    74   am
    50    69    68    1
    51    48    47    1
    52    68    67    1
    53     3     4    2
    54     3     2    1
    55    77    76    2
    56    67    65   am
    57    47    50    1
    58    47    46    1
    59    76    80   am
    60     2     1    1
    61    50    51    1
    62    52    51   ar
    63    52    54   ar
    64    51    53   ar
    65    65    64    1
    66    65    66    2
    67    80    81    1
    68    54    56   ar
    69    64    63    1
    70    87    86    1
    71    81    82    1
    72    81    84    1
    73    53    55   ar
    74    86    85    1
    75    82    83    2
    76    56    55   ar
    77    60    59    2
    78    63    59   am
    79    59    58    1
    80    84    85    1
    81    58    61    1
    82    58    57    1
    83    61    62    1
