@<TRIPOS>MOLECULE
tmp/3vtaB01.pdb
 179 170 0 0 0
SMALL
GASTEIGER

@<TRIPOS>ATOM
      1  N        -30.1300  -32.4420   -3.1270 N.3   200  PRO200     -0.2116
      2  CA       -29.6650  -33.8270   -3.0260 C.3   200  PRO200      0.1372
      3  C        -30.1530  -34.7560   -4.1410 C.2   200  PRO200      0.2244
      4  O        -30.0420  -35.9740   -4.0180 O.2   200  PRO200     -0.2868
      5  CB       -30.2170  -34.2460   -1.6830 C.3   200  PRO200      0.0268
      6  CG       -31.6140  -33.6730   -1.7780 C.3   200  PRO200      0.0207
      7  CD       -31.3700  -32.2650   -2.3460 C.3   200  PRO200      0.0892
      8  N        -20.7110  -33.5150    7.0050 N.3   219  THR219     -0.1218
      9  CA       -20.7800  -32.8760    8.3120 C.3   219  THR219      0.1862
     10  C        -19.6250  -33.3570    9.1800 C.2   219  THR219      0.2287
     11  O        -18.9940  -34.3690    8.8790 O.2   219  THR219     -0.2866
     12  CB       -22.0940  -33.2430    9.0300 C.3   219  THR219      0.1770
     13  OG1      -21.9980  -34.5730    9.5420 O.3   219  THR219     -0.2211
     14  CG2      -23.2650  -33.1910    8.0630 C.3   219  THR219      0.0375
     15  N        -21.6800  -29.0960   15.5720 N.3   223  LYS223     -0.1245
     16  CA       -22.7710  -28.5550   14.7700 C.3   223  LYS223      0.1561
     17  C        -23.2860  -27.3100   15.4800 C.2   223  LYS223      0.2260
     18  O        -23.8520  -27.4120   16.5680 O.2   223  LYS223     -0.2867
     19  CB       -23.9040  -29.5790   14.6360 C.3   223  LYS223      0.0271
     20  CG       -25.2440  -28.9770   14.2390 C.3   223  LYS223      0.0035
     21  CD       -26.0220  -29.9260   13.3420 C.3   223  LYS223      0.0206
     22  CE       -27.4150  -29.4020   13.0120 C.3   223  LYS223      0.1093
     23  NZ       -28.3310  -29.4920   14.1890 N.3   223  LYS223     -0.1314
     24  N        -34.5240  -24.7910   19.4060 N.3   237  GLN237     -0.1245
     25  CA       -33.1880  -25.0220   18.8590 C.3   237  GLN237      0.1566
     26  C        -33.2010  -24.7960   17.3500 C.2   237  GLN237      0.2260
     27  O        -33.9180  -25.4780   16.6170 O.2   237  GLN237     -0.2867
     28  CB       -32.7250  -26.4510   19.1650 C.3   237  GLN237      0.0367
     29  CG       -31.2630  -26.7140   18.8310 C.3   237  GLN237      0.0905
     30  CD       -30.8350  -28.1550   19.0710 C.2   237  GLN237      0.2608
     31  OE1      -31.2740  -29.0750   18.3780 O.2   237  GLN237     -0.2717
     32  NE2      -29.9720  -28.3540   20.0600 N.am  237  GLN237     -0.0878
     33  N        -37.3110  -27.3470    6.5780 N.3   311  ASN311     -0.1225
     34  CA       -37.1470  -28.6410    7.2300 C.3   311  ASN311      0.1785
     35  C        -35.7410  -29.2270    7.0480 C.2   311  ASN311      0.2598
     36  O        -35.4610  -30.3470    7.4800 O.2   311  ASN311     -0.2718
     37  CB       -38.2020  -29.6200    6.7240 C.3   311  ASN311      0.1169
     38  CG       -38.2850  -29.6460    5.2170 C.2   311  ASN311      0.2627
     39  OD1      -37.2660  -29.7460    4.5310 O.2   311  ASN311     -0.2716
     40  ND2      -39.5030  -29.5610    4.6890 N.am  311  ASN311     -0.0877
     41  N        -34.8630  -28.4630    6.4080 N.am  312  THR312     -0.1939
     42  CA       -33.4860  -28.8870    6.1970 C.3   312  THR312      0.2028
     43  C        -32.5420  -27.9880    6.9920 C.2   312  THR312      0.2642
     44  O        -32.2880  -26.8410    6.6200 O.2   312  THR312     -0.2714
     45  CB       -33.1080  -28.8270    4.7180 C.3   312  THR312      0.1808
     46  OG1      -33.8440  -29.8260    4.0080 O.3   312  THR312     -0.2208
     47  CG2      -31.6170  -29.0660    4.5310 C.3   312  THR312      0.0379
     48  N        -32.0220  -28.5230    8.0920 N.am  313  ARG313     -0.1963
     49  CA       -31.1200  -27.7780    8.9570 C.3   313  ARG313      0.1729
     50  C        -29.8250  -28.5220    9.2720 C.2   313  ARG313      0.2616
     51  O        -29.4050  -28.5710   10.4310 O.2   313  ARG313     -0.2715
     52  CB       -31.8330  -27.4430   10.2620 C.3   313  ARG313      0.0348
     53  CG       -32.9880  -26.4780   10.1100 C.3   313  ARG313      0.0492
     54  CD       -34.0590  -26.7630   11.1420 C.3   313  ARG313      0.2205
     55  NE       -34.9390  -27.8470   10.7090 N.pl3 313  ARG313     -0.0865
     56  CZ       -35.2190  -28.9250   11.4360 C.cat 313  ARG313      0.5346
     57  NH1      -34.6810  -29.0760   12.6420 N.pl3 313  ARG313      0.1354
     58  NH2      -36.0490  -29.8460   10.9590 N.pl3 313  ARG313      0.1354
     59  N        -29.1900  -29.0970    8.2520 N.am  314  ASP314     -0.1971
     60  CA       -27.9400  -29.8150    8.4730 C.3   314  ASP314      0.1709
     61  C        -26.7040  -28.9510    8.2570 C.2   314  ASP314      0.2293
     62  O        -25.6440  -29.4560    7.9000 O.2   314  ASP314     -0.2864
     63  CB       -27.8560  -31.0950    7.6130 C.3   314  ASP314      0.1436
     64  CG       -28.2000  -30.8640    6.1490 C.2   314  ASP314      0.3671
     65  OD1      -28.1730  -29.7020    5.6930 O.co2 314  ASP314     -0.2456
     66  OD2      -28.4850  -31.8640    5.4520 O.co2 314  ASP314     -0.2456
     67  N        -37.2310  -25.2350   13.4000 N.3   327  ASP327     -0.1239
     68  CA       -37.9750  -26.3660   12.8820 C.3   327  ASP327      0.1674
     69  C        -39.3990  -25.8750   12.6840 C.2   327  ASP327      0.2266
     70  O        -39.9400  -25.1690   13.5320 O.2   327  ASP327     -0.2867
     71  CB       -37.9600  -27.5170   13.8930 C.3   327  ASP327      0.1410
     72  CG       -38.6920  -28.7540   13.3900 C.2   327  ASP327      0.3668
     73  OD1      -39.8890  -28.6540   13.0500 O.co2 327  ASP327     -0.2456
     74  OD2      -38.0680  -29.8340   13.3390 O.co2 327  ASP327     -0.2456
     75  N        -22.8540  -27.9920   19.6770 N.3   354  ILE354     -0.1231
     76  CA       -23.1880  -29.2930   20.2330 C.3   354  ILE354      0.1692
     77  C        -22.4040  -30.3170   19.4040 C.2   354  ILE354      0.2592
     78  O        -21.7970  -29.9620   18.3970 O.2   354  ILE354     -0.2718
     79  CB       -24.7050  -29.5770   20.1380 C.3   354  ILE354      0.0266
     80  CG1      -25.1160  -29.8860   18.6950 C.3   354  ILE354      0.0019
     81  CG2      -25.4660  -28.3830   20.6540 C.3   354  ILE354      0.0020
     82  CD1      -26.5760  -30.3210   18.5510 C.3   354  ILE354      0.0001
     83  N        -22.3990  -31.5760   19.8230 N.am  355  LEU355     -0.1966
     84  CA       -21.6700  -32.6000   19.0880 C.3   355  LEU355      0.1728
     85  C        -22.6590  -33.5410   18.4480 C.2   355  LEU355      0.2616
     86  O        -23.6640  -33.8990   19.0520 O.2   355  LEU355     -0.2715
     87  CB       -20.7410  -33.3580   20.0300 C.3   355  LEU355      0.0311
     88  CG       -19.8000  -32.3960   20.7650 C.3   355  LEU355      0.0022
     89  CD1      -19.1770  -33.0800   21.9680 C.3   355  LEU355      0.0001
     90  CD2      -18.7390  -31.8790   19.8010 C.3   355  LEU355      0.0001
     91  N        -22.3890  -33.9240   17.2080 N.am  356  ASN356     -0.1972
     92  CA       -23.2810  -34.8230   16.5010 C.3   356  ASN356      0.1688
     93  C        -22.5450  -36.1310   16.2470 C.2   356  ASN356      0.2292
     94  O        -21.6000  -36.1890   15.4610 O.2   356  ASN356     -0.2864
     95  CB       -23.7220  -34.1920   15.1830 C.3   356  ASN356      0.1181
     96  CG       -24.8920  -34.9200   14.5590 C.2   356  ASN356      0.2629
     97  OD1      -24.9250  -36.1510   14.5240 O.2   356  ASN356     -0.2716
     98  ND2      -25.8560  -34.1600   14.0570 N.am  356  ASN356     -0.0877
     99  N        -23.5110  -38.6430   14.6570 N.3   358  SER358     -0.1202
    100  CA       -23.7530  -39.2390   13.3550 C.3   358  SER358      0.2020
    101  C        -22.7400  -38.8500   12.2770 C.2   358  SER358      0.2618
    102  O        -22.6130  -39.5490   11.2660 O.2   358  SER358     -0.2717
    103  CB       -25.1710  -38.9340   12.8920 C.3   358  SER358      0.2103
    104  OG       -26.0960  -39.7220   13.6180 O.3   358  SER358     -0.2182
    105  N        -22.0120  -37.7540   12.4810 N.am  359  ALA359     -0.1979
    106  CA       -21.0120  -37.3400   11.4960 C.3   359  ALA359      0.1597
    107  C        -20.0850  -38.5170   11.2570 C.2   359  ALA359      0.2287
    108  O        -19.7900  -39.2630   12.1780 O.2   359  ALA359     -0.2864
    109  CB       -20.2070  -36.1590   12.0170 C.3   359  ALA359      0.0319
    110  N        -21.8730  -37.3700    7.5630 N.3   361  VAL361     -0.1245
    111  CA       -23.0530  -37.6410    6.7530 C.3   361  VAL361      0.1561
    112  C        -22.9370  -36.5720    5.6900 C.2   361  VAL361      0.2260
    113  O        -22.7460  -35.3930    6.0250 O.2   361  VAL361     -0.2867
    114  CB       -24.3760  -37.4410    7.5530 C.3   361  VAL361      0.0252
    115  CG1      -25.5700  -37.7050    6.6610 C.3   361  VAL361      0.0019
    116  CG2      -24.4160  -38.3880    8.7570 C.3   361  VAL361      0.0019
    117  N        -27.0270  -32.1510    2.7890 N.3   364  SER364     -0.1217
    118  CA       -28.1070  -32.0340    1.8160 C.3   364  SER364      0.1889
    119  C        -27.7890  -31.3710    0.4740 C.2   364  SER364      0.2288
    120  O        -28.2790  -31.8190   -0.5620 O.2   364  SER364     -0.2866
    121  CB       -29.3000  -31.3150    2.4470 C.3   364  SER364      0.2089
    122  OG       -28.9510  -29.9890    2.8140 O.3   364  SER364     -0.2183
    123  N        -25.0670  -34.9800   -6.0430 N.3   368  ARG368     -0.1245
    124  CA       -25.1110  -36.4310   -6.1470 C.3   368  ARG368      0.1563
    125  C        -24.9030  -36.9080   -7.5720 C.2   368  ARG368      0.2260
    126  O        -25.0680  -36.1490   -8.5330 O.2   368  ARG368     -0.2867
    127  CB       -26.4680  -36.9650   -5.6500 C.3   368  ARG368      0.0307
    128  CG       -26.9180  -36.4140   -4.3100 C.3   368  ARG368      0.0489
    129  CD       -25.8480  -36.6060   -3.2670 C.3   368  ARG368      0.2205
    130  NE       -26.0380  -35.7540   -2.0950 N.pl3 368  ARG368     -0.0865
    131  CZ       -26.9030  -35.9980   -1.1120 C.cat 368  ARG368      0.5346
    132  NH1      -27.6790  -37.0770   -1.1400 N.pl3 368  ARG368      0.1354
    133  NH2      -26.9860  -35.1540   -0.0940 N.pl3 368  ARG368      0.1354
    134  N        -27.1690  -45.8200    5.4890 N.3   454  ARG454     -0.1231
    135  CA       -28.3490  -45.7350    6.3410 C.3   454  ARG454      0.1694
    136  C        -28.6720  -44.2560    6.5400 C.2   454  ARG454      0.2592
    137  O        -29.8150  -43.8900    6.7970 O.2   454  ARG454     -0.2718
    138  CB       -28.0350  -46.4100    7.6840 C.3   454  ARG454      0.0321
    139  CG       -29.2020  -46.6510    8.6350 C.3   454  ARG454      0.0489
    140  CD       -29.3020  -48.1440    8.9840 C.3   454  ARG454      0.2205
    141  NE       -29.6020  -48.4310   10.3940 N.pl3 454  ARG454     -0.0865
    142  CZ       -30.5930  -47.8770   11.0930 C.cat 454  ARG454      0.5346
    143  NH1      -31.4010  -46.9830   10.5310 N.pl3 454  ARG454      0.1354
    144  NH2      -30.7960  -48.2380   12.3550 N.pl3 454  ARG454      0.1354
    145  N        -27.6490  -43.4160    6.4060 N.am  455  PHE455     -0.1962
    146  CA       -27.7820  -41.9740    6.5670 C.3   455  PHE455      0.1771
    147  C        -27.8550  -41.2670    5.2140 C.2   455  PHE455      0.2620
    148  O        -28.3160  -40.1250    5.1200 O.2   455  PHE455     -0.2715
    149  CB       -26.5940  -41.4390    7.3600 C.3   455  PHE455      0.0574
    150  CG       -26.5560  -41.8990    8.7890 C.ar  455  PHE455     -0.0200
    151  CD1      -25.3950  -41.7580    9.5430 C.ar  455  PHE455     -0.0042
    152  CD2      -27.6840  -42.4350    9.3990 C.ar  455  PHE455     -0.0042
    153  CE1      -25.3620  -42.1410   10.8850 C.ar  455  PHE455     -0.0003
    154  CE2      -27.6590  -42.8220   10.7450 C.ar  455  PHE455     -0.0003
    155  CZ       -26.5000  -42.6740   11.4850 C.ar  455  PHE455     -0.0000
    156  N        -27.3880  -41.9670    4.1790 N.am  456  ASN456     -0.1959
    157  CA       -27.3660  -41.4890    2.7930 C.3   456  ASN456      0.1804
    158  C        -27.7060  -42.6790    1.9040 C.2   456  ASN456      0.2463
    159  O        -26.8210  -43.2950    1.3230 O.2   456  ASN456     -0.2730
    160  CB       -25.9720  -40.9940    2.4170 C.3   456  ASN456      0.1195
    161  CG       -25.5380  -39.7900    3.2270 C.2   456  ASN456      0.2630
    162  OD1      -26.1160  -38.7040    3.1100 O.2   456  ASN456     -0.2716
    163  ND2      -24.5080  -39.9720    4.0530 N.am  456  ASN456     -0.0877
    164  N        -28.9960  -43.0130    1.7850 N.am  457  PRO457     -0.2716
    165  CA       -29.4650  -44.1410    0.9670 C.3   457  PRO457      0.1536
    166  C        -28.9710  -44.1460   -0.4760 C.2   457  PRO457      0.2598
    167  O        -29.0710  -45.1560   -1.1690 O.2   457  PRO457     -0.2715
    168  CB       -30.9890  -44.0150    1.0370 C.3   457  PRO457      0.0310
    169  CG       -31.2220  -43.3530    2.3650 C.3   457  PRO457      0.0237
    170  CD       -30.1290  -42.3040    2.4060 C.3   457  PRO457      0.0939
    171  N        -28.4590  -43.0130   -0.9380 N.am  458  GLN458     -0.1978
    172  CA       -27.9790  -42.9340   -2.3050 C.3   458  GLN458      0.1601
    173  C        -26.5950  -43.5530   -2.3850 C.2   458  GLN458      0.2287
    174  O        -25.9980  -43.6320   -3.4600 O.2   458  GLN458     -0.2864
    175  CB       -27.9420  -41.4820   -2.7800 C.3   458  GLN458      0.0394
    176  CG       -29.2410  -40.7250   -2.5890 C.3   458  GLN458      0.0908
    177  CD       -29.2600  -39.4040   -3.3440 C.2   458  GLN458      0.2608
    178  OE1      -28.2700  -38.6620   -3.3560 O.2   458  GLN458     -0.2717
    179  NE2      -30.3940  -39.0980   -3.9730 N.am  458  GLN458     -0.0878
@<TRIPOS>BOND
     1   126   125    2
     2   125   124    1
     3   124   123    1
     4   124   127    1
     5   127   128    1
     6   128   129    1
     7     3     4    2
     8     3     2    1
     9   179   177   am
    10   174   173    2
    11   178   177    2
    12   177   176    1
    13   129   130    1
    14     1     2    1
    15     1     7    1
    16     2     5    1
    17   175   176    1
    18   175   172    1
    19   173   172    1
    20     7     6    1
    21   172   171    1
    22   130   131    2
    23     6     5    1
    24   167   166    2
    25   132   131    1
    26   131   133    1
    27   171   166   am
    28   120   119    2
    29   166   165    1
    30   119   118    1
    31   165   168    1
    32   165   164    1
    33   168   169    1
    34   159   158    2
    35   164   158   am
    36   164   170    1
    37   118   121    1
    38   118   117    1
    39   158   157    1
    40   169   170    1
    41   160   157    1
    42   160   161    1
    43   121   122    1
    44   157   156    1
    45   162   161    2
    46   161   163   am
    47    46    45    1
    48   156   147   am
    49    47    45    1
    50    39    38    2
    51    40    38   am
    52    45    42    1
    53   148   147    2
    54   147   146    1
    55    38    37    1
    56    66    64   ar
    57   134   135    1
    58   112   113    2
    59   112   111    1
    60    65    64   ar
    61    64    63    1
    62    42    41    1
    63    42    43    1
    64   135   136    1
    65   135   138    1
    66   145   136   am
    67   145   146    1
    68    41    35   am
    69   136   137    2
    70   146   149    1
    71    33    34    1
    72    44    43    2
    73   115   114    1
    74    37    34    1
    75   111   114    1
    76   111   110    1
    77    43    48   am
    78     8     9    1
    79    35    34    1
    80    35    36    2
    81   149   150    1
    82   114   116    1
    83    63    60    1
    84   138   139    1
    85    62    61    2
    86    14    12    1
    87    48    49    1
    88    59    60    1
    89    59    50   am
    90    61    60    1
    91     9    12    1
    92     9    10    1
    93   139   140    1
    94   150   152   ar
    95   150   151   ar
    96    11    10    2
    97    49    50    1
    98    49    52    1
    99   140   141    1
   100    12    13    1
   101    50    51    2
   102   152   154   ar
   103   151   153   ar
   104    53    52    1
   105    53    54    1
   106   141   142    2
   107   143   142    1
   108    55    54    1
   109    55    56    2
   110   154   155   ar
   111   153   155   ar
   112    58    56    1
   113   142   144    1
   114   107   106    1
   115   107   108    2
   116   102   101    2
   117    56    57    1
   118   106   109    1
   119   106   105    1
   120   101   105   am
   121   101   100    1
   122    69    68    1
   123    69    70    2
   124    68    67    1
   125    68    71    1
   126   103   100    1
   127   103   104    1
   128    22    21    1
   129    22    23    1
   130    73    72   ar
   131    74    72   ar
   132    21    20    1
   133   100    99    1
   134    72    71    1
   135    98    96   am
   136    20    19    1
   137    97    96    2
   138    96    95    1
   139    19    16    1
   140    16    17    1
   141    16    15    1
   142    95    92    1
   143    94    93    2
   144    17    18    2
   145    93    92    1
   146    92    91    1
   147    27    26    2
   148    91    85   am
   149    26    25    1
   150    31    30    2
   151    78    77    2
   152    85    86    2
   153    85    84    1
   154    82    80    1
   155    80    79    1
   156    29    30    1
   157    29    28    1
   158    25    28    1
   159    25    24    1
   160    30    32   am
   161    84    83    1
   162    84    87    1
   163    77    83   am
   164    77    76    1
   165    75    76    1
   166    90    88    1
   167    87    88    1
   168    79    76    1
   169    79    81    1
   170    88    89    1
