@<TRIPOS>MOLECULE
tmp/3vtfA00.pdb
 215 209 0 0 0
SMALL
GASTEIGER

@<TRIPOS>ATOM
      1  N         15.2580   79.5470   22.4490 N.3    19  TYR19      -0.1227
      2  CA        15.1420   80.8170   21.7900 C.3    19  TYR19       0.1736
      3  C         13.7380   81.4850   21.9490 C.2    19  TYR19       0.2595
      4  O         13.6170   82.7170   21.9990 O.2    19  TYR19      -0.2718
      5  CB        15.6710   80.7730   20.3470 C.3    19  TYR19       0.0548
      6  CG        14.6460   80.4510   19.3860 C.ar   19  TYR19      -0.0200
      7  CD1       13.9580   81.4690   18.7370 C.ar   19  TYR19      -0.0009
      8  CD2       14.3050   79.0980   19.1010 C.ar   19  TYR19      -0.0009
      9  CE1       12.9390   81.1810   17.8290 C.ar   19  TYR19       0.0417
     10  CE2       13.2970   78.7720   18.1810 C.ar   19  TYR19       0.0417
     11  CZ        12.6090   79.8170   17.5480 C.ar   19  TYR19       0.1957
     12  OH        11.6180   79.4910   16.6210 O.3    19  TYR19      -0.2866
     13  N         12.6860   80.6850   21.9710 N.am   20  VAL20      -0.1980
     14  CA        11.3180   81.2580   22.2180 C.3    20  VAL20       0.1595
     15  C         11.2240   81.9040   23.6190 C.2    20  VAL20       0.2287
     16  O         10.8800   83.0690   23.7520 O.2    20  VAL20      -0.2864
     17  CB        10.2040   80.1980   22.0490 C.3    20  VAL20       0.0276
     18  CG1        8.8400   80.7980   22.4250 C.3    20  VAL20       0.0022
     19  CG2       10.1130   79.8080   20.5800 C.3    20  VAL20       0.0022
     20  N          4.5790   74.4710   21.5390 N.3   133  THR133     -0.1218
     21  CA         3.7870   73.8370   20.5490 C.3   133  THR133      0.1862
     22  C          3.2480   72.5260   21.0600 C.2   133  THR133      0.2287
     23  O          4.0320   71.5950   21.3010 O.2   133  THR133     -0.2866
     24  CB         4.6450   73.6250   19.2370 C.3   133  THR133      0.1770
     25  OG1        5.0400   74.9580   18.8040 O.3   133  THR133     -0.2211
     26  CG2        3.7230   72.9950   18.1440 C.3   133  THR133      0.0375
     27  N          3.3120   80.6480   19.4680 N.3   163  GLU163     -0.1231
     28  CA         4.3850   81.5750   19.0290 C.3   163  GLU163      0.1699
     29  C          4.7580   81.2640   17.6040 C.2   163  GLU163      0.2592
     30  O          4.5110   80.1480   17.1350 O.2   163  GLU163     -0.2718
     31  CB         5.5720   81.4700   19.9650 C.3   163  GLU163      0.0402
     32  CG         6.0690   80.0390   20.0740 C.3   163  GLU163      0.1161
     33  CD         6.9520   79.6870   18.9180 C.2   163  GLU163      0.3649
     34  OE1        7.5740   80.6370   18.2870 O.co2 163  GLU163     -0.2457
     35  OE2        7.0440   78.4870   18.6250 O.co2 163  GLU163     -0.2457
     36  N          5.1890   82.2880   16.8790 N.am  164  PHE164     -0.1962
     37  CA         5.4110   82.1910   15.4730 C.3   164  PHE164      0.1771
     38  C          6.7680   82.7600   15.0990 C.2   164  PHE164      0.2619
     39  O          7.0090   82.9970   13.8930 O.2   164  PHE164     -0.2715
     40  CB         4.3090   82.9720   14.7460 C.3   164  PHE164      0.0574
     41  CG         2.9220   82.4180   14.9770 C.ar  164  PHE164     -0.0200
     42  CD1        2.5360   81.1810   14.4200 C.ar  164  PHE164     -0.0042
     43  CD2        2.0260   83.1000   15.7980 C.ar  164  PHE164     -0.0042
     44  CE1        1.2540   80.6440   14.6390 C.ar  164  PHE164     -0.0003
     45  CE2        0.7310   82.5850   16.0020 C.ar  164  PHE164     -0.0003
     46  CZ         0.3710   81.3390   15.4480 C.ar  164  PHE164     -0.0000
     47  N          7.6530   82.8870   16.0950 N.am  165  LEU165     -0.1963
     48  CA         8.9780   83.4450   15.9370 C.3   165  LEU165      0.1728
     49  C          9.7780   82.5500   14.9730 C.2   165  LEU165      0.2616
     50  O          9.8060   81.3470   15.1500 O.2   165  LEU165     -0.2715
     51  CB         9.7220   83.4160   17.3160 C.3   165  LEU165      0.0311
     52  CG         9.0200   84.2770   18.4310 C.3   165  LEU165      0.0022
     53  CD1       10.0540   84.4980   19.5130 C.3   165  LEU165      0.0001
     54  CD2        8.4750   85.6370   17.9160 C.3   165  LEU165      0.0001
     55  N         10.5350   83.1370   14.0520 N.am  166  ARG166     -0.1963
     56  CA        11.5550   82.3370   13.3310 C.3   166  ARG166      0.1729
     57  C         12.9370   82.5750   13.8940 C.2   166  ARG166      0.2616
     58  O         13.3560   83.7310   14.2040 O.2   166  ARG166     -0.2715
     59  CB        11.5720   82.6090   11.8170 C.3   166  ARG166      0.0348
     60  CG        10.1980   82.7940   11.2610 C.3   166  ARG166      0.0492
     61  CD        10.2680   83.1640    9.7930 C.3   166  ARG166      0.2205
     62  NE        10.6740   84.5420    9.5580 N.pl3 166  ARG166     -0.0865
     63  CZ         9.9090   85.6110    9.7200 C.cat 166  ARG166      0.5346
     64  NH1        8.6500   85.5060   10.1340 N.pl3 166  ARG166      0.1354
     65  NH2       10.4230   86.8060    9.4590 N.pl3 166  ARG166      0.1354
     66  N         13.6850   81.4920   13.9940 N.am  167  GLU167     -0.1977
     67  CA        15.0690   81.6370   14.3800 C.3   167  GLU167      0.1602
     68  C         15.7690   82.5090   13.3590 C.2   167  GLU167      0.2287
     69  O         15.4530   82.4460   12.1370 O.2   167  GLU167     -0.2864
     70  CB        15.7490   80.2930   14.4160 C.3   167  GLU167      0.0415
     71  CG        15.9460   79.7280   15.7850 C.3   167  GLU167      0.1163
     72  CD        16.8840   78.5100   15.7610 C.2   167  GLU167      0.3649
     73  OE1       18.1380   78.6620   15.6470 O.co2 167  GLU167     -0.2457
     74  OE2       16.3310   77.4290   15.8860 O.co2 167  GLU167     -0.2457
     75  N         -1.4420   76.8300   15.2450 N.3   216  LYS216     -0.1301
     76  CA        -0.0160   76.6790   15.1980 C.3   216  LYS216      0.1247
     77  C          0.4110   75.5000   14.3140 C.3   216  LYS216      0.2009
     78  O          1.4390   75.6030   13.5050 O.3   216  LYS216     -0.2188
     79  CB         0.5050   76.4440   16.6070 C.3   216  LYS216      0.0218
     80  CG         2.0060   76.2120   16.7390 C.3   216  LYS216      0.0031
     81  CD         2.8070   77.2540   15.9490 C.3   216  LYS216      0.0205
     82  CE         4.2940   77.0460   16.1900 C.3   216  LYS216      0.1093
     83  NZ         5.0540   77.8590   15.1910 N.3   216  LYS216     -0.1314
     84  N          2.4500   75.7720   10.6930 N.3   220  ASN220     -0.1240
     85  CA         3.7840   75.1900   10.4630 C.3   220  ASN220      0.1653
     86  C          3.7310   74.0640    9.4190 C.2   220  ASN220      0.2266
     87  O          4.6530   73.9410    8.5570 O.2   220  ASN220     -0.2867
     88  CB         4.3620   74.5820   11.7910 C.3   220  ASN220      0.1155
     89  CG         5.2150   75.6270   12.5870 C.2   220  ASN220      0.2627
     90  OD1        5.0240   76.8140   12.4070 O.2   220  ASN220     -0.2716
     91  ND2        6.0550   75.1870   13.5160 N.am  220  ASN220     -0.0877
     92  N          3.4080   75.6160    5.8680 N.3   223  LEU223     -0.1245
     93  CA         4.7230   76.0690    5.3560 C.3   223  LEU223      0.1561
     94  C          5.5860   74.9010    4.8820 C.2   223  LEU223      0.2260
     95  O          6.2560   74.9750    3.8270 O.2   223  LEU223     -0.2867
     96  CB         5.4620   76.8900    6.3880 C.3   223  LEU223      0.0270
     97  CG         4.7200   78.2320    6.7100 C.3   223  LEU223      0.0019
     98  CD1        5.1680   78.8450    8.0410 C.3   223  LEU223      0.0001
     99  CD2        4.9080   79.2520    5.5710 C.3   223  LEU223      0.0001
    100  N          7.0290   73.9850    0.9480 N.3   227  ILE227     -0.1245
    101  CA         8.3880   73.5610    0.6230 C.3   227  ILE227      0.1561
    102  C          8.3590   72.1850   -0.1330 C.2   227  ILE227      0.2260
    103  O          9.0310   72.0030   -1.1690 O.2   227  ILE227     -0.2867
    104  CB         9.2220   73.4480    1.9090 C.3   227  ILE227      0.0252
    105  CG1        9.3670   74.8570    2.5520 C.3   227  ILE227      0.0019
    106  CG2       10.6260   72.9540    1.6310 C.3   227  ILE227      0.0019
    107  CD1        9.9610   74.8140    3.9510 C.3   227  ILE227      0.0001
    108  N          8.3170   80.7520    0.5480 N.3   261  TYR261     -0.1241
    109  CA         8.4620   79.3400    1.0390 C.3   261  TYR261      0.1605
    110  C          8.2480   78.3440   -0.0850 C.2   261  TYR261      0.2264
    111  O          7.9080   77.1950    0.1750 O.2   261  TYR261     -0.2867
    112  CB         7.5810   79.0340    2.3090 C.3   261  TYR261      0.0534
    113  CG         8.3620   79.3350    3.5540 C.ar  261  TYR261     -0.0201
    114  CD1        8.5820   78.3550    4.5220 C.ar  261  TYR261     -0.0009
    115  CD2        8.9660   80.5740    3.7200 C.ar  261  TYR261     -0.0009
    116  CE1        9.3310   78.6520    5.6710 C.ar  261  TYR261      0.0417
    117  CE2        9.7700   80.8520    4.8070 C.ar  261  TYR261      0.0417
    118  CZ         9.9360   79.9030    5.7700 C.ar  261  TYR261      0.1957
    119  OH        10.6180   80.2700    6.8790 O.3   261  TYR261     -0.2866
    120  N         10.9700   77.6070   -1.7810 N.3   263  GLY263     -0.1225
    121  CA        12.3710   77.3730   -2.0450 C.3   263  GLY263      0.1811
    122  C         12.6990   75.8820   -2.0960 C.2   263  GLY263      0.2280
    123  O         13.0980   75.2640   -1.0830 O.2   263  GLY263     -0.2866
    124  N         15.1710   70.3810    1.3860 N.3   267  GLY267     -0.1210
    125  CA        13.9850   70.2320    2.2800 C.3   267  GLY267      0.1956
    126  C         14.1340   71.0050    3.5640 C.2   267  GLY267      0.2612
    127  O         15.1320   71.7560    3.7360 O.2   267  GLY267     -0.2717
    128  N         13.2360   70.7700    4.5300 N.am  268  PHE268     -0.1962
    129  CA        13.3250   71.5980    5.7910 C.3   268  PHE268      0.1771
    130  C         13.9820   70.7940    6.8880 C.2   268  PHE268      0.2620
    131  O         13.7190   69.5670    7.0240 O.2   268  PHE268     -0.2715
    132  CB        11.9050   72.0820    6.1950 C.3   268  PHE268      0.0574
    133  CG        10.8200   70.9790    6.0710 C.ar  268  PHE268     -0.0200
    134  CD1       10.5650   70.1210    7.1480 C.ar  268  PHE268     -0.0042
    135  CD2       10.0580   70.8270    4.9220 C.ar  268  PHE268     -0.0042
    136  CE1        9.6250   69.1240    7.0970 C.ar  268  PHE268     -0.0003
    137  CE2        9.0900   69.8260    4.8250 C.ar  268  PHE268     -0.0003
    138  CZ         8.8760   68.9370    5.9320 C.ar  268  PHE268     -0.0000
    139  N         14.8300   71.4700    7.7040 N.am  269  GLY269     -0.1940
    140  CA        15.3540   70.8620    8.8970 C.3   269  GLY269      0.2014
    141  C         14.9650   71.7600   10.0920 C.2   269  GLY269      0.2639
    142  O         13.9130   72.4540   10.0640 O.2   269  GLY269     -0.2714
    143  N         15.7950   71.7590   11.1190 N.am  270  GLY270     -0.1939
    144  CA        15.5150   72.5780   12.3330 C.3   270  GLY270      0.2014
    145  C         14.6570   71.7520   13.3090 C.2   270  GLY270      0.2640
    146  O         14.1740   70.6430   12.9860 O.2   270  GLY270     -0.2714
    147  N         14.4700   72.2990   14.4950 N.am  271  SER271     -0.1935
    148  CA        13.7760   71.5710   15.5540 C.3   271  SER271      0.2055
    149  C         12.3010   71.7640   15.5100 C.2   271  SER271      0.2643
    150  O         11.6430   71.2610   16.4180 O.2   271  SER271     -0.2714
    151  CB        14.2550   71.9640   16.9670 C.3   271  SER271      0.2130
    152  OG        14.0580   73.3570   17.1510 O.3   271  SER271     -0.2179
    153  N         11.7460   72.4340   14.4700 N.am  272  CYS272     -0.1953
    154  CA        10.2970   72.5550   14.4310 C.3   272  CYS272      0.1843
    155  C          9.5810   71.8110   13.3400 C.2   272  CYS272      0.2625
    156  O          8.6740   71.0220   13.6360 O.2   272  CYS272     -0.2714
    157  CB         9.9050   74.0470   14.4500 C.3   272  CYS272      0.0997
    158  SG        10.3760   74.7090   16.1330 S.3   272  CYS272     -0.0797
    159  N          9.8630   72.1350   12.0590 N.am  273  PHE273     -0.1974
    160  CA         8.9840   71.6410   11.0390 C.3   273  PHE273      0.1639
    161  C          8.9510   70.0920   10.9450 C.2   273  PHE273      0.2290
    162  O          7.8800   69.5310   10.7820 O.2   273  PHE273     -0.2864
    163  CB         9.4280   72.2010    9.6440 C.3   273  PHE273      0.0560
    164  CG         8.8850   73.5860    9.3370 C.ar  273  PHE273     -0.0200
    165  CD1        8.1700   74.3410   10.3090 C.ar  273  PHE273     -0.0042
    166  CD2        9.0340   74.1040    8.0700 C.ar  273  PHE273     -0.0042
    167  CE1        7.6910   75.6070    9.9970 C.ar  273  PHE273     -0.0003
    168  CE2        8.4960   75.3330    7.7550 C.ar  273  PHE273     -0.0003
    169  CZ         7.8760   76.1090    8.7460 C.ar  273  PHE273     -0.0000
    170  N          7.0970   68.8730   14.1770 N.3   276  ASP276     -0.1239
    171  CA         5.6420   69.2910   14.2670 C.3   276  ASP276      0.1674
    172  C          4.8250   68.6070   13.2310 C.2   276  ASP276      0.2266
    173  O          3.6720   68.3390   13.4290 O.2   276  ASP276     -0.2867
    174  CB         5.4450   70.8340   14.1110 C.3   276  ASP276      0.1410
    175  CG         6.0920   71.5990   15.3000 C.2   276  ASP276      0.3668
    176  OD1        6.2000   71.0070   16.3850 O.co2 276  ASP276     -0.2456
    177  OD2        6.4570   72.8060   15.1750 O.co2 276  ASP276     -0.2456
    178  N         21.0370   74.5160   10.0020 N.3   331  PHE331     -0.1227
    179  CA        19.7940   74.0690    9.3450 C.3   331  PHE331      0.1736
    180  C         19.2170   75.1370    8.4230 C.2   331  PHE331      0.2595
    181  O         18.4180   74.8450    7.5260 O.2   331  PHE331     -0.2718
    182  CB        18.7410   73.6440   10.4010 C.3   331  PHE331      0.0547
    183  CG        17.8760   74.7560   10.9450 C.ar  331  PHE331     -0.0202
    184  CD1       16.6480   75.0050   10.4100 C.ar  331  PHE331     -0.0042
    185  CD2       18.2550   75.4420   12.0650 C.ar  331  PHE331     -0.0042
    186  CE1       15.7890   75.9490   10.9510 C.ar  331  PHE331     -0.0003
    187  CE2       17.4300   76.4060   12.6200 C.ar  331  PHE331     -0.0003
    188  CZ        16.1930   76.6660   12.0760 C.ar  331  PHE331     -0.0000
    189  N         19.6590   76.3680    8.6330 N.am  332  LYS332     -0.1966
    190  CA        19.4650   77.4390    7.6690 C.3   332  LYS332      0.1713
    191  C         20.5460   78.5040    7.9030 C.2   332  LYS332      0.2458
    192  O         21.3140   78.3890    8.8920 O.2   332  LYS332     -0.2730
    193  CB        18.1200   78.0800    7.8310 C.3   332  LYS332      0.0311
    194  CG        17.9050   78.6420    9.2430 C.3   332  LYS332      0.0038
    195  CD        16.5900   79.3440    9.1870 C.3   332  LYS332      0.0206
    196  CE        16.5290   80.3340   10.3170 C.3   332  LYS332      0.1093
    197  NZ        15.1460   80.8740   10.3020 N.3   332  LYS332     -0.1314
    198  N         20.6480   79.5240    6.9890 N.am  333  PRO333     -0.2727
    199  CA        21.7000   80.5230    7.1530 C.3   333  PRO333      0.1402
    200  C         21.5270   81.3860    8.4150 C.2   333  PRO333      0.2269
    201  O         20.4100   81.6220    8.8930 O.2   333  PRO333     -0.2865
    202  CB        21.5270   81.4370    5.9060 C.3   333  PRO333      0.0296
    203  CG        20.8890   80.5370    4.8640 C.3   333  PRO333      0.0237
    204  CD        19.8910   79.7620    5.7170 C.3   333  PRO333      0.0939
    205  N         20.4760   74.0680   -2.4660 N.3   415  ARG415     -0.1245
    206  CA        19.8900   75.3370   -2.0410 C.3   415  ARG415      0.1563
    207  C         19.7690   76.4840   -3.0660 C.2   415  ARG415      0.2260
    208  O         19.3930   77.5660   -2.6770 O.2   415  ARG415     -0.2867
    209  CB        20.5920   75.8580   -0.7890 C.3   415  ARG415      0.0307
    210  CG        20.5270   74.9150    0.3830 C.3   415  ARG415      0.0489
    211  CD        19.1230   74.8250    0.9520 C.3   415  ARG415      0.2205
    212  NE        19.0800   73.9330    2.0960 N.pl3 415  ARG415     -0.0865
    213  CZ        17.9800   73.3710    2.5680 C.cat 415  ARG415      0.5346
    214  NH1       16.8220   73.5880    1.9990 N.pl3 415  ARG415      0.1354
    215  NH2       18.0500   72.5770    3.6120 N.pl3 415  ARG415      0.1354
@<TRIPOS>BOND
     1   207   208    2
     2   207   206    1
     3   205   206    1
     4   122   121    1
     5   122   123    2
     6   121   120    1
     7   206   209    1
     8   103   102    2
     9   209   210    1
    10   102   101    1
    11   110   111    2
    12   110   109    1
    13   210   211    1
    14   108   109    1
    15   101   100    1
    16   101   104    1
    17   211   212    1
    18   109   112    1
    19   124   125    1
    20   106   104    1
    21   104   105    1
    22   214   213    1
    23   212   213    2
    24   125   126    1
    25   112   113    1
    26   105   107    1
    27   213   215    1
    28   113   115   ar
    29   113   114   ar
    30   126   127    2
    31   126   128   am
    32   115   117   ar
    33    95    94    2
    34   114   116   ar
    35   128   129    1
    36   117   118   ar
    37   137   135   ar
    38   137   138   ar
    39   203   204    1
    40   203   202    1
    41    94    93    1
    42   135   133   ar
    43    93    92    1
    44    93    96    1
    45    99    97    1
    46   116   118   ar
    47   204   198    1
    48   118   119    1
    49   129   132    1
    50   129   130    1
    51   202   199    1
    52   138   136   ar
    53   133   132    1
    54   133   134   ar
    55    96    97    1
    56    97    98    1
    57   130   131    2
    58   130   139   am
    59   198   199    1
    60   198   191   am
    61   136   134   ar
    62   199   200    1
    63   181   180    2
    64   190   193    1
    65   190   191    1
    66   190   189    1
    67   139   140    1
    68   168   166   ar
    69   168   169   ar
    70   193   194    1
    71   191   192    2
    72   166   164   ar
    73   200   201    2
    74   180   189   am
    75   180   179    1
    76    87    86    2
    77   169   167   ar
    78   140   141    1
    79   195   194    1
    80   195   196    1
    81   164   163    1
    82   164   165   ar
    83   179   178    1
    84   179   182    1
    85    86    85    1
    86    65    63    1
    87    62    63    2
    88    62    61    1
    89   163   160    1
    90    63    64    1
    91    61    60    1
    92   167   165   ar
    93   142   141    2
    94   141   143   am
    95   197   196    1
    96   182   183    1
    97   184   183   ar
    98   184   186   ar
    99    85    84    1
   100    85    88    1
   101   162   161    2
   102   161   160    1
   103   183   185   ar
   104   186   188   ar
   105   160   159    1
   106   143   144    1
   107    60    59    1
   108    88    89    1
   109    59    56    1
   110   159   155   am
   111   185   187   ar
   112   188   187   ar
   113    69    68    2
   114   144   145    1
   115    90    89    2
   116    89    91   am
   117   146   145    2
   118   172   173    2
   119   172   171    1
   120   145   147   am
   121    56    57    1
   122    56    55    1
   123   155   156    2
   124   155   154    1
   125    68    67    1
   126    78    77    1
   127    39    38    2
   128    57    66   am
   129    57    58    2
   130    66    67    1
   131    55    49   am
   132   174   171    1
   133   174   175    1
   134   170   171    1
   135    77    76    1
   136    67    70    1
   137    70    71    1
   138    42    44   ar
   139    42    41   ar
   140   154   157    1
   141   154   153    1
   142   157   158    1
   143   153   149   am
   144   147   148    1
   145    44    46   ar
   146    40    41    1
   147    40    37    1
   148    49    50    2
   149    49    48    1
   150    41    43   ar
   151    38    37    1
   152    38    47   am
   153   177   175   ar
   154    83    82    1
   155    76    75    1
   156    76    79    1
   157   175   176   ar
   158    46    45   ar
   159    37    36    1
   160   149   148    1
   161   149   150    2
   162   148   151    1
   163    73    72   ar
   164    72    71    1
   165    72    74   ar
   166    43    45   ar
   167    48    47    1
   168    48    51    1
   169    81    82    1
   170    81    80    1
   171    79    80    1
   172    12    11    1
   173    36    29   am
   174   151   152    1
   175    30    29    2
   176    51    52    1
   177    11     9   ar
   178    11    10   ar
   179    29    28    1
   180     9     7   ar
   181    54    52    1
   182    26    24    1
   183    10     8   ar
   184    34    33   ar
   185    52    53    1
   186    35    33   ar
   187     7     6   ar
   188    25    24    1
   189    33    32    1
   190    28    27    1
   191    28    31    1
   192     8     6   ar
   193    24    21    1
   194     6     5    1
   195    31    32    1
   196     5     2    1
   197    21    22    1
   198    21    20    1
   199    19    17    1
   200    22    23    2
   201     2     3    1
   202     2     1    1
   203     3    13   am
   204     3     4    2
   205    13    14    1
   206    17    14    1
   207    17    18    1
   208    14    15    1
   209    15    16    2
