@<TRIPOS>MOLECULE
tmp/3vthA00.pdb
 216 203 0 0 0
SMALL
GASTEIGER

@<TRIPOS>ATOM
      1  N         75.1700  -18.8000  -12.9480 N.3   243  LYS243     -0.1245
      2  CA        75.6650  -17.7370  -12.0710 C.3   243  LYS243      0.1561
      3  C         75.3300  -16.3350  -12.6180 C.2   243  LYS243      0.2260
      4  O         75.2440  -15.3690  -11.8490 O.2   243  LYS243     -0.2867
      5  CB        77.1710  -17.8940  -11.7840 C.3   243  LYS243      0.0271
      6  CG        77.6570  -17.0300  -10.5970 C.3   243  LYS243      0.0035
      7  CD        79.1230  -17.2740  -10.1990 C.3   243  LYS243      0.0206
      8  CE        79.5820  -16.1880   -9.2200 C.3   243  LYS243      0.1093
      9  NZ        80.9730  -16.4130   -8.7160 N.3   243  LYS243     -0.1314
     10  N         77.2710  -14.7760  -14.7480 N.3   245  ARG245     -0.1245
     11  CA        78.5960  -14.1380  -14.7660 C.3   245  ARG245      0.1563
     12  C         79.1980  -14.4000  -16.1430 C.2   245  ARG245      0.2260
     13  O         79.8310  -15.4420  -16.3680 O.2   245  ARG245     -0.2867
     14  CB        79.4600  -14.7760  -13.6810 C.3   245  ARG245      0.0307
     15  CG        80.8260  -14.1580  -13.4390 C.3   245  ARG245      0.0489
     16  CD        81.4840  -14.9580  -12.3120 C.3   245  ARG245      0.2205
     17  NE        82.8440  -14.5390  -11.9990 N.pl3 245  ARG245     -0.0865
     18  CZ        83.9050  -14.7840  -12.7640 C.cat 245  ARG245      0.5346
     19  NH1       83.7630  -15.4210  -13.9180 N.pl3 245  ARG245      0.1354
     20  NH2       85.1030  -14.3780  -12.3850 N.pl3 245  ARG245      0.1354
     21  N         83.5980  -11.7960  -16.8060 N.3   248  LYS248     -0.1231
     22  CA        84.7520  -11.8640  -15.9210 C.3   248  LYS248      0.1678
     23  C         85.4200  -13.2370  -16.0410 C.2   248  LYS248      0.2434
     24  O         84.7280  -14.2620  -16.0190 O.2   248  LYS248     -0.2733
     25  CB        84.3420  -11.6340  -14.4630 C.3   248  LYS248      0.0284
     26  CG        84.0720  -10.1800  -14.0530 C.3   248  LYS248      0.0035
     27  CD        83.9770  -10.1280  -12.5060 C.3   248  LYS248      0.0206
     28  CE        83.6580   -8.7230  -11.9770 C.3   248  LYS248      0.1093
     29  NZ        83.3700   -8.7590  -10.5070 N.3   248  LYS248     -0.1314
     30  N         86.7620  -13.2640  -16.1640 N.am  249  PRO249     -0.2718
     31  CA        87.4930  -14.5370  -16.2740 C.3   249  PRO249      0.1535
     32  C         87.3590  -15.3950  -15.0160 C.2   249  PRO249      0.2599
     33  O         87.2720  -14.8610  -13.9070 O.2   249  PRO249     -0.2715
     34  CB        88.9550  -14.0980  -16.4270 C.3   249  PRO249      0.0310
     35  CG        89.0030  -12.7130  -15.7510 C.3   249  PRO249      0.0237
     36  CD        87.6680  -12.0990  -16.0720 C.3   249  PRO249      0.0939
     37  N         87.3550  -16.7130  -15.2060 N.am  250  PHE250     -0.1960
     38  CA        87.3790  -17.6640  -14.1080 C.3   250  PHE250      0.1771
     39  C         88.8050  -18.0520  -13.7470 C.2   250  PHE250      0.2619
     40  O         89.6190  -18.3680  -14.6380 O.2   250  PHE250     -0.2715
     41  CB        86.6680  -18.9630  -14.5000 C.3   250  PHE250      0.0574
     42  CG        85.1680  -18.8690  -14.5340 C.ar  250  PHE250     -0.0200
     43  CD1       84.4550  -18.2520  -13.5040 C.ar  250  PHE250     -0.0042
     44  CD2       84.4620  -19.4590  -15.5670 C.ar  250  PHE250     -0.0042
     45  CE1       83.0580  -18.2070  -13.5330 C.ar  250  PHE250     -0.0003
     46  CE2       83.0680  -19.4230  -15.5980 C.ar  250  PHE250     -0.0003
     47  CZ        82.3690  -18.7850  -14.5970 C.ar  250  PHE250     -0.0000
     48  N         89.0740  -18.0720  -12.4460 N.am  251  ALA251     -0.1977
     49  CA        90.2680  -18.6730  -11.8980 C.3   251  ALA251      0.1597
     50  C         90.1280  -20.1930  -11.9170 C.2   251  ALA251      0.2287
     51  O         89.0280  -20.7100  -11.8260 O.2   251  ALA251     -0.2864
     52  CB        90.4790  -18.1940  -10.4660 C.3   251  ALA251      0.0319
     53  N         95.2810  -17.2440   -5.8060 N.3   281  ILE281     -0.1245
     54  CA        95.2090  -17.2660   -7.2750 C.3   281  ILE281      0.1561
     55  C         96.3590  -16.3620   -7.7720 C.2   281  ILE281      0.2260
     56  O         96.5310  -15.2690   -7.2640 O.2   281  ILE281     -0.2867
     57  CB        93.8630  -16.6630   -7.7360 C.3   281  ILE281      0.0252
     58  CG1       92.6860  -17.5620   -7.2920 C.3   281  ILE281      0.0019
     59  CG2       93.8580  -16.4030   -9.2680 C.3   281  ILE281      0.0019
     60  CD1       91.3490  -16.8260   -7.1970 C.3   281  ILE281      0.0001
     61  N         98.0430  -14.5610  -11.2030 N.3   283  LEU283     -0.1245
     62  CA        97.8290  -14.2460  -12.6130 C.3   283  LEU283      0.1561
     63  C         99.0970  -14.5290  -13.3970 C.2   283  LEU283      0.2260
     64  O        100.1590  -13.9650  -13.1160 O.2   283  LEU283     -0.2867
     65  CB        97.3820  -12.7870  -12.8100 C.3   283  LEU283      0.0270
     66  CG        96.1370  -12.3810  -12.0040 C.3   283  LEU283      0.0019
     67  CD1       95.7720  -10.9590  -12.3280 C.3   283  LEU283      0.0001
     68  CD2       94.9360  -13.3290  -12.2530 C.3   283  LEU283      0.0001
     69  N         88.9580  -17.6540  -19.9720 N.3   296  ALA296     -0.1245
     70  CA        89.5790  -16.3330  -19.9950 C.3   296  ALA296      0.1562
     71  C         89.7560  -15.8670  -21.4310 C.2   296  ALA296      0.2260
     72  O         90.8620  -15.5140  -21.8610 O.2   296  ALA296     -0.2867
     73  CB        90.9170  -16.3470  -19.2430 C.3   296  ALA296      0.0290
     74  N         91.8760  -12.6640  -23.1250 N.3   299  LEU299     -0.1245
     75  CA        92.9520  -12.2460  -22.2430 C.3   299  LEU299      0.1561
     76  C         94.1940  -13.1000  -22.5050 C.2   299  LEU299      0.2260
     77  O         94.0850  -14.2490  -22.9660 O.2   299  LEU299     -0.2867
     78  CB        92.5250  -12.3460  -20.7730 C.3   299  LEU299      0.0270
     79  CG        91.2720  -11.5400  -20.3800 C.3   299  LEU299      0.0019
     80  CD1       90.8890  -11.7890  -18.9170 C.3   299  LEU299      0.0001
     81  CD2       91.4680  -10.0600  -20.6390 C.3   299  LEU299      0.0001
     82  N         96.3090  -13.8060  -20.0410 N.3   301  THR301     -0.1203
     83  CA        96.6450  -14.3360  -18.7170 C.3   301  THR301      0.1994
     84  C         95.5840  -15.3140  -18.1930 C.2   301  THR301      0.2618
     85  O         94.4290  -15.2720  -18.6110 O.2   301  THR301     -0.2717
     86  CB        96.7760  -13.2170  -17.6710 C.3   301  THR301      0.1784
     87  OG1       95.5300  -12.5060  -17.5960 O.3   301  THR301     -0.2211
     88  CG2       97.9310  -12.2250  -18.0340 C.3   301  THR301      0.0376
     89  N         95.9950  -16.1910  -17.2820 N.am  302  LEU302     -0.1965
     90  CA        95.1050  -17.0990  -16.5880 C.3   302  LEU302      0.1728
     91  C         95.3210  -16.8930  -15.0860 C.2   302  LEU302      0.2616
     92  O         96.4550  -16.6890  -14.6490 O.2   302  LEU302     -0.2715
     93  CB        95.4810  -18.5340  -16.9670 C.3   302  LEU302      0.0311
     94  CG        94.4940  -19.6320  -17.3680 C.3   302  LEU302      0.0022
     95  CD1       93.3110  -19.1450  -18.2250 C.3   302  LEU302      0.0001
     96  CD2       95.2940  -20.7390  -18.1240 C.3   302  LEU302      0.0001
     97  N         94.2430  -16.9560  -14.3040 N.am  303  GLY303     -0.1955
     98  CA        94.3460  -16.9180  -12.8490 C.3   303  GLY303      0.1869
     99  C         94.4000  -18.3470  -12.3550 C.2   303  GLY303      0.2309
    100  O         93.4550  -19.1080  -12.5690 O.2   303  GLY303     -0.2863
    101  N         87.2590  -22.5500  -10.1010 N.3   325  MET325     -0.1230
    102  CA        86.8270  -22.2730   -8.7480 C.3   325  MET325      0.1702
    103  C         86.3620  -20.8270   -8.7600 C.2   325  MET325      0.2593
    104  O         87.1840  -19.9080   -8.8870 O.2   325  MET325     -0.2718
    105  CB        87.9840  -22.4410   -7.7510 C.3   325  MET325      0.0401
    106  CG        88.3770  -23.8790   -7.5130 C.3   325  MET325      0.0596
    107  SD        87.0920  -24.7420   -6.5880 S.3   325  MET325     -0.1393
    108  CE        87.7060  -24.5570   -4.9090 C.3   325  MET325      0.0692
    109  N         85.0560  -20.6320   -8.6460 N.am  326  THR326     -0.1939
    110  CA        84.4840  -19.2950   -8.6080 C.3   326  THR326      0.2028
    111  C         83.6670  -19.2390   -7.3380 C.2   326  THR326      0.2642
    112  O         83.2160  -20.2700   -6.8510 O.2   326  THR326     -0.2714
    113  CB        83.6470  -18.9670   -9.8890 C.3   326  THR326      0.1808
    114  OG1       83.2760  -17.5760   -9.8850 O.3   326  THR326     -0.2208
    115  CG2       82.3940  -19.8280   -9.9830 C.3   326  THR326      0.0379
    116  N         83.4910  -18.0520   -6.7760 N.am  327  SER327     -0.1949
    117  CA        82.8660  -17.9770   -5.4690 C.3   327  SER327      0.1924
    118  C         81.3940  -18.3910   -5.5670 C.2   327  SER327      0.2314
    119  O         80.7190  -18.1290   -6.5680 O.2   327  SER327     -0.2863
    120  CB        83.0540  -16.5850   -4.8440 C.3   327  SER327      0.2116
    121  OG        82.3330  -15.6090   -5.5660 O.3   327  SER327     -0.2180
    122  N         78.0370  -17.8740   -5.0160 N.3   329  ASN329     -0.1240
    123  CA        77.0120  -16.8530   -4.8120 C.3   329  ASN329      0.1653
    124  C         76.3750  -16.5450   -6.1620 C.2   329  ASN329      0.2266
    125  O         76.9480  -16.8790   -7.2100 O.2   329  ASN329     -0.2867
    126  CB        77.6120  -15.5800   -4.1980 C.3   329  ASN329      0.1155
    127  CG        78.9120  -15.1480   -4.8760 C.2   329  ASN329      0.2627
    128  OD1       80.0020  -15.5120   -4.4280 O.2   329  ASN329     -0.2716
    129  ND2       78.8020  -14.3610   -5.9550 N.am  329  ASN329     -0.0877
    130  N         75.8280  -13.8370   -8.9180 N.3   331  SER331     -0.1202
    131  CA        76.6340  -12.6870   -9.2960 C.3   331  SER331      0.2020
    132  C         76.3100  -11.4900   -8.3880 C.2   331  SER331      0.2619
    133  O         75.1410  -11.2040   -8.1350 O.2   331  SER331     -0.2717
    134  CB        76.3930  -12.3260  -10.7670 C.3   331  SER331      0.2103
    135  OG        77.4850  -11.5680  -11.2700 O.3   331  SER331     -0.2182
    136  N         77.3620  -10.8540   -7.8650 N.am  332  GLU332     -0.1965
    137  CA        77.3060   -9.5680   -7.1260 C.3   332  GLU332      0.1733
    138  C         76.9050   -9.6240   -5.6430 C.2   332  GLU332      0.2616
    139  O         76.8930   -8.5960   -4.9650 O.2   332  GLU332     -0.2715
    140  CB        76.4840   -8.5040   -7.8760 C.3   332  GLU332      0.0429
    141  CG        77.0550   -8.1320   -9.2430 C.3   332  GLU332      0.1163
    142  CD        76.1080   -7.2850  -10.0650 C.2   332  GLU332      0.3649
    143  OE1       76.2470   -7.2890  -11.3060 O.co2 332  GLU332     -0.2457
    144  OE2       75.2180   -6.6190   -9.4830 O.co2 332  GLU332     -0.2457
    145  N         76.6050  -10.8210   -5.1440 N.am  333  GLU333     -0.1977
    146  CA        76.3140  -11.0260   -3.7290 C.3   333  GLU333      0.1602
    147  C         77.5310  -11.6340   -3.0120 C.2   333  GLU333      0.2287
    148  O         78.3280  -12.3170   -3.6340 O.2   333  GLU333     -0.2864
    149  CB        75.0810  -11.9320   -3.5680 C.3   333  GLU333      0.0415
    150  CG        73.7790  -11.2760   -4.0360 C.3   333  GLU333      0.1163
    151  CD        72.5330  -12.1350   -3.8050 C.2   333  GLU333      0.3649
    152  OE1       72.5600  -13.0960   -2.9860 O.co2 333  GLU333     -0.2457
    153  OE2       71.5110  -11.8370   -4.4500 O.co2 333  GLU333     -0.2457
    154  N         87.1240  -14.3730    0.6970 N.3   365  ASP365     -0.1239
    155  CA        87.3830  -14.8180   -0.6730 C.3   365  ASP365      0.1674
    156  C         88.8220  -15.2620   -0.9020 C.2   365  ASP365      0.2266
    157  O         89.7080  -14.9300   -0.1220 O.2   365  ASP365     -0.2867
    158  CB        87.0440  -13.6790   -1.6420 C.3   365  ASP365      0.1410
    159  CG        85.5560  -13.5600   -1.8770 C.2   365  ASP365      0.3668
    160  OD1       84.9700  -14.4910   -2.4690 O.co2 365  ASP365     -0.2456
    161  OD2       84.9680  -12.5500   -1.4420 O.co2 365  ASP365     -0.2456
    162  N         93.9110  -12.7840   -5.0010 N.3   368  VAL368     -0.1245
    163  CA        94.3880  -12.7630   -6.3760 C.3   368  VAL368      0.1561
    164  C         95.6490  -11.9150   -6.3900 C.2   368  VAL368      0.2260
    165  O         95.6400  -10.7720   -5.9510 O.2   368  VAL368     -0.2867
    166  CB        93.3370  -12.1690   -7.3600 C.3   368  VAL368      0.0252
    167  CG1       93.8710  -12.1810   -8.8010 C.3   368  VAL368      0.0019
    168  CG2       92.0040  -12.9580   -7.2640 C.3   368  VAL368      0.0019
    169  N         96.2000   -8.0140   -6.2100 N.3   379  ILE379     -0.1231
    170  CA        95.0150   -7.4530   -6.8720 C.3   379  ILE379      0.1692
    171  C         93.8320   -7.5130   -5.9100 C.2   379  ILE379      0.2591
    172  O         93.0570   -6.5660   -5.8150 O.2   379  ILE379     -0.2718
    173  CB        94.6710   -8.2250   -8.2020 C.3   379  ILE379      0.0266
    174  CG1       95.7270   -7.9620   -9.2800 C.3   379  ILE379      0.0019
    175  CG2       93.2790   -7.8370   -8.7460 C.3   379  ILE379      0.0020
    176  CD1       96.7960   -9.0340   -9.4060 C.3   379  ILE379      0.0001
    177  N         93.6970   -8.6460   -5.2100 N.am  380  ARG380     -0.1980
    178  CA        92.6110   -8.8360   -4.2720 C.3   380  ARG380      0.1597
    179  C         93.2340   -9.4430   -3.0210 C.2   380  ARG380      0.2287
    180  O         93.7290  -10.5530   -3.0410 O.2   380  ARG380     -0.2864
    181  CB        91.5230   -9.7450   -4.8710 C.3   380  ARG380      0.0334
    182  CG        90.2860   -9.9350   -3.9340 C.3   380  ARG380      0.0492
    183  CD        89.2500  -10.8820   -4.5950 C.3   380  ARG380      0.2205
    184  NE        88.4490  -10.1660   -5.5910 N.pl3 380  ARG380     -0.0865
    185  CZ        87.3880  -10.6820   -6.2200 C.cat 380  ARG380      0.5346
    186  NH1       87.0140  -11.9370   -5.9830 N.pl3 380  ARG380      0.1354
    187  NH2       86.6970   -9.9350   -7.0870 N.pl3 380  ARG380      0.1354
    188  N         89.0790   -8.2730    1.3040 N.3   424  HIS424     -0.1241
    189  CA        88.1800   -7.8520    0.2230 C.3   424  HIS424      0.1621
    190  C         86.7120   -8.0450    0.6020 C.2   424  HIS424      0.2264
    191  O         86.2990   -9.1510    0.9840 O.2   424  HIS424     -0.2867
    192  CB        88.4990   -8.7030   -1.0070 C.3   424  HIS424      0.0745
    193  CG        87.5670   -8.4910   -2.1580 C.ar  424  HIS424      0.0817
    194  ND1       86.5570   -9.3780   -2.4720 N.ar  424  HIS424     -0.2268
    195  CD2       87.5100   -7.5120   -3.0860 C.ar  424  HIS424      0.1154
    196  CE1       85.9160   -8.9550   -3.5480 C.ar  424  HIS424      0.1986
    197  NE2       86.4860   -7.8340   -3.9500 N.ar  424  HIS424     -0.2212
    198  N         81.7840   -5.8970  -17.8790 N.3   614  PHE614     -0.1241
    199  CA        82.2770   -5.4550  -16.5840 C.3   614  PHE614      0.1605
    200  C         83.2620   -4.3100  -16.7560 C.2   614  PHE614      0.2264
    201  O         83.9160   -4.1890  -17.7860 O.2   614  PHE614     -0.2867
    202  CB        82.9020   -6.6190  -15.7860 C.3   614  PHE614      0.0534
    203  CG        84.1030   -7.2690  -16.4550 C.ar  614  PHE614     -0.0203
    204  CD1       83.9360   -8.3240  -17.3370 C.ar  614  PHE614     -0.0042
    205  CD2       85.3990   -6.8430  -16.1660 C.ar  614  PHE614     -0.0042
    206  CE1       85.0340   -8.9310  -17.9450 C.ar  614  PHE614     -0.0003
    207  CE2       86.5110   -7.4510  -16.7760 C.ar  614  PHE614     -0.0003
    208  CZ        86.3200   -8.4930  -17.6650 C.ar  614  PHE614     -0.0000
    209  N         91.6000   -4.3470  -20.2050 N.3   620  MET620     -0.1245
    210  CA        92.2740   -5.6370  -20.1010 C.3   620  MET620      0.1570
    211  C         92.4950   -6.2770  -21.4660 C.2   620  MET620      0.2261
    212  O         93.5570   -6.8250  -21.7340 O.2   620  MET620     -0.2867
    213  CB        91.4680   -6.5830  -19.1890 C.3   620  MET620      0.0387
    214  CG        91.4330   -6.0950  -17.7310 C.3   620  MET620      0.0595
    215  SD        90.2560   -7.0300  -16.7120 S.3   620  MET620     -0.1393
    216  CE        91.1370   -8.5860  -16.5890 C.3   620  MET620      0.0692
@<TRIPOS>BOND
     1    74    75    1
     2    77    76    2
     3    76    75    1
     4    75    78    1
     5    72    71    2
     6   212   211    2
     7   211   210    1
     8    71    70    1
     9    78    79    1
    10    81    79    1
    11    79    80    1
    12   209   210    1
    13   210   213    1
    14    82    83    1
    15    70    69    1
    16    70    73    1
    17   213   214    1
    18    83    84    1
    19    83    86    1
    20    85    84    2
    21    95    94    1
    22    84    89   am
    23    96    94    1
    24    88    86    1
    25   206   208   ar
    26   206   204   ar
    27   198   199    1
    28   201   200    2
    29   214   215    1
    30    86    87    1
    31   208   207   ar
    32    94    93    1
    33   204   203   ar
    34    89    90    1
    35    93    90    1
    36    21    22    1
    37   207   205   ar
    38   200   199    1
    39   215   216    1
    40    90    91    1
    41   199   202    1
    42   203   205   ar
    43   203   202    1
    44    34    31    1
    45    34    35    1
    46    13    12    2
    47    31    30    1
    48    31    32    1
    49    30    36    1
    50    30    23   am
    51    12    11    1
    52    36    35    1
    53    23    24    2
    54    23    22    1
    55    22    25    1
    56    46    44   ar
    57    46    47   ar
    58    44    42   ar
    59    37    32   am
    60    37    38    1
    61    91    92    2
    62    91    97   am
    63    32    33    2
    64    11    10    1
    65    11    14    1
    66    40    39    2
    67    47    45   ar
    68    42    41    1
    69    42    43   ar
    70    41    38    1
    71    25    26    1
    72    97    98    1
    73    38    39    1
    74    26    27    1
    75    19    18    1
    76    39    48   am
    77    14    15    1
    78    45    43   ar
    79    15    16    1
    80    63    64    2
    81    63    62    1
    82     1     2    1
    83    98    99    1
    84    65    62    1
    85    65    66    1
    86    18    20    1
    87    18    17    2
    88     3     2    1
    89     3     4    2
    90    62    61    1
    91   100    99    2
    92    27    28    1
    93    48    49    1
    94    67    66    1
    95    16    17    1
    96    68    66    1
    97     2     5    1
    98    28    29    1
    99    50    49    1
   100    50    51    2
   101    49    52    1
   102     5     6    1
   103   143   142   ar
   104   135   134    1
   105   134   131    1
   106     6     7    1
   107     7     8    1
   108   101   102    1
   109   142   144   ar
   110   142   141    1
   111   115   113    1
   112   113   114    1
   113   113   110    1
   114   176   174    1
   115   131   130    1
   116   131   132    1
   117   174   173    1
   118    59    57    1
   119   141   140    1
   120     8     9    1
   121   104   103    2
   122   167   166    1
   123   103   102    1
   124   103   109   am
   125   102   105    1
   126   175   173    1
   127   109   110    1
   128   110   111    1
   129   132   133    2
   130   132   136   am
   131   173   170    1
   132   140   137    1
   133   136   137    1
   134    55    54    1
   135    55    56    2
   136   105   106    1
   137    57    58    1
   138    57    54    1
   139   106   107    1
   140   166   168    1
   141   166   163    1
   142   111   112    2
   143   111   116   am
   144    58    60    1
   145    54    53    1
   146   125   124    2
   147   137   138    1
   148   187   185    1
   149   170   169    1
   150   170   171    1
   151   116   117    1
   152   107   108    1
   153   119   118    2
   154   164   163    1
   155   164   165    2
   156   163   162    1
   157   185   186    1
   158   185   184    2
   159   124   123    1
   160   129   127   am
   161   171   172    2
   162   171   177   am
   163   138   145   am
   164   138   139    2
   165   184   183    1
   166   118   117    1
   167   121   120    1
   168   117   120    1
   169   177   178    1
   170   145   146    1
   171   122   123    1
   172   127   128    2
   173   127   126    1
   174   181   178    1
   175   181   182    1
   176   123   126    1
   177   183   182    1
   178   153   151   ar
   179   178   179    1
   180   150   151    1
   181   150   149    1
   182   197   196   ar
   183   197   195   ar
   184   151   152   ar
   185   146   149    1
   186   146   147    1
   187   148   147    2
   188   196   194   ar
   189   195   193   ar
   190   180   179    2
   191   194   193   ar
   192   160   159   ar
   193   193   192    1
   194   159   158    1
   195   159   161   ar
   196   158   155    1
   197   192   189    1
   198   156   155    1
   199   156   157    2
   200   155   154    1
   201   189   190    1
   202   189   188    1
   203   190   191    2
