@<TRIPOS>MOLECULE
tmp/3vthA01.pdb
 192 183 0 0 0
SMALL
GASTEIGER

@<TRIPOS>ATOM
      1  N         84.1150    0.4930   -5.4880 N.3   407  TYR407     -0.1227
      2  CA        84.5940   -0.7420   -6.1130 C.3   407  TYR407      0.1736
      3  C         85.5580   -1.4710   -5.2010 C.2   407  TYR407      0.2595
      4  O         86.3890   -0.8350   -4.5350 O.2   407  TYR407     -0.2718
      5  CB        85.3420   -0.4500   -7.4130 C.3   407  TYR407      0.0548
      6  CG        84.4820    0.1050   -8.5200 C.ar  407  TYR407     -0.0200
      7  CD1       83.5840   -0.7130   -9.2100 C.ar  407  TYR407     -0.0009
      8  CD2       84.5770    1.4490   -8.8860 C.ar  407  TYR407     -0.0009
      9  CE1       82.7870   -0.2030  -10.2550 C.ar  407  TYR407      0.0417
     10  CE2       83.7940    1.9720   -9.9320 C.ar  407  TYR407      0.0417
     11  CZ        82.9060    1.1390  -10.6050 C.ar  407  TYR407      0.1957
     12  OH        82.1370    1.6580  -11.6230 O.3   407  TYR407     -0.2866
     13  N         85.4650   -2.7980   -5.1890 N.am  408  LYS408     -0.1980
     14  CA        86.4700   -3.6310   -4.5390 C.3   408  LYS408      0.1596
     15  C         86.7160   -3.1700   -3.0980 C.2   408  LYS408      0.2287
     16  O         87.8580   -3.0880   -2.6270 O.2   408  LYS408     -0.2864
     17  CB        87.7790   -3.5770   -5.3400 C.3   408  LYS408      0.0298
     18  CG        87.6910   -4.1810   -6.7720 C.3   408  LYS408      0.0038
     19  CD        88.9890   -3.8750   -7.5370 C.3   408  LYS408      0.0206
     20  CE        89.0700   -4.5460   -8.9300 C.3   408  LYS408      0.1093
     21  NZ        87.9260   -4.1930   -9.8590 N.3   408  LYS408     -0.1314
     22  N         78.9450    7.3490   -2.4550 N.3   463  TYR463     -0.1241
     23  CA        79.3840    6.0120   -2.0100 C.3   463  TYR463      0.1605
     24  C         78.5800    5.6150   -0.7770 C.2   463  TYR463      0.2264
     25  O         78.3940    6.4210    0.1270 O.2   463  TYR463     -0.2867
     26  CB        80.8650    6.0090   -1.6390 C.3   463  TYR463      0.0534
     27  CG        81.8460    6.1830   -2.7830 C.ar  463  TYR463     -0.0201
     28  CD1       81.4280    6.2200   -4.1310 C.ar  463  TYR463     -0.0009
     29  CD2       83.2000    6.2730   -2.5140 C.ar  463  TYR463     -0.0009
     30  CE1       82.3870    6.3630   -5.1840 C.ar  463  TYR463      0.0417
     31  CE2       84.1350    6.4190   -3.5190 C.ar  463  TYR463      0.0417
     32  CZ        83.7240    6.4690   -4.8450 C.ar  463  TYR463      0.1957
     33  OH        84.7210    6.6160   -5.7760 O.3   463  TYR463     -0.2866
     34  N         90.1110   10.9680   -3.4360 N.3   481  HIS481     -0.1241
     35  CA        90.3240    9.5800   -3.8920 C.3   481  HIS481      0.1621
     36  C         91.7490    9.2890   -4.3610 C.2   481  HIS481      0.2264
     37  O         92.3510    8.2800   -3.9850 O.2   481  HIS481     -0.2867
     38  CB        89.3460    9.2850   -5.0360 C.3   481  HIS481      0.0745
     39  CG        89.3220    7.8490   -5.4640 C.ar  481  HIS481      0.0817
     40  ND1       88.5420    6.9000   -4.8370 N.ar  481  HIS481     -0.2268
     41  CD2       89.9570    7.2060   -6.4760 C.ar  481  HIS481      0.1154
     42  CE1       88.7030    5.7330   -5.4390 C.ar  481  HIS481      0.1986
     43  NE2       89.5530    5.8920   -6.4360 N.ar  481  HIS481     -0.2212
     44  N         94.9120    6.8920   -2.9970 N.3   485  HIS485     -0.1241
     45  CA        95.6920    5.8940   -3.7680 C.3   485  HIS485      0.1621
     46  C         97.1940    6.1070   -3.5380 C.2   485  HIS485      0.2264
     47  O         97.9350    5.1540   -3.2400 O.2   485  HIS485     -0.2867
     48  CB        95.4120    5.9920   -5.2880 C.3   485  HIS485      0.0745
     49  CG        94.2310    5.2000   -5.7700 C.ar  485  HIS485      0.0817
     50  ND1       94.0730    3.8490   -5.5240 N.ar  485  HIS485     -0.2268
     51  CD2       93.1810    5.5640   -6.5510 C.ar  485  HIS485      0.1154
     52  CE1       92.9690    3.4230   -6.1160 C.ar  485  HIS485      0.1986
     53  NE2       92.4080    4.4460   -6.7430 N.ar  485  HIS485     -0.2212
     54  N         93.4340    5.9670  -12.8630 N.3   505  ASP505     -0.1225
     55  CA        92.3360    4.9990  -12.6720 C.3   505  ASP505      0.1805
     56  C         91.1250    5.3560  -13.5260 C.2   505  ASP505      0.2598
     57  O         91.2460    6.1720  -14.4440 O.2   505  ASP505     -0.2718
     58  CB        91.9760    4.7770  -11.1780 C.3   505  ASP505      0.1424
     59  CG        91.3700    6.0030  -10.4860 C.2   505  ASP505      0.3668
     60  OD1       91.0260    7.0320  -11.1310 O.co2 505  ASP505     -0.2456
     61  OD2       91.2310    5.9360   -9.2410 O.co2 505  ASP505     -0.2456
     62  N         89.9770    4.7300  -13.2490 N.am  506  GLY506     -0.1942
     63  CA        88.7490    4.9840  -14.0100 C.3   506  GLY506      0.2014
     64  C         87.9490    6.2050  -13.5700 C.2   506  GLY506      0.2639
     65  O         87.6680    7.1160  -14.3730 O.2   506  GLY506     -0.2714
     66  N         87.5290    6.2250  -12.3050 N.am  507  THR507     -0.1950
     67  CA        86.7150    7.3260  -11.8100 C.3   507  THR507      0.1897
     68  C         86.9570    7.5540  -10.3410 C.2   507  THR507      0.2313
     69  O         86.8420    6.6430   -9.5330 O.2   507  THR507     -0.2863
     70  CB        85.1830    7.0640  -11.9460 C.3   507  THR507      0.1794
     71  OG1       84.8660    5.7860  -11.3710 O.3   507  THR507     -0.2208
     72  CG2       84.7480    7.0640  -13.3870 C.3   507  THR507      0.0378
     73  N         91.3210    5.3890  -17.2690 N.3   596  GLY596     -0.1210
     74  CA        90.3760    4.3010  -17.5990 C.3   596  GLY596      0.1956
     75  C         89.4950    4.6040  -18.8070 C.2   596  GLY596      0.2611
     76  O         89.3370    3.7600  -19.7030 O.2   596  GLY596     -0.2717
     77  N         88.9190    5.8050  -18.8410 N.am  597  ARG597     -0.1979
     78  CA        88.0780    6.1980  -19.9640 C.3   597  ARG597      0.1597
     79  C         88.9100    6.3910  -21.2270 C.2   597  ARG597      0.2287
     80  O         88.4380    6.1000  -22.3310 O.2   597  ARG597     -0.2864
     81  CB        87.2570    7.4740  -19.6620 C.3   597  ARG597      0.0334
     82  CG        86.2780    7.3890  -18.4510 C.3   597  ARG597      0.0492
     83  CD        85.1240    6.3690  -18.5840 C.3   597  ARG597      0.2205
     84  NE        85.6180    4.9930  -18.5320 N.pl3 597  ARG597     -0.0865
     85  CZ        85.8460    4.3010  -17.4120 C.cat 597  ARG597      0.5346
     86  NH1       85.5970    4.8330  -16.2160 N.pl3 597  ARG597      0.1354
     87  NH2       86.3280    3.0680  -17.4930 N.pl3 597  ARG597      0.1354
     88  N         91.5830    4.6370  -22.0250 N.3   599  PHE599     -0.1227
     89  CA        91.6830    3.2550  -22.5080 C.3   599  PHE599      0.1736
     90  C         90.4000    2.7880  -23.1960 C.2   599  PHE599      0.2595
     91  O         90.4670    2.2070  -24.2800 O.2   599  PHE599     -0.2718
     92  CB        92.0560    2.2830  -21.3740 C.3   599  PHE599      0.0547
     93  CG        93.5390    2.0560  -21.2460 C.ar  599  PHE599     -0.0202
     94  CD1       94.0930    0.8160  -21.5750 C.ar  599  PHE599     -0.0042
     95  CD2       94.3810    3.0780  -20.7970 C.ar  599  PHE599     -0.0042
     96  CE1       95.4800    0.5940  -21.4530 C.ar  599  PHE599     -0.0003
     97  CE2       95.7670    2.8650  -20.6700 C.ar  599  PHE599     -0.0003
     98  CZ        96.3150    1.6230  -21.0120 C.ar  599  PHE599     -0.0000
     99  N         89.2400    3.0630  -22.5890 N.am  600  ASP600     -0.1974
    100  CA        87.9580    2.6420  -23.1990 C.3   600  ASP600      0.1709
    101  C         87.7210    3.3150  -24.5560 C.2   600  ASP600      0.2293
    102  O         87.2330    2.6770  -25.4940 O.2   600  ASP600     -0.2864
    103  CB        86.7710    2.9200  -22.2750 C.3   600  ASP600      0.1436
    104  CG        86.7050    1.9570  -21.0880 C.2   600  ASP600      0.3671
    105  OD1       87.4410    0.9420  -21.0760 O.co2 600  ASP600     -0.2456
    106  OD2       85.9190    2.2410  -20.1580 O.co2 600  ASP600     -0.2456
    107  N         83.3510   -3.4720  -15.7290 N.3   615  GLU615     -0.1231
    108  CA        84.2120   -2.2930  -15.7300 C.3   615  GLU615      0.1699
    109  C         85.6760   -2.7210  -15.9170 C.2   615  GLU615      0.2592
    110  O         86.1760   -3.5700  -15.1940 O.2   615  GLU615     -0.2718
    111  CB        84.0090   -1.5450  -14.3980 C.3   615  GLU615      0.0402
    112  CG        84.8290   -0.2670  -14.1890 C.3   615  GLU615      0.1161
    113  CD        84.1740    0.9860  -14.7620 C.2   615  GLU615      0.3649
    114  OE1       84.1450    1.1360  -16.0110 O.co2 615  GLU615     -0.2457
    115  OE2       83.7060    1.8350  -13.9570 O.co2 615  GLU615     -0.2457
    116  N         86.3480   -2.1450  -16.9080 N.am  616  GLY616     -0.1957
    117  CA        87.7630   -2.4290  -17.1200 C.3   616  GLY616      0.1869
    118  C         88.0230   -3.5230  -18.1410 C.2   616  GLY616      0.2309
    119  O         89.1600   -3.7240  -18.5550 O.2   616  GLY616     -0.2863
    120  N         89.8500   -2.3670  -21.1770 N.3   619  ALA619     -0.1231
    121  CA        91.2670   -2.0430  -20.9330 C.3   619  ALA619      0.1694
    122  C         92.1450   -3.2990  -20.8140 C.2   619  ALA619      0.2591
    123  O         93.2770   -3.3220  -21.2980 O.2   619  ALA619     -0.2718
    124  CB        91.4220   -1.1190  -19.7210 C.3   619  ALA619      0.0304
    125  N         91.6000   -4.3470  -20.2050 N.am  620  MET620     -0.1979
    126  CA        92.2740   -5.6370  -20.1010 C.3   620  MET620      0.1605
    127  C         92.4950   -6.2770  -21.4660 C.2   620  MET620      0.2287
    128  O         93.5570   -6.8250  -21.7340 O.2   620  MET620     -0.2864
    129  CB        91.4680   -6.5830  -19.1890 C.3   620  MET620      0.0413
    130  CG        91.4330   -6.0950  -17.7310 C.3   620  MET620      0.0598
    131  SD        90.2560   -7.0300  -16.7120 S.3   620  MET620     -0.1393
    132  CE        91.1370   -8.5860  -16.5890 C.3   620  MET620      0.0692
    133  N         95.2740   -4.3710  -23.4050 N.3   623  GLU623     -0.1245
    134  CA        96.5870   -4.7790  -22.9020 C.3   623  GLU623      0.1567
    135  C         96.9890   -6.1720  -23.3900 C.2   623  GLU623      0.2260
    136  O         98.1350   -6.3810  -23.8010 O.2   623  GLU623     -0.2867
    137  CB        96.6350   -4.7330  -21.3550 C.3   623  GLU623      0.0388
    138  CG        98.0540   -5.0390  -20.7890 C.3   623  GLU623      0.1160
    139  CD        98.0800   -5.3870  -19.2920 C.2   623  GLU623      0.3649
    140  OE1       97.0180   -5.3790  -18.6390 O.co2 623  GLU623     -0.2457
    141  OE2       99.1790   -5.6880  -18.7700 O.co2 623  GLU623     -0.2457
    142  N         93.9650    2.1440  -10.1360 N.3   700  GLY700     -0.1210
    143  CA        93.6610    0.8800  -10.8140 C.3   700  GLY700      0.1956
    144  C         94.2410    0.7100  -12.2150 C.2   700  GLY700      0.2612
    145  O         94.4000   -0.4160  -12.6600 O.2   700  GLY700     -0.2717
    146  N         94.5700    1.7960  -12.9150 N.am  701  SER701     -0.1952
    147  CA        95.2300    1.6420  -14.2340 C.3   701  SER701      0.1924
    148  C         96.5950    0.9510  -14.0910 C.2   701  SER701      0.2314
    149  O         97.0910    0.3460  -15.0270 O.2   701  SER701     -0.2863
    150  CB        95.4200    2.9870  -14.9520 C.3   701  SER701      0.2116
    151  OG        94.1980    3.6590  -15.1880 O.3   701  SER701     -0.2180
    152  N         97.2060   -1.7060  -12.5190 N.3   703  GLN703     -0.1231
    153  CA        97.0250   -3.1420  -12.7360 C.3   703  GLN703      0.1698
    154  C         97.5190   -3.5850  -14.1230 C.2   703  GLN703      0.2592
    155  O         97.7570   -4.7720  -14.3540 O.2   703  GLN703     -0.2718
    156  CB        95.5580   -3.5210  -12.5780 C.3   703  GLN703      0.0381
    157  CG        95.0350   -3.3670  -11.1400 C.3   703  GLN703      0.0905
    158  CD        93.5370   -3.4870  -11.0820 C.2   703  GLN703      0.2608
    159  OE1       92.8100   -2.6450  -11.6300 O.2   703  GLN703     -0.2717
    160  NE2       93.0560   -4.5260  -10.4210 N.am  703  GLN703     -0.0878
    161  N         97.6720   -2.6290  -15.0330 N.am  704  ASN704     -0.1974
    162  CA        98.2640   -2.8950  -16.3460 C.3   704  ASN704      0.1688
    163  C         99.7560   -3.1820  -16.1400 C.2   704  ASN704      0.2292
    164  O        100.5140   -2.2920  -15.7010 O.2   704  ASN704     -0.2864
    165  CB        98.0470   -1.6670  -17.2420 C.3   704  ASN704      0.1181
    166  CG        98.4750   -1.8900  -18.6740 C.2   704  ASN704      0.2629
    167  OD1       99.6210   -2.2260  -18.9460 O.2   704  ASN704     -0.2716
    168  ND2       97.5440   -1.7060  -19.6000 N.am  704  ASN704     -0.0877
    169  N        102.2460   -0.8400  -18.4070 N.3   707  LEU707     -0.1245
    170  CA       102.3300    0.5280  -17.8740 C.3   707  LEU707      0.1561
    171  C        103.1770    0.6120  -16.6120 C.2   707  LEU707      0.2260
    172  O        104.0460    1.4730  -16.4890 O.2   707  LEU707     -0.2867
    173  CB       100.9410    1.0990  -17.5440 C.3   707  LEU707      0.0270
    174  CG        99.9600    1.4890  -18.6450 C.3   707  LEU707      0.0019
    175  CD1       98.7870    2.2430  -18.0280 C.3   707  LEU707      0.0001
    176  CD2      100.6200    2.3330  -19.7470 C.3   707  LEU707      0.0001
    177  N         94.5040   -0.8430   -7.0410 N.3   731  ASN731     -0.1225
    178  CA        93.0740   -0.5880   -7.3030 C.3   731  ASN731      0.1785
    179  C         92.3510   -0.1260   -6.0310 C.2   731  ASN731      0.2597
    180  O         92.9860    0.0540   -4.9960 O.2   731  ASN731     -0.2718
    181  CB        92.3870   -1.7910   -7.9650 C.3   731  ASN731      0.1169
    182  CG        92.3320   -3.0220   -7.0520 C.2   731  ASN731      0.2627
    183  OD1       91.9600   -2.9350   -5.8710 O.2   731  ASN731     -0.2716
    184  ND2       92.6880   -4.1770   -7.6080 N.am  731  ASN731     -0.0877
    185  N         91.0370    0.0680   -6.1080 N.am  732  ASP732     -0.1974
    186  CA        90.3060    0.6460   -4.9730 C.3   732  ASP732      0.1709
    187  C         90.3010   -0.1780   -3.6860 C.2   732  ASP732      0.2293
    188  O         89.9240    0.3340   -2.6270 O.2   732  ASP732     -0.2864
    189  CB        88.8780    1.0330   -5.3770 C.3   732  ASP732      0.1436
    190  CG        88.8340    2.3320   -6.1740 C.2   732  ASP732      0.3671
    191  OD1       89.9100    2.8930   -6.4620 O.co2 732  ASP732     -0.2456
    192  OD2       87.7240    2.8050   -6.4960 O.co2 732  ASP732     -0.2456
@<TRIPOS>BOND
     1   102   101    2
     2   101   100    1
     3    91    90    2
     4   136   135    2
     5   133   134    1
     6   135   134    1
     7   100    99    1
     8   100   103    1
     9    90    99   am
    10    90    89    1
    11   134   137    1
    12    89    88    1
    13    89    92    1
    14    80    79    2
    15   103   104    1
    16   128   127    2
    17    94    96   ar
    18    94    93   ar
    19   127   126    1
    20    96    98   ar
    21    92    93    1
    22   137   138    1
    23   123   122    2
    24    93    95   ar
    25    79    78    1
    26   120   121    1
    27   104   105   ar
    28   104   106   ar
    29    98    97   ar
    30   121   122    1
    31   121   124    1
    32   122   125   am
    33    95    97   ar
    34   138   139    1
    35   125   126    1
    36   126   129    1
    37    78    81    1
    38    78    77    1
    39   176   174    1
    40    76    75    2
    41    81    82    1
    42   168   166   am
    43   139   141   ar
    44   139   140   ar
    45   129   130    1
    46   167   166    2
    47    77    75   am
    48    75    74    1
    49   166   165    1
    50   174   175    1
    51   174   173    1
    52    83    84    1
    53    83    82    1
    54   119   118    2
    55    84    85    2
    56   169   170    1
    57   118   117    1
    58   170   173    1
    59   170   171    1
    60   130   131    1
    61    74    73    1
    62    87    85    1
    63    85    86    1
    64   165   162    1
    65   117   116    1
    66   116   109   am
    67   131   132    1
    68   171   172    2
    69   162   163    1
    70   162   161    1
    71   163   164    2
    72   114   113   ar
    73   109   108    1
    74   109   110    2
    75   108   107    1
    76   108   111    1
    77   151   150    1
    78   161   154   am
    79   149   148    2
    80   150   147    1
    81   113   112    1
    82   113   115   ar
    83    57    56    2
    84   111   112    1
    85    65    64    2
    86   155   154    2
    87   147   148    1
    88   147   146    1
    89   154   153    1
    90    63    64    1
    91    63    62    1
    92    64    66   am
    93    56    62   am
    94    56    55    1
    95    72    70    1
    96   146   144   am
    97    54    55    1
    98   153   156    1
    99   153   152    1
   100    55    58    1
   101   145   144    2
   102   156   157    1
   103    66    67    1
   104   144   143    1
   105    70    67    1
   106    70    71    1
   107    67    68    1
   108   159   158    2
   109    12    11    1
   110    58    59    1
   111   157   158    1
   112    60    59   ar
   113   158   160   am
   114   143   142    1
   115    11     9   ar
   116    11    10   ar
   117    59    61   ar
   118    68    69    2
   119     9     7   ar
   120    10     8   ar
   121    21    20    1
   122     7     6   ar
   123    20    19    1
   124     8     6   ar
   125     6     5    1
   126   181   178    1
   127   181   182    1
   128   184   182   am
   129    19    18    1
   130     5     2    1
   131   178   177    1
   132   178   179    1
   133   182   183    2
   134    18    17    1
   135    53    51   ar
   136    53    52   ar
   137    51    49   ar
   138   192   190   ar
   139    41    43   ar
   140    41    39   ar
   141   191   190   ar
   142    43    42   ar
   143   190   189    1
   144    52    50   ar
   145     2     1    1
   146     2     3    1
   147   185   179   am
   148   185   186    1
   149   179   180    2
   150    33    32    1
   151    49    50   ar
   152    49    48    1
   153    39    38    1
   154    39    40   ar
   155    42    40   ar
   156   189   186    1
   157    17    14    1
   158    48    45    1
   159     3    13   am
   160     3     4    2
   161    13    14    1
   162    30    32   ar
   163    30    28   ar
   164    38    35    1
   165   186   187    1
   166    32    31   ar
   167    14    15    1
   168    36    37    2
   169    36    35    1
   170    28    27   ar
   171    35    34    1
   172    45    46    1
   173    45    44    1
   174   187   188    2
   175    46    47    2
   176    31    29   ar
   177    15    16    2
   178    27    29   ar
   179    27    26    1
   180    22    23    1
   181    23    26    1
   182    23    24    1
   183    24    25    2
