@<TRIPOS>MOLECULE
tmp/3vu2A02.pdb
 142 143 0 0 0
SMALL
GASTEIGER

@<TRIPOS>ATOM
      1  N         20.8830  -32.9290   55.8500 N.3    37  HIS37      -0.1226
      2  CA        20.9200  -33.0040   54.3850 C.3    37  HIS37       0.1752
      3  C         21.9640  -32.1140   53.6970 C.2    37  HIS37       0.2595
      4  O         22.2020  -32.2510   52.4930 O.2    37  HIS37      -0.2718
      5  CB        19.5160  -32.7620   53.8110 C.3    37  HIS37       0.0759
      6  CG        18.4530  -33.6000   54.4560 C.ar   37  HIS37       0.0818
      7  ND1       18.3110  -34.9480   54.2020 N.ar   37  HIS37      -0.2268
      8  CD2       17.4950  -33.2860   55.3610 C.ar   37  HIS37       0.1154
      9  CE1       17.3050  -35.4250   54.9140 C.ar   37  HIS37       0.1986
     10  NE2       16.7940  -34.4380   55.6260 N.ar   37  HIS37      -0.2212
     11  N         22.5900  -31.2150   54.4550 N.am   38  GLU38      -0.1979
     12  CA        23.5550  -30.2650   53.8850 C.3    38  GLU38       0.1602
     13  C         24.8740  -30.1620   54.6670 C.2    38  GLU38       0.2287
     14  O         25.7640  -29.3900   54.2920 O.2    38  GLU38      -0.2864
     15  CB        22.9160  -28.8770   53.7370 C.3    38  GLU38       0.0415
     16  CG        21.7420  -28.8160   52.7580 C.3    38  GLU38       0.1163
     17  CD        22.1680  -28.6990   51.3030 C.2    38  GLU38       0.3649
     18  OE1       23.3850  -28.6840   51.0240 O.co2  38  GLU38      -0.2457
     19  OE2       21.2780  -28.6170   50.4300 O.co2  38  GLU38      -0.2457
     20  N         20.6120  -22.1940   39.7430 N.3    65  TRP65      -0.1241
     21  CA        19.2470  -22.5700   40.0830 C.3    65  TRP65       0.1605
     22  C         18.2670  -21.7550   39.2420 C.2    65  TRP65       0.2264
     23  O         18.2450  -20.5220   39.3180 O.2    65  TRP65      -0.2867
     24  CB        19.0100  -22.3210   41.5740 C.3    65  TRP65       0.0550
     25  CG        17.6740  -22.7570   42.1020 C.ar   65  TRP65       0.0003
     26  CD1       17.1750  -24.0300   42.1270 C.ar   65  TRP65       0.0946
     27  CD2       16.6820  -21.9250   42.7170 C.ar   65  TRP65       0.0152
     28  NE1       15.9300  -24.0380   42.7060 N.ar   65  TRP65      -0.2442
     29  CE2       15.6030  -22.7610   43.0790 C.ar   65  TRP65       0.0810
     30  CE3       16.5990  -20.5530   42.9920 C.ar   65  TRP65       0.0012
     31  CZ2       14.4520  -22.2710   43.7020 C.ar   65  TRP65       0.0191
     32  CZ3       15.4530  -20.0650   43.6120 C.ar   65  TRP65       0.0001
     33  CH2       14.3950  -20.9240   43.9590 C.ar   65  TRP65       0.0015
     34  N         14.5770  -23.4040   38.1400 N.3    67  PRO67      -0.2116
     35  CA        13.6470  -24.5160   37.9360 C.3    67  PRO67       0.1372
     36  C         12.6450  -24.2560   36.8180 C.2    67  PRO67       0.2244
     37  O         12.1340  -25.2010   36.2130 O.2    67  PRO67      -0.2868
     38  CB        12.8970  -24.5920   39.2680 C.3    67  PRO67       0.0268
     39  CG        13.7370  -23.8790   40.2390 C.3    67  PRO67       0.0207
     40  CD        14.4090  -22.8000   39.4740 C.3    67  PRO67       0.0892
     41  N         19.7430  -29.8730   33.6430 N.3    90  LYS90      -0.1231
     42  CA        18.9130  -29.6290   34.8120 C.3    90  LYS90       0.1693
     43  C         18.8240  -30.8840   35.6800 C.2    90  LYS90       0.2592
     44  O         18.5700  -31.9800   35.1720 O.2    90  LYS90      -0.2718
     45  CB        17.5190  -29.2240   34.3300 C.3    90  LYS90       0.0285
     46  CG        16.5800  -28.6550   35.3740 C.3    90  LYS90       0.0035
     47  CD        15.1840  -28.5600   34.7760 C.3    90  LYS90       0.0206
     48  CE        14.2660  -27.6810   35.5940 C.3    90  LYS90       0.1093
     49  NZ        12.9670  -27.4710   34.8910 N.3    90  LYS90      -0.1314
     50  N         19.0440  -30.7160   36.9830 N.am   91  ASP91      -0.1960
     51  CA        18.8810  -31.8090   37.9440 C.3    91  ASP91       0.1840
     52  C         17.4600  -31.8110   38.5350 C.2    91  ASP91       0.2622
     53  O         16.6490  -30.9430   38.1980 O.2    91  ASP91      -0.2715
     54  CB        19.9950  -31.7910   39.0200 C.3    91  ASP91       0.1450
     55  CG        19.7790  -30.7350   40.1130 C.2    91  ASP91       0.3671
     56  OD1       18.7670  -30.0020   40.0910 O.co2  91  ASP91      -0.2456
     57  OD2       20.6410  -30.6450   41.0150 O.co2  91  ASP91      -0.2456
     58  N         17.1680  -32.7760   39.4060 N.am   92  LYS92      -0.1963
     59  CA        15.8170  -32.9560   39.9720 C.3    92  LYS92       0.1728
     60  C         15.3050  -31.7630   40.7900 C.2    92  LYS92       0.2616
     61  O         14.1100  -31.6720   41.0890 O.2    92  LYS92      -0.2715
     62  CB        15.7300  -34.2540   40.7960 C.3    92  LYS92       0.0311
     63  CG        16.7800  -34.4030   41.9040 C.3    92  LYS92       0.0038
     64  CD        16.6550  -35.7430   42.6390 C.3    92  LYS92       0.0206
     65  CE        15.6400  -35.6810   43.7800 C.3    92  LYS92       0.1093
     66  NZ        15.2960  -37.0460   44.3030 N.3    92  LYS92      -0.1314
     67  N         16.2160  -30.8570   41.1410 N.am   93  PHE93      -0.1960
     68  CA        15.8920  -29.6820   41.9440 C.3    93  PHE93       0.1771
     69  C         15.8120  -28.3990   41.1060 C.2    93  PHE93       0.2620
     70  O         15.6170  -27.3080   41.6450 O.2    93  PHE93      -0.2715
     71  CB        16.9150  -29.5150   43.0760 C.3    93  PHE93       0.0574
     72  CG        17.0050  -30.7010   44.0060 C.ar   93  PHE93      -0.0200
     73  CD1       15.8760  -31.1740   44.6720 C.ar   93  PHE93      -0.0042
     74  CD2       18.2260  -31.3300   44.2330 C.ar   93  PHE93      -0.0042
     75  CE1       15.9580  -32.2640   45.5350 C.ar   93  PHE93      -0.0003
     76  CE2       18.3170  -32.4210   45.0980 C.ar   93  PHE93      -0.0003
     77  CZ        17.1810  -32.8870   45.7490 C.ar   93  PHE93      -0.0000
     78  N         15.9600  -28.5360   39.7910 N.am   94  GLY94      -0.1940
     79  CA        15.9480  -27.3850   38.8930 C.3    94  GLY94       0.2014
     80  C         17.2370  -26.5860   38.9450 C.2    94  GLY94       0.2638
     81  O         17.2490  -25.3900   38.6490 O.2    94  GLY94      -0.2714
     82  N         18.3200  -27.2520   39.3370 N.am   95  ILE95      -0.1977
     83  CA        19.6470  -26.6540   39.3290 C.3    95  ILE95       0.1596
     84  C         20.3200  -27.0020   38.0030 C.2    95  ILE95       0.2287
     85  O         20.4480  -28.1780   37.6520 O.2    95  ILE95      -0.2864
     86  CB        20.5080  -27.1430   40.5230 C.3    95  ILE95       0.0276
     87  CG1       19.8240  -26.7910   41.8530 C.3    95  ILE95       0.0022
     88  CG2       21.9250  -26.5530   40.4490 C.3    95  ILE95       0.0022
     89  CD1       20.5090  -27.3560   43.0960 C.3    95  ILE95       0.0001
     90  N          7.6810  -21.3780   45.2480 N.3   287  HIS287     -0.1226
     91  CA         8.5550  -22.4710   45.6720 C.3   287  HIS287      0.1752
     92  C          9.7640  -22.6100   44.7390 C.2   287  HIS287      0.2595
     93  O         10.8430  -23.0220   45.1710 O.2   287  HIS287     -0.2718
     94  CB         7.7660  -23.7870   45.7510 C.3   287  HIS287      0.0759
     95  CG         8.4200  -24.8440   46.5860 C.ar  287  HIS287      0.0818
     96  ND1        8.9980  -25.9710   46.0410 N.ar  287  HIS287     -0.2268
     97  CD2        8.5800  -24.9510   47.9280 C.ar  287  HIS287      0.1154
     98  CE1        9.4890  -26.7240   47.0090 C.ar  287  HIS287      0.1986
     99  NE2        9.2510  -26.1270   48.1630 N.ar  287  HIS287     -0.2212
    100  N          9.5780  -22.2410   43.4710 N.am  288  GLU288     -0.1979
    101  CA        10.6440  -22.2820   42.4650 C.3   288  GLU288      0.1602
    102  C         11.2080  -20.8940   42.1400 C.2   288  GLU288      0.2287
    103  O         11.7760  -20.6740   41.0620 O.2   288  GLU288     -0.2864
    104  CB        10.1440  -22.9660   41.1850 C.3   288  GLU288      0.0415
    105  CG        10.0960  -24.4950   41.2630 C.3   288  GLU288      0.1163
    106  CD         8.9660  -25.0170   42.1320 C.2   288  GLU288      0.3649
    107  OE1        9.2460  -25.7810   43.0800 O.co2 288  GLU288     -0.2457
    108  OE2        7.7960  -24.6590   41.8740 O.co2 288  GLU288     -0.2457
    109  N         14.4550  -23.2910   50.4160 N.3   312  TRP312     -0.1227
    110  CA        15.7500  -23.9060   50.6760 C.3   312  TRP312      0.1737
    111  C         16.8850  -23.2090   49.9410 C.2   312  TRP312      0.2595
    112  O         17.9030  -22.8620   50.5450 O.2   312  TRP312     -0.2718
    113  CB        15.7040  -25.3730   50.2570 C.3   312  TRP312      0.0564
    114  CG        16.8200  -26.2030   50.8040 C.ar  312  TRP312      0.0003
    115  CD1       18.0850  -26.3190   50.3000 C.ar  312  TRP312      0.0946
    116  CD2       16.7670  -27.0480   51.9580 C.ar  312  TRP312      0.0152
    117  NE1       18.8250  -27.1840   51.0720 N.ar  312  TRP312     -0.2442
    118  CE2       18.0400  -27.6460   52.0960 C.ar  312  TRP312      0.0810
    119  CE3       15.7670  -27.3580   52.8910 C.ar  312  TRP312      0.0012
    120  CZ2       18.3390  -28.5390   53.1340 C.ar  312  TRP312      0.0191
    121  CZ3       16.0650  -28.2460   53.9220 C.ar  312  TRP312      0.0001
    122  CH2       17.3430  -28.8250   54.0340 C.ar  312  TRP312      0.0015
    123  N         16.7100  -23.0160   48.6360 N.am  313  GLU313     -0.1979
    124  CA        17.7260  -22.3640   47.8210 C.3   313  GLU313      0.1602
    125  C         17.8690  -20.8790   48.1560 C.2   313  GLU313      0.2287
    126  O         18.9150  -20.2880   47.8900 O.2   313  GLU313     -0.2864
    127  CB        17.4550  -22.5580   46.3230 C.3   313  GLU313      0.0415
    128  CG        17.7280  -23.9710   45.7860 C.3   313  GLU313      0.1163
    129  CD        19.1540  -24.4650   46.0310 C.2   313  GLU313      0.3649
    130  OE1       20.1050  -23.6530   45.9700 O.co2 313  GLU313     -0.2457
    131  OE2       19.3230  -25.6780   46.2790 O.co2 313  GLU313     -0.2457
    132  N         20.1200  -21.0310   51.2310 N.3   316  ARG316     -0.1245
    133  CA        21.4890  -21.2740   50.7780 C.3   316  ARG316      0.1563
    134  C         22.1090  -20.0030   50.2110 C.2   316  ARG316      0.2260
    135  O         23.2610  -19.6920   50.4950 O.2   316  ARG316     -0.2867
    136  CB        21.5420  -22.3800   49.7280 C.3   316  ARG316      0.0307
    137  CG        22.9520  -22.8760   49.4580 C.3   316  ARG316      0.0489
    138  CD        23.0650  -23.5220   48.0940 C.3   316  ARG316      0.2205
    139  NE        22.1120  -24.6150   47.9150 N.pl3 316  ARG316     -0.0865
    140  CZ        22.2760  -25.8520   48.3840 C.cat 316  ARG316      0.5346
    141  NH1       23.3630  -26.1800   49.0750 N.pl3 316  ARG316      0.1354
    142  NH2       21.3440  -26.7690   48.1600 N.pl3 316  ARG316      0.1354
@<TRIPOS>BOND
     1    41    42    1
     2    45    42    1
     3    45    46    1
     4    47    46    1
     5    47    48    1
     6    42    43    1
     7    49    48    1
     8    44    43    2
     9    43    50   am
    10    37    36    2
    11    36    35    1
    12    50    51    1
    13    85    84    2
    14    35    34    1
    15    35    38    1
    16    51    52    1
    17    51    54    1
    18    84    83    1
    19    34    40    1
    20    53    52    2
    21    52    58   am
    22    81    80    2
    23    79    80    1
    24    79    78    1
    25    80    82   am
    26    54    55    1
    27    22    23    2
    28    22    21    1
    29    38    39    1
    30    83    82    1
    31    83    86    1
    32    58    59    1
    33    40    39    1
    34    20    21    1
    35    78    69   am
    36    59    60    1
    37    59    62    1
    38    21    24    1
    39    56    55   ar
    40    55    57   ar
    41    88    86    1
    42    86    87    1
    43    60    61    2
    44    60    67   am
    45    62    63    1
    46   103   102    2
    47    69    70    2
    48    69    68    1
    49    67    68    1
    50   104   105    1
    51   104   101    1
    52   105   106    1
    53    24    25    1
    54    87    89    1
    55   108   106   ar
    56    63    64    1
    57    68    71    1
    58    25    26   ar
    59    25    27   ar
    60    26    28   ar
    61   106   107   ar
    62   102   101    1
    63   101   100    1
    64    64    65    1
    65    28    29   ar
    66    27    30   ar
    67    27    29   ar
    68    30    32   ar
    69    71    72    1
    70    29    31   ar
    71   100    92   am
    72    32    33   ar
    73    31    33   ar
    74    65    66    1
    75    72    74   ar
    76    72    73   ar
    77    74    76   ar
    78    73    75   ar
    79    92    93    2
    80    92    91    1
    81    76    77   ar
    82    90    91    1
    83    75    77   ar
    84    91    94    1
    85    94    95    1
    86   128   129    1
    87   128   127    1
    88   130   129   ar
    89   129   131   ar
    90    96    95   ar
    91    96    98   ar
    92   127   124    1
    93    95    97   ar
    94    98    99   ar
    95   124   125    1
    96   124   123    1
    97   126   125    2
    98   139   138    1
    99   139   140    2
   100    97    99   ar
   101   138   137    1
   102   142   140    1
   103   140   141    1
   104   123   111   am
   105   137   136    1
   106   136   133    1
   107   111   112    2
   108   111   110    1
   109   134   135    2
   110   134   133    1
   111   113   110    1
   112   113   114    1
   113   115   114   ar
   114   115   117   ar
   115   109   110    1
   116    19    17   ar
   117   133   132    1
   118   114   116   ar
   119    18    17   ar
   120   117   118   ar
   121    17    16    1
   122   116   118   ar
   123   116   119   ar
   124   118   120   ar
   125     4     3    2
   126    16    15    1
   127   119   121   ar
   128   120   122   ar
   129     3     2    1
   130     3    11   am
   131    15    12    1
   132     5     2    1
   133     5     6    1
   134    12    11    1
   135    12    13    1
   136   121   122   ar
   137     7     6   ar
   138     7     9   ar
   139    14    13    2
   140     2     1    1
   141     6     8   ar
   142     9    10   ar
   143     8    10   ar
