@<TRIPOS>MOLECULE
tmp/3vu8A00.pdb
 110 109 0 0 0
SMALL
GASTEIGER

@<TRIPOS>ATOM
      1  N         40.5280   27.6500   38.9520 N.3    10  PRO10      -0.2102
      2  CA        41.0140   28.8490   38.2660 C.3    10  PRO10       0.1504
      3  C         42.5290   28.9440   38.4720 C.2    10  PRO10       0.2575
      4  O         43.1050   28.1390   39.2050 O.2    10  PRO10      -0.2718
      5  CB        40.2690   29.9860   38.9660 C.3    10  PRO10       0.0282
      6  CG        39.1430   29.3220   39.7190 C.3    10  PRO10       0.0208
      7  CD        39.5990   27.9510   40.0500 C.3    10  PRO10       0.0893
      8  N         43.1890   29.8790   37.7970 N.am   11  ILE11      -0.1980
      9  CA        44.6150   30.0540   38.0450 C.3    11  ILE11       0.1595
     10  C         44.5950   31.2560   38.9640 C.2    11  ILE11       0.2287
     11  O         43.9640   32.2660   38.6660 O.2    11  ILE11      -0.2864
     12  CB        45.4640   30.3440   36.7630 C.3    11  ILE11       0.0276
     13  CG1       44.7910   31.3760   35.8610 C.3    11  ILE11       0.0022
     14  CG2       45.7240   29.0380   36.0120 C.3    11  ILE11       0.0022
     15  CD1       45.6960   31.8400   34.7090 C.3    11  ILE11       0.0001
     16  N         48.2600   32.9870   38.0920 N.3    50  ASP50      -0.1239
     17  CA        48.1240   34.1540   37.2150 C.3    50  ASP50       0.1674
     18  C         49.3120   35.0700   37.5250 C.2    50  ASP50       0.2266
     19  O         49.2570   35.8720   38.4470 O.2    50  ASP50      -0.2867
     20  CB        46.8140   34.8660   37.5390 C.3    50  ASP50       0.1410
     21  CG        46.2610   35.6340   36.3660 C.2    50  ASP50       0.3668
     22  OD1       47.0540   36.2060   35.5860 O.co2  50  ASP50      -0.2456
     23  OD2       45.0220   35.6720   36.2280 O.co2  50  ASP50      -0.2456
     24  N         45.0240   40.4830   30.8170 N.3   226  VAL226     -0.1231
     25  CA        44.0880   39.5780   31.4780 C.3   226  VAL226      0.1692
     26  C         43.5030   38.4620   30.6130 C.2   226  VAL226      0.2592
     27  O         44.1890   37.4870   30.2880 O.2   226  VAL226     -0.2718
     28  CB        42.9120   40.3640   32.1420 C.3   226  VAL226      0.0266
     29  CG1       42.1210   39.4500   33.0650 C.3   226  VAL226      0.0020
     30  CG2       43.4490   41.5340   32.9410 C.3   226  VAL226      0.0020
     31  N         42.2290   38.6320   30.2580 N.am  227  TRP227     -0.1976
     32  CA        41.4090   37.6930   29.4750 C.3   227  TRP227      0.1640
     33  C         42.0490   36.6740   28.5150 C.2   227  TRP227      0.2290
     34  O         41.9600   35.4650   28.7420 O.2   227  TRP227     -0.2864
     35  CB        40.3280   38.4900   28.7280 C.3   227  TRP227      0.0576
     36  CG        39.7280   39.6020   29.5380 C.ar  227  TRP227      0.0006
     37  CD1       39.5950   40.9000   29.1580 C.ar  227  TRP227      0.0946
     38  CD2       39.1920   39.5190   30.8700 C.ar  227  TRP227      0.0152
     39  NE1       39.0120   41.6350   30.1580 N.ar  227  TRP227     -0.2442
     40  CE2       38.7540   40.8170   31.2230 C.ar  227  TRP227      0.0810
     41  CE3       39.0400   38.4780   31.7990 C.ar  227  TRP227      0.0012
     42  CZ2       38.1710   41.1070   32.4670 C.ar  227  TRP227      0.0191
     43  CZ3       38.4620   38.7630   33.0350 C.ar  227  TRP227      0.0001
     44  CH2       38.0340   40.0710   33.3560 C.ar  227  TRP227      0.0015
     45  N         45.2520   34.7440   30.9070 N.3   230  ALA230     -0.1231
     46  CA        44.8860   33.7990   31.9500 C.3   230  ALA230      0.1694
     47  C         43.8530   32.7700   31.5160 C.2   230  ALA230      0.2591
     48  O         43.9730   31.5980   31.8450 O.2   230  ALA230     -0.2718
     49  CB        44.3950   34.5580   33.1980 C.3   230  ALA230      0.0304
     50  N         42.8400   33.1950   30.7760 N.am  231  LEU231     -0.1980
     51  CA        41.7970   32.2670   30.3440 C.3   231  LEU231      0.1596
     52  C         42.3350   31.1170   29.4960 C.2   231  LEU231      0.2287
     53  O         41.8580   29.9900   29.6060 O.2   231  LEU231     -0.2864
     54  CB        40.7060   33.0270   29.5780 C.3   231  LEU231      0.0297
     55  CG        39.2760   33.1880   30.1330 C.3   231  LEU231      0.0022
     56  CD1       39.1560   32.6030   31.5290 C.3   231  LEU231      0.0001
     57  CD2       38.8840   34.6600   30.1320 C.3   231  LEU231      0.0001
     58  N         44.8970   29.3290   29.7650 N.3   233  ASN233     -0.1225
     59  CA        45.6950   28.3280   30.4640 C.3   233  ASN233      0.1785
     60  C         45.0460   26.9400   30.3940 C.2   233  ASN233      0.2597
     61  O         45.7340   25.9160   30.4820 O.2   233  ASN233     -0.2718
     62  CB        45.8760   28.7360   31.9330 C.3   233  ASN233      0.1169
     63  CG        44.6990   28.3240   32.8060 C.2   233  ASN233      0.2627
     64  OD1       43.7550   29.0910   32.9950 O.2   233  ASN233     -0.2716
     65  ND2       44.7530   27.1070   33.3450 N.am  233  ASN233     -0.0877
     66  N         43.7210   26.9150   30.2380 N.am  234  TYR234     -0.1976
     67  CA        42.9700   25.6650   30.1800 C.3   234  TYR234      0.1639
     68  C         43.2540   24.8510   28.9310 C.2   234  TYR234      0.2290
     69  O         43.0560   23.6370   28.9270 O.2   234  TYR234     -0.2864
     70  CB        41.4670   25.9360   30.2720 C.3   234  TYR234      0.0560
     71  CG        41.0480   26.6960   31.5050 C.ar  234  TYR234     -0.0198
     72  CD1       40.1750   27.7810   31.4170 C.ar  234  TYR234     -0.0009
     73  CD2       41.4950   26.3100   32.7630 C.ar  234  TYR234     -0.0009
     74  CE1       39.7540   28.4540   32.5580 C.ar  234  TYR234      0.0417
     75  CE2       41.0850   26.9690   33.9030 C.ar  234  TYR234      0.0417
     76  CZ        40.2130   28.0330   33.8030 C.ar  234  TYR234      0.1957
     77  OH        39.7550   28.6330   34.9520 O.3   234  TYR234     -0.2866
     78  N         32.5300   34.5280   42.1030 N.3   260  ASP260     -0.1225
     79  CA        33.2420   35.7980   41.9620 C.3   260  ASP260      0.1805
     80  C         33.7630   36.0640   40.5420 C.2   260  ASP260      0.2597
     81  O         33.9020   37.2190   40.1240 O.2   260  ASP260     -0.2718
     82  CB        34.4180   35.8440   42.9450 C.3   260  ASP260      0.1424
     83  CG        35.0590   34.4680   43.1690 C.2   260  ASP260      0.3668
     84  OD1       34.3800   33.5760   43.7310 O.co2 260  ASP260     -0.2456
     85  OD2       36.2410   34.2790   42.7920 O.co2 260  ASP260     -0.2456
     86  N         34.0650   34.9960   39.8100 N.am  261  ILE261     -0.1980
     87  CA        34.5860   35.1160   38.4500 C.3   261  ILE261      0.1595
     88  C         33.6250   34.4430   37.4760 C.2   261  ILE261      0.2287
     89  O         34.0350   33.7400   36.5630 O.2   261  ILE261     -0.2864
     90  CB        35.9970   34.4660   38.3320 C.3   261  ILE261      0.0276
     91  CG1       35.9880   33.0590   38.9370 C.3   261  ILE261      0.0022
     92  CG2       37.0070   35.3040   39.0760 C.3   261  ILE261      0.0022
     93  CD1       37.2590   32.2640   38.7160 C.3   261  ILE261      0.0001
     94  N         33.5460   36.2900   33.4540 N.3   264  PRO264     -0.2102
     95  CA        34.6950   35.9110   32.6370 C.3   264  PRO264      0.1504
     96  C         34.6260   34.4680   32.1060 C.2   264  PRO264      0.2575
     97  O         35.1070   34.1730   31.0040 O.2   264  PRO264     -0.2718
     98  CB        35.8710   36.1110   33.5880 C.3   264  PRO264      0.0282
     99  CG        35.3980   37.1910   34.5060 C.3   264  PRO264      0.0208
    100  CD        33.9730   36.8680   34.7400 C.3   264  PRO264      0.0893
    101  N         34.0240   33.5760   32.8910 N.am  265  HIS265     -0.1976
    102  CA        33.9230   32.1640   32.5220 C.3   265  HIS265      0.1656
    103  C         32.6560   31.8100   31.7800 C.2   265  HIS265      0.2291
    104  O         32.6530   30.9340   30.9150 O.2   265  HIS265     -0.2864
    105  CB        34.0020   31.2790   33.7730 C.3   265  HIS265      0.0771
    106  CG        35.3910   31.0870   34.2950 C.ar  265  HIS265      0.0820
    107  ND1       35.9440   31.9070   35.2550 N.ar  265  HIS265     -0.2267
    108  CD2       36.3460   30.1850   33.9750 C.ar  265  HIS265      0.1154
    109  CE1       37.1810   31.5190   35.5020 C.ar  265  HIS265      0.1986
    110  NE2       37.4490   30.4770   34.7390 N.ar  265  HIS265     -0.2212
@<TRIPOS>BOND
     1    33    34    2
     2    33    32    1
     3    35    32    1
     4    35    36    1
     5    69    68    2
     6    68    67    1
     7    37    36   ar
     8    37    39   ar
     9    32    31    1
    10    52    53    2
    11    52    51    1
    12    36    38   ar
    13    54    55    1
    14    54    51    1
    15    58    59    1
    16    57    55    1
    17    55    56    1
    18    39    40   ar
    19    67    66    1
    20    67    70    1
    21    66    60   am
    22    31    26   am
    23    70    71    1
    24    27    26    2
    25    51    50    1
    26    60    59    1
    27    60    61    2
    28    59    62    1
    29    26    25    1
    30    50    47   am
    31    24    25    1
    32    38    40   ar
    33    38    41   ar
    34    45    46    1
    35   104   103    2
    36    97    96    2
    37    40    42   ar
    38    72    71   ar
    39    72    74   ar
    40    25    28    1
    41    71    73   ar
    42    47    48    2
    43    47    46    1
    44   103   102    1
    45    41    43   ar
    46    62    63    1
    47    46    49    1
    48    96    95    1
    49    96   101   am
    50    28    30    1
    51    28    29    1
    52    42    44   ar
    53   102   101    1
    54   102   105    1
    55    74    76   ar
    56    95    94    1
    57    95    98    1
    58    73    75   ar
    59    63    64    2
    60    63    65   am
    61    43    44   ar
    62    94   100    1
    63    98    99    1
    64   105   106    1
    65    76    75   ar
    66    76    77    1
    67   108   106   ar
    68   108   110   ar
    69   106   107   ar
    70    99   100    1
    71    15    13    1
    72   110   109   ar
    73   107   109   ar
    74    22    21   ar
    75    13    12    1
    76    14    12    1
    77    23    21   ar
    78    21    20    1
    79    89    88    2
    80    12     9    1
    81    17    18    1
    82    17    20    1
    83    17    16    1
    84    88    87    1
    85    18    19    2
    86     8     9    1
    87     8     3   am
    88     9    10    1
    89     2     3    1
    90     2     1    1
    91     2     5    1
    92    90    87    1
    93    90    91    1
    94    90    92    1
    95    87    86    1
    96     3     4    2
    97    11    10    2
    98    93    91    1
    99     1     7    1
   100     5     6    1
   101     6     7    1
   102    86    80   am
   103    81    80    2
   104    80    79    1
   105    79    78    1
   106    79    82    1
   107    85    83   ar
   108    82    83    1
   109    83    84   ar
