@<TRIPOS>MOLECULE
tmp/3vucB01.pdb
 204 193 0 0 0
SMALL
GASTEIGER

@<TRIPOS>ATOM
      1  N        158.4950  220.9190   73.5500 N.3    18  THR18      -0.1203
      2  CA       158.0110  222.2840   73.3160 C.3    18  THR18       0.1994
      3  C        158.7120  223.4130   74.1290 C.2    18  THR18       0.2617
      4  O        158.5420  224.5820   73.8280 O.2    18  THR18      -0.2717
      5  CB       156.4870  222.3450   73.4870 C.3    18  THR18       0.1784
      6  OG1      156.1460  222.0670   74.8510 O.3    18  THR18      -0.2211
      7  CG2      155.8370  221.3120   72.5900 C.3    18  THR18       0.0376
      8  N        159.4860  223.0620   75.1480 N.am   19  GLN19      -0.1979
      9  CA       160.1590  224.0520   75.9880 C.3    19  GLN19       0.1601
     10  C        161.4890  223.4580   76.3900 C.2    19  GLN19       0.2287
     11  O        161.5530  222.2610   76.7630 O.2    19  GLN19      -0.2864
     12  CB       159.3620  224.3100   77.2730 C.3    19  GLN19       0.0394
     13  CG       157.9830  224.9110   77.0810 C.3    19  GLN19       0.0908
     14  CD       157.1430  224.9030   78.3630 C.2    19  GLN19       0.2608
     15  OE1      157.6590  225.0960   79.4650 O.2    19  GLN19      -0.2717
     16  NE2      155.8250  224.6880   78.2100 N.am   19  GLN19      -0.0878
     17  N        164.2830  230.3080   79.4150 N.3    36  VAL36      -0.1245
     18  CA       164.4010  230.0090   78.0110 C.3    36  VAL36       0.1561
     19  C        165.3460  231.0190   77.4170 C.2    36  VAL36       0.2260
     20  O        165.1990  232.2440   77.6400 O.2    36  VAL36      -0.2867
     21  CB       163.0880  230.1500   77.2820 C.3    36  VAL36       0.0252
     22  CG1      163.3380  230.1040   75.7850 C.3    36  VAL36       0.0019
     23  CG2      162.1620  229.0410   77.7410 C.3    36  VAL36       0.0019
     24  N        166.2010  232.8690   74.4680 N.3    38  ASP38      -0.1239
     25  CA       165.2950  233.2760   73.3840 C.3    38  ASP38       0.1674
     26  C        165.9990  234.1630   72.2920 C.2    38  ASP38       0.2266
     27  O        166.3070  235.3500   72.5230 O.2    38  ASP38      -0.2867
     28  CB       164.0630  233.9720   74.0360 C.3    38  ASP38       0.1410
     29  CG       163.0200  234.4660   73.0220 C.2    38  ASP38       0.3668
     30  OD1      162.8520  233.8210   71.9540 O.co2  38  ASP38      -0.2456
     31  OD2      162.3430  235.4920   73.3050 O.co2  38  ASP38      -0.2456
     32  N        164.5630  235.1230   69.7320 N.3    40  GLY40      -0.1210
     33  CA       163.5430  236.0190   69.2340 C.3    40  GLY40       0.1956
     34  C        163.4730  237.3490   69.9600 C.2    40  GLY40       0.2612
     35  O        162.8210  238.2470   69.4780 O.2    40  GLY40      -0.2717
     36  N        164.1230  237.4960   71.1160 N.am   41  SER41      -0.1952
     37  CA       164.1490  238.8070   71.8200 C.3    41  SER41       0.1924
     38  C        165.4800  239.0920   72.5010 C.2    41  SER41       0.2314
     39  O        166.3810  238.2650   72.4370 O.2    41  SER41      -0.2863
     40  CB       163.0210  238.8720   72.8600 C.3    41  SER41       0.2116
     41  OG       163.2220  237.9200   73.8750 O.3    41  SER41      -0.2180
     42  N        157.3720  244.2670   77.4730 N.3    81  LEU81      -0.1231
     43  CA       157.7670  243.4270   76.3500 C.3    81  LEU81       0.1693
     44  C        156.5390  242.7470   75.7890 C.2    81  LEU81       0.2592
     45  O        155.9670  241.8640   76.4650 O.2    81  LEU81      -0.2718
     46  CB       158.7400  242.3340   76.8060 C.3    81  LEU81       0.0284
     47  CG       159.9840  242.7290   77.5790 C.3    81  LEU81       0.0019
     48  CD1      160.4680  241.5350   78.3590 C.3    81  LEU81       0.0001
     49  CD2      161.0700  243.2370   76.6730 C.3    81  LEU81       0.0001
     50  N        156.1310  243.1340   74.5750 N.am   82  ARG82      -0.1966
     51  CA       155.0390  242.4280   73.9120 C.3    82  ARG82       0.1729
     52  C        155.5130  241.4210   72.8830 C.2    82  ARG82       0.2616
     53  O        155.8200  241.7740   71.7360 O.2    82  ARG82      -0.2715
     54  CB       153.9620  243.3550   73.3360 C.3    82  ARG82       0.0348
     55  CG       154.4140  244.6510   72.7020 C.3    82  ARG82       0.0492
     56  CD       153.1730  245.5510   72.3370 C.3    82  ARG82       0.2205
     57  NE       152.6300  246.3570   73.4540 N.pl3  82  ARG82      -0.0865
     58  CZ       153.2140  247.4490   73.9760 C.cat  82  ARG82       0.5346
     59  NH1      154.3900  247.8760   73.5130 N.pl3  82  ARG82       0.1354
     60  NH2      152.6390  248.1120   74.9860 N.pl3  82  ARG82       0.1354
     61  N        155.5770  240.1630   73.3070 N.am   83  TYR83      -0.1960
     62  CA       155.9350  239.0790   72.4110 C.3    83  TYR83       0.1771
     63  C        154.7000  238.7690   71.5890 C.2    83  TYR83       0.2620
     64  O        153.5880  239.0250   72.0400 O.2    83  TYR83      -0.2715
     65  CB       156.3240  237.8210   73.1790 C.3    83  TYR83       0.0574
     66  CG       157.4470  237.9500   74.1710 C.ar   83  TYR83      -0.0198
     67  CD1      157.2690  237.5820   75.5120 C.ar   83  TYR83      -0.0009
     68  CD2      158.7060  238.3850   73.7750 C.ar   83  TYR83      -0.0009
     69  CE1      158.3230  237.6750   76.4340 C.ar   83  TYR83       0.0417
     70  CE2      159.7560  238.5000   74.6970 C.ar   83  TYR83       0.0417
     71  CZ       159.5570  238.1440   76.0140 C.ar   83  TYR83       0.1957
     72  OH       160.6020  238.2460   76.8890 O.3    83  TYR83      -0.2866
     73  N        154.9090  238.1940   70.4090 N.am   84  SER84      -0.1936
     74  CA       153.8420  237.7250   69.5330 C.3    84  SER84       0.2055
     75  C        152.7670  237.0310   70.3250 C.2    84  SER84       0.2643
     76  O        151.5770  237.2110   70.0330 O.2    84  SER84      -0.2714
     77  CB       154.3800  236.7380   68.4910 C.3    84  SER84       0.2130
     78  OG       154.7750  235.5160   69.1220 O.3    84  SER84      -0.2179
     79  N        153.1720  236.2360   71.3190 N.am   85  THR85      -0.1950
     80  CA       152.1950  235.4300   72.0420 C.3    85  THR85       0.1897
     81  C        151.5620  236.1060   73.2620 C.2    85  THR85       0.2313
     82  O        150.4080  235.8450   73.5740 O.2    85  THR85      -0.2863
     83  CB       152.7450  234.0590   72.4720 C.3    85  THR85       0.1794
     84  OG1      153.8550  234.2490   73.3460 O.3    85  THR85      -0.2208
     85  CG2      153.1110  233.1750   71.2740 C.3    85  THR85       0.0378
     86  N        150.3340  233.0280   77.6630 N.3   118  PRO118     -0.2102
     87  CA       150.7010  231.6210   77.9190 C.3   118  PRO118      0.1504
     88  C        151.5330  231.2520   79.1480 C.2   118  PRO118      0.2575
     89  O        151.8850  230.0870   79.2960 O.2   118  PRO118     -0.2718
     90  CB       151.5680  231.3030   76.7020 C.3   118  PRO118      0.0282
     91  CG       152.3020  232.6140   76.4440 C.3   118  PRO118      0.0208
     92  CD       151.4070  233.7400   76.9480 C.3   118  PRO118      0.0893
     93  N        151.8740  232.1930   80.0070 N.am  119  PHE119     -0.1977
     94  CA       152.9020  231.9170   81.0180 C.3   119  PHE119      0.1639
     95  C        152.5920  230.8800   82.0830 C.2   119  PHE119      0.2290
     96  O        153.4880  230.4220   82.7960 O.2   119  PHE119     -0.2864
     97  CB       153.4570  233.2240   81.5930 C.3   119  PHE119      0.0560
     98  CG       154.0810  234.0750   80.5330 C.ar  119  PHE119     -0.0200
     99  CD1      155.4410  233.9360   80.2270 C.ar  119  PHE119     -0.0042
    100  CD2      153.2830  234.9300   79.7500 C.ar  119  PHE119     -0.0042
    101  CE1      156.0030  234.6710   79.1850 C.ar  119  PHE119     -0.0003
    102  CE2      153.8260  235.6710   78.7340 C.ar  119  PHE119     -0.0003
    103  CZ       155.1920  235.5350   78.4350 C.ar  119  PHE119     -0.0000
    104  N        151.5890  228.0490   81.2120 N.3   121  LEU121     -0.1231
    105  CA       152.0050  226.8240   80.5220 C.3   121  LEU121      0.1693
    106  C        153.4870  226.5940   80.7080 C.2   121  LEU121      0.2591
    107  O        153.9570  225.4980   80.5500 O.2   121  LEU121     -0.2718
    108  CB       151.7240  226.9250   79.0190 C.3   121  LEU121      0.0284
    109  CG       150.2830  227.1980   78.5860 C.3   121  LEU121      0.0019
    110  CD1      150.1480  226.9040   77.1010 C.3   121  LEU121      0.0001
    111  CD2      149.2860  226.3980   79.3850 C.3   121  LEU121      0.0001
    112  N        154.1960  227.6590   81.0420 N.am  122  ALA122     -0.1980
    113  CA       155.6300  227.6820   81.1010 C.3   122  ALA122      0.1597
    114  C        156.2030  226.9710   82.3360 C.2   122  ALA122      0.2287
    115  O        155.8840  227.3060   83.4680 O.2   122  ALA122     -0.2864
    116  CB       156.0970  229.1050   81.0370 C.3   122  ALA122      0.0319
    117  N        159.2300  227.0230   82.9230 N.3   124  PHE124     -0.1241
    118  CA       160.3800  227.8720   83.2010 C.3   124  PHE124      0.1605
    119  C        159.8510  229.1440   83.8350 C.2   124  PHE124      0.2264
    120  O        158.6420  229.4140   83.7780 O.2   124  PHE124     -0.2867
    121  CB       161.1430  228.1940   81.8950 C.3   124  PHE124      0.0534
    122  CG       160.2680  228.7830   80.8060 C.ar  124  PHE124     -0.0203
    123  CD1      159.5850  227.9430   79.9100 C.ar  124  PHE124     -0.0042
    124  CD2      160.1100  230.1680   80.6920 C.ar  124  PHE124     -0.0042
    125  CE1      158.7780  228.4640   78.8930 C.ar  124  PHE124     -0.0003
    126  CE2      159.2900  230.7150   79.7000 C.ar  124  PHE124     -0.0003
    127  CZ       158.6300  229.8570   78.7800 C.ar  124  PHE124     -0.0000
    128  N        163.0550  234.5510   80.9740 N.3   127  VAL127     -0.1245
    129  CA       163.6410  234.5660   79.6710 C.3   127  VAL127      0.1561
    130  C        164.9340  235.3340   79.6860 C.2   127  VAL127      0.2260
    131  O        165.0400  236.3710   80.3420 O.2   127  VAL127     -0.2867
    132  CB       162.7090  235.2330   78.6680 C.3   127  VAL127      0.0252
    133  CG1      163.4460  235.4760   77.3010 C.3   127  VAL127      0.0019
    134  CG2      161.4310  234.4180   78.5310 C.3   127  VAL127      0.0019
    135  N        166.9910  245.3810   69.3450 N.3   135  GLN135     -0.1245
    136  CA       165.6260  244.8900   69.5910 C.3   135  GLN135      0.1566
    137  C        165.3460  244.7420   71.0650 C.2   135  GLN135      0.2260
    138  O        164.3020  244.2350   71.4620 O.2   135  GLN135     -0.2867
    139  CB       165.3410  243.5750   68.8410 C.3   135  GLN135      0.0367
    140  CG       164.8070  243.7270   67.3920 C.3   135  GLN135      0.0905
    141  CD       164.2250  242.4190   66.8470 C.2   135  GLN135      0.2608
    142  OE1      164.7560  241.3250   67.0960 O.2   135  GLN135     -0.2717
    143  NE2      163.1170  242.5220   66.1250 N.am  135  GLN135     -0.0878
    144  N        164.2660  246.2310   74.5530 N.3   137  ILE137     -0.1245
    145  CA       163.3750  247.2470   75.0430 C.3   137  ILE137      0.1561
    146  C        164.1130  247.9940   76.1550 C.2   137  ILE137      0.2260
    147  O        164.8100  247.3920   76.9760 O.2   137  ILE137     -0.2867
    148  CB       162.0140  246.6300   75.4970 C.3   137  ILE137      0.0252
    149  CG1      161.2730  245.9750   74.3100 C.3   137  ILE137      0.0019
    150  CG2      161.1200  247.6360   76.1780 C.3   137  ILE137      0.0019
    151  CD1      161.2020  246.7900   73.0660 C.3   137  ILE137      0.0001
    152  N        162.4910  233.5610   60.6180 N.3   222  LEU222     -0.1245
    153  CA       163.0720  233.9680   61.8680 C.3   222  LEU222      0.1561
    154  C        163.5870  232.6970   62.6000 C.2   222  LEU222      0.2260
    155  O        162.8200  231.7140   62.7640 O.2   222  LEU222     -0.2867
    156  CB       162.0210  234.7060   62.6890 C.3   222  LEU222      0.0270
    157  CG       162.4470  235.0410   64.1320 C.3   222  LEU222      0.0019
    158  CD1      163.4840  236.1910   64.1400 C.3   222  LEU222      0.0001
    159  CD2      161.2130  235.3300   65.1170 C.3   222  LEU222      0.0001
    160  N        164.1990  231.0560   65.7220 N.3   224  ASP224     -0.1239
    161  CA       163.7520  231.4460   67.0550 C.3   224  ASP224      0.1674
    162  C        163.8640  230.2980   68.0190 C.2   224  ASP224      0.2266
    163  O        163.0510  229.3790   68.0240 O.2   224  ASP224     -0.2867
    164  CB       162.3250  231.9430   66.9840 C.3   224  ASP224      0.1410
    165  CG       161.8070  232.4210   68.3000 C.2   224  ASP224      0.3668
    166  OD1      162.5400  232.5260   69.3010 O.co2 224  ASP224     -0.2456
    167  OD2      160.6090  232.6790   68.3420 O.co2 224  ASP224     -0.2456
    168  N        163.4410  230.3340   70.9680 N.3   226  GLY226     -0.1210
    169  CA       162.3710  230.4370   71.9520 C.3   226  GLY226      0.1956
    170  C        160.9710  230.1870   71.4110 C.2   226  GLY226      0.2612
    171  O        159.9850  230.5490   72.0680 O.2   226  GLY226     -0.2717
    172  N        160.8760  229.5700   70.2350 N.am  227  ALA227     -0.1965
    173  CA       159.6210  229.1110   69.6960 C.3   227  ALA227      0.1728
    174  C        159.5730  227.5840   69.7610 C.2   227  ALA227      0.2616
    175  O        160.5930  226.9130   69.5080 O.2   227  ALA227     -0.2715
    176  CB       159.4960  229.5640   68.2760 C.3   227  ALA227      0.0334
    177  N        158.3990  227.0170   70.0570 N.am  228  SER228     -0.1950
    178  CA       158.2660  225.5710   70.1010 C.3   228  SER228      0.1924
    179  C        158.3230  224.9160   68.7320 C.2   228  SER228      0.2314
    180  O        158.8740  223.8050   68.5940 O.2   228  SER228     -0.2863
    181  CB       156.9790  225.1560   70.7800 C.3   228  SER228      0.2116
    182  OG       156.8910  225.6950   72.0880 O.3   228  SER228     -0.2180
    183  N        152.9920  236.6520   63.1750 N.3   303  ILE303     -0.1231
    184  CA       153.9630  237.4820   63.8590 C.3   303  ILE303      0.1678
    185  C        153.9110  238.8970   63.2710 C.2   303  ILE303      0.2434
    186  O        154.0120  239.0660   62.0410 O.2   303  ILE303     -0.2733
    187  CB       155.3590  236.8770   63.6970 C.3   303  ILE303      0.0265
    188  CG1      155.3500  235.4350   64.2630 C.3   303  ILE303      0.0019
    189  CG2      156.4380  237.7970   64.3110 C.3   303  ILE303      0.0020
    190  CD1      156.6540  234.7970   64.4090 C.3   303  ILE303      0.0001
    191  N        153.7090  239.9190   64.1380 N.am  304  PRO304     -0.2729
    192  CA       153.4000  241.2370   63.6050 C.3   304  PRO304      0.1401
    193  C        154.6200  241.9800   63.0500 C.2   304  PRO304      0.2269
    194  O        155.7520  241.5640   63.2920 O.2   304  PRO304     -0.2865
    195  CB       152.7780  241.9670   64.8030 C.3   304  PRO304      0.0296
    196  CG       153.2910  241.2640   66.0070 C.3   304  PRO304      0.0237
    197  CD       153.5530  239.8480   65.6070 C.3   304  PRO304      0.0939
    198  N        158.9300  242.7830   62.2230 N.3   307  THR307     -0.1218
    199  CA       159.6340  241.4980   62.0370 C.3   307  THR307      0.1862
    200  C        158.8390  240.5010   61.1860 C.2   307  THR307      0.2287
    201  O        159.4170  239.7250   60.4260 O.2   307  THR307     -0.2866
    202  CB       160.0590  240.8310   63.3880 C.3   307  THR307      0.1770
    203  OG1      160.7670  241.7700   64.2030 O.3   307  THR307     -0.2211
    204  CG2      160.9940  239.6000   63.1490 C.3   307  THR307      0.0375
@<TRIPOS>BOND
     1   201   200    2
     2   152   153    1
     3   200   199    1
     4   153   154    1
     5   153   156    1
     6   199   198    1
     7   199   202    1
     8   186   185    2
     9   154   155    2
    10   156   157    1
    11   193   194    2
    12   193   192    1
    13   204   202    1
    14   183   184    1
    15   185   184    1
    16   185   191   am
    17   202   203    1
    18   192   191    1
    19   192   195    1
    20   187   184    1
    21   187   188    1
    22   187   189    1
    23   157   158    1
    24   157   159    1
    25   191   197    1
    26   188   190    1
    27   195   196    1
    28   197   196    1
    29   160   161    1
    30   143   141   am
    31   141   142    2
    32   141   140    1
    33   164   161    1
    34   164   165    1
    35   161   162    1
    36   140   139    1
    37   162   163    2
    38   176   173    1
    39   165   167   ar
    40   165   166   ar
    41    77    78    1
    42    77    74    1
    43   180   179    2
    44   179   178    1
    45   139   136    1
    46    33    32    1
    47    33    34    1
    48   135   136    1
    49    35    34    2
    50   175   174    2
    51    74    75    1
    52    74    73    1
    53   136   137    1
    54   173   174    1
    55   173   172    1
    56   174   177   am
    57    34    36   am
    58    76    75    2
    59   177   178    1
    60   178   181    1
    61   172   170   am
    62    75    79   am
    63    73    63   am
    64   181   182    1
    65   168   169    1
    66   137   138    2
    67    36    37    1
    68    85    83    1
    69    79    80    1
    70   170   169    1
    71   170   171    2
    72    63    64    2
    73    63    62    1
    74    53    52    2
    75    37    38    1
    76    37    40    1
    77    30    29   ar
    78    80    83    1
    79    80    81    1
    80    26    27    2
    81    26    25    1
    82    56    55    1
    83    56    57    1
    84    62    65    1
    85    62    61    1
    86    39    38    2
    87    83    84    1
    88     7     5    1
    89    55    54    1
    90    40    41    1
    91    52    61   am
    92    52    51    1
    93    29    31   ar
    94    29    28    1
    95   151   149    1
    96    65    66    1
    97    81    82    2
    98     2     5    1
    99     2     1    1
   100     2     3    1
   101    54    51    1
   102    25    28    1
   103    25    24    1
   104    57    58    2
   105     5     6    1
   106    59    58    1
   107    68    66   ar
   108    68    70   ar
   109     4     3    2
   110    51    50    1
   111    58    60    1
   112     3     8   am
   113    66    67   ar
   114   149   148    1
   115   144   145    1
   116    50    44   am
   117    70    71   ar
   118   145   148    1
   119   145   146    1
   120     8     9    1
   121   148   150    1
   122    67    69   ar
   123    22    21    1
   124    44    43    1
   125    44    45    2
   126     9    10    1
   127     9    12    1
   128    71    69   ar
   129    71    72    1
   130   146   147    2
   131    43    46    1
   132    43    42    1
   133    10    11    2
   134    91    90    1
   135    91    92    1
   136    49    47    1
   137    90    87    1
   138    46    47    1
   139    92    86    1
   140    13    12    1
   141    13    14    1
   142   110   109    1
   143    21    23    1
   144    21    18    1
   145   133   132    1
   146    19    20    2
   147    19    18    1
   148    47    48    1
   149    86    87    1
   150    87    88    1
   151    18    17    1
   152    16    14   am
   153    14    15    2
   154   103   102   ar
   155   103   101   ar
   156   134   132    1
   157   109   108    1
   158   109   111    1
   159   132   129    1
   160   102   100   ar
   161   127   125   ar
   162   127   126   ar
   163   125   123   ar
   164   108   105    1
   165    88    89    2
   166    88    93   am
   167   101    99   ar
   168   129   130    1
   169   129   128    1
   170   130   131    2
   171   126   124   ar
   172   100    98   ar
   173   123   122   ar
   174    93    94    1
   175    99    98   ar
   176   105   106    1
   177   105   104    1
   178    98    97    1
   179   107   106    2
   180   124   122   ar
   181   106   112   am
   182   122   121    1
   183    94    97    1
   184    94    95    1
   185   116   113    1
   186   112   113    1
   187   113   114    1
   188   121   118    1
   189    95    96    2
   190   114   115    2
   191   117   118    1
   192   118   119    1
   193   120   119    2
