@<TRIPOS>MOLECULE
tmp/3vufA00.pdb
 219 213 0 0 0
SMALL
GASTEIGER

@<TRIPOS>ATOM
      1  N        -59.7460  -10.0340   48.2800 N.3    17  LYS17      -0.1231
      2  CA       -59.4410  -10.4850   46.9220 C.3    17  LYS17       0.1693
      3  C        -58.5030   -9.5030   46.1920 C.2    17  LYS17       0.2593
      4  O        -58.6070   -8.2690   46.3560 O.2    17  LYS17      -0.2718
      5  CB       -60.7560  -10.7160   46.1340 C.3    17  LYS17       0.0285
      6  CG       -60.7660  -10.3060   44.6350 C.3    17  LYS17       0.0035
      7  CD       -60.5950  -11.4920   43.6830 C.3    17  LYS17       0.0206
      8  CE       -60.9200  -11.0850   42.2350 C.3    17  LYS17       0.1093
      9  NZ       -61.4390  -12.2260   41.4140 N.3    17  LYS17      -0.1314
     10  N        -57.5760  -10.0760   45.4170 N.am   18  THR18      -0.1939
     11  CA       -56.7920   -9.3460   44.4000 C.3    18  THR18       0.2028
     12  C        -56.6470  -10.2490   43.1510 C.2    18  THR18       0.2643
     13  O        -57.2330   -9.9690   42.0830 O.2    18  THR18      -0.2714
     14  CB       -55.3820   -8.8900   44.9180 C.3    18  THR18       0.1808
     15  OG1      -54.6870  -10.0090   45.5010 O.3    18  THR18      -0.2208
     16  CG2      -55.4910   -7.7190   45.9350 C.3    18  THR18       0.0379
     17  N        -55.8860  -11.3410   43.3090 N.am   19  GLY19      -0.1939
     18  CA       -55.7370  -12.3610   42.2690 C.3    19  GLY19       0.2014
     19  C        -56.8080  -13.4270   42.3700 C.2    19  GLY19       0.2639
     20  O        -57.5810  -13.4700   43.3420 O.2    19  GLY19      -0.2714
     21  N        -56.8440  -14.2930   41.3590 N.am   20  GLY20      -0.1939
     22  CA       -57.7870  -15.4230   41.2980 C.3    20  GLY20       0.2014
     23  C        -57.6410  -16.5020   42.3720 C.2    20  GLY20       0.2638
     24  O        -58.0840  -17.6310   42.1760 O.2    20  GLY20      -0.2714
     25  N        -57.0030  -16.1640   43.4920 N.am   21  LEU21      -0.1977
     26  CA       -57.0350  -16.9900   44.6810 C.3    21  LEU21       0.1596
     27  C        -58.3260  -16.6350   45.4140 C.2    21  LEU21       0.2287
     28  O        -59.0200  -17.5070   45.9580 O.2    21  LEU21      -0.2864
     29  CB       -55.8040  -16.6780   45.5260 C.3    21  LEU21       0.0297
     30  CG       -55.6330  -17.1950   46.9640 C.3    21  LEU21       0.0022
     31  CD1      -55.8910  -18.7140   47.1200 C.3    21  LEU21       0.0001
     32  CD2      -54.2270  -16.7980   47.4150 C.3    21  LEU21       0.0001
     33  N        -52.3340  -22.6900   43.2050 N.3   166  HIS166     -0.1226
     34  CA       -52.8860  -21.6080   42.4510 C.3   166  HIS166      0.1752
     35  C        -51.8240  -20.9440   41.5910 C.2   166  HIS166      0.2596
     36  O        -51.9770  -20.8430   40.3840 O.2   166  HIS166     -0.2718
     37  CB       -53.6010  -20.6510   43.3870 C.3   166  HIS166      0.0759
     38  CG       -54.8820  -21.2150   43.9160 C.ar  166  HIS166      0.0818
     39  ND1      -56.0940  -21.0170   43.2920 N.ar  166  HIS166     -0.2268
     40  CD2      -55.1360  -22.0230   44.9730 C.ar  166  HIS166      0.1154
     41  CE1      -57.0430  -21.6510   43.9560 C.ar  166  HIS166      0.1986
     42  NE2      -56.4890  -22.2620   44.9850 N.ar  166  HIS166     -0.2212
     43  N        -50.7360  -20.4860   42.1780 N.am  167  ASN167     -0.1974
     44  CA       -49.6310  -20.0700   41.3280 C.3   167  ASN167      0.1688
     45  C        -48.2820  -20.4760   41.8400 C.2   167  ASN167      0.2292
     46  O        -47.8310  -19.9560   42.8660 O.2   167  ASN167     -0.2864
     47  CB       -49.6200  -18.5590   41.0740 C.3   167  ASN167      0.1181
     48  CG       -48.5840  -18.1640   39.9900 C.2   167  ASN167      0.2629
     49  OD1      -47.9240  -19.0380   39.3680 O.2   167  ASN167     -0.2716
     50  ND2      -48.4420  -16.8550   39.7580 N.am  167  ASN167     -0.0877
     51  N        -45.2380  -18.2320   43.6170 N.3   170  TYR170     -0.1241
     52  CA       -45.0150  -17.8130   44.9920 C.3   170  TYR170      0.1605
     53  C        -45.0370  -18.9740   45.9390 C.2   170  TYR170      0.2264
     54  O        -46.0830  -19.5840   46.1740 O.2   170  TYR170     -0.2867
     55  CB       -46.0500  -16.7920   45.4220 C.3   170  TYR170      0.0534
     56  CG       -46.1730  -15.6090   44.4970 C.ar  170  TYR170     -0.0201
     57  CD1      -47.0720  -15.6340   43.4170 C.ar  170  TYR170     -0.0009
     58  CD2      -45.4040  -14.4500   44.7060 C.ar  170  TYR170     -0.0009
     59  CE1      -47.2000  -14.5360   42.5580 C.ar  170  TYR170      0.0417
     60  CE2      -45.5260  -13.3410   43.8630 C.ar  170  TYR170      0.0417
     61  CZ       -46.4200  -13.3900   42.7900 C.ar  170  TYR170      0.1957
     62  OH       -46.5270  -12.2920   41.9480 O.3   170  TYR170     -0.2866
     63  N        -69.6650  -10.7450   36.9190 N.3   262  TRP262     -0.1241
     64  CA       -69.3680  -10.4530   35.5260 C.3   262  TRP262      0.1605
     65  C        -70.5000  -11.0260   34.7160 C.2   262  TRP262      0.2264
     66  O        -70.5030  -12.2220   34.4270 O.2   262  TRP262     -0.2867
     67  CB       -68.0490  -11.0930   35.1080 C.3   262  TRP262      0.0550
     68  CG       -66.8690  -10.4600   35.7490 C.ar  262  TRP262      0.0003
     69  CD1      -66.3390  -10.7610   36.9700 C.ar  262  TRP262      0.0946
     70  CD2      -66.0670   -9.3970   35.2150 C.ar  262  TRP262      0.0152
     71  NE1      -65.2500   -9.9550   37.2300 N.ar  262  TRP262     -0.2442
     72  CE2      -65.0620   -9.1090   36.1720 C.ar  262  TRP262      0.0810
     73  CE3      -66.0950   -8.6650   34.0170 C.ar  262  TRP262      0.0012
     74  CZ2      -64.1000   -8.1250   35.9730 C.ar  262  TRP262      0.0191
     75  CZ3      -65.1400   -7.6840   33.8180 C.ar  262  TRP262      0.0001
     76  CH2      -64.1520   -7.4210   34.7940 C.ar  262  TRP262      0.0015
     77  N        -55.1800   -6.6190   29.4840 N.3   308  ILE308     -0.1231
     78  CA       -55.4650   -6.3400   30.8800 C.3   308  ILE308      0.1692
     79  C        -54.6800   -7.3560   31.6570 C.2   308  ILE308      0.2593
     80  O        -54.9310   -8.5500   31.5540 O.2   308  ILE308     -0.2718
     81  CB       -56.9940   -6.4980   31.2230 C.3   308  ILE308      0.0266
     82  CG1      -57.8390   -5.4630   30.4650 C.3   308  ILE308      0.0019
     83  CG2      -57.2550   -6.3680   32.7330 C.3   308  ILE308      0.0020
     84  CD1      -59.3500   -5.6160   30.6330 C.3   308  ILE308      0.0001
     85  N        -53.7010   -6.8760   32.4000 N.am  309  GLY309     -0.1942
     86  CA       -52.9880   -7.7130   33.3430 C.3   309  GLY309      0.2014
     87  C        -52.0800   -6.9270   34.2770 C.2   309  GLY309      0.2638
     88  O        -51.7490   -5.7740   34.0100 O.2   309  GLY309     -0.2714
     89  N        -51.7010   -7.5690   35.3800 N.am  310  ARG310     -0.1977
     90  CA       -50.6390   -7.0850   36.2330 C.3   310  ARG310      0.1597
     91  C        -49.4040   -6.9810   35.3690 C.2   310  ARG310      0.2287
     92  O        -49.0900   -7.9040   34.6420 O.2   310  ARG310     -0.2864
     93  CB       -50.3470   -8.0580   37.3920 C.3   310  ARG310      0.0334
     94  CG       -51.5670   -8.6180   38.1480 C.3   310  ARG310      0.0492
     95  CD       -51.1870   -9.1730   39.5370 C.3   310  ARG310      0.2205
     96  NE       -51.0410  -10.6360   39.5980 N.pl3 310  ARG310     -0.0865
     97  CZ       -49.9780  -11.3150   39.1650 C.cat 310  ARG310      0.5346
     98  NH1      -48.9600  -10.6690   38.6070 N.pl3 310  ARG310      0.1354
     99  NH2      -49.9340  -12.6420   39.2790 N.pl3 310  ARG310      0.1354
    100  N        -44.8250  -12.4430   34.0010 N.3   314  GLN314     -0.1231
    101  CA       -45.6860  -13.6250   33.7030 C.3   314  GLN314      0.1698
    102  C        -46.7910  -13.4010   32.6370 C.2   314  GLN314      0.2592
    103  O        -47.3060  -14.3450   31.9880 O.2   314  GLN314     -0.2718
    104  CB       -46.2860  -14.1620   35.0120 C.3   314  GLN314      0.0381
    105  CG       -47.7180  -14.6490   34.9060 C.3   314  GLN314      0.0905
    106  CD       -48.3240  -15.0590   36.2540 C.2   314  GLN314      0.2608
    107  OE1      -47.6790  -14.9300   37.3180 O.2   314  GLN314     -0.2717
    108  NE2      -49.5750  -15.5610   36.2180 N.am  314  GLN314     -0.0878
    109  N        -47.1350  -12.1350   32.4700 N.am  315  LYS315     -0.1980
    110  CA       -48.2880  -11.7610   31.7110 C.3   315  LYS315      0.1596
    111  C        -47.8390  -11.0820   30.4320 C.2   315  LYS315      0.2287
    112  O        -48.6550  -10.5050   29.7040 O.2   315  LYS315     -0.2864
    113  CB       -49.1820  -10.8330   32.5450 C.3   315  LYS315      0.0298
    114  CG       -49.7040  -11.4260   33.8460 C.3   315  LYS315      0.0038
    115  CD       -50.4730  -12.7300   33.6310 C.3   315  LYS315      0.0206
    116  CE       -51.5000  -13.0130   34.7420 C.3   315  LYS315      0.1093
    117  NZ       -52.6900  -12.0840   34.6500 N.3   315  LYS315     -0.1314
    118  N        -54.3580   -2.1860   30.1000 N.3   337  LEU337     -0.1231
    119  CA       -54.7150   -1.8030   31.4280 C.3   337  LEU337      0.1693
    120  C        -53.9970   -2.7080   32.3800 C.2   337  LEU337      0.2593
    121  O        -54.1340   -3.9350   32.3190 O.2   337  LEU337     -0.2718
    122  CB       -56.2060   -1.9390   31.6500 C.3   337  LEU337      0.0284
    123  CG       -56.6530   -1.5690   33.0580 C.3   337  LEU337      0.0019
    124  CD1      -56.8170   -0.0750   33.1060 C.3   337  LEU337      0.0001
    125  CD2      -57.9670   -2.2570   33.4000 C.3   337  LEU337      0.0001
    126  N        -53.2240   -2.1090   33.2650 N.am  338  GLY338     -0.1942
    127  CA       -52.5910   -2.8840   34.2820 C.3   338  GLY338      0.2014
    128  C        -51.6310   -2.0600   35.0710 C.2   338  GLY338      0.2639
    129  O        -51.3180   -0.9250   34.7370 O.2   338  GLY338     -0.2714
    130  N        -51.1490   -2.6640   36.1310 N.am  339  THR339     -0.1950
    131  CA       -50.2100   -2.0010   36.9520 C.3   339  THR339      0.1897
    132  C        -49.2120   -3.0030   37.5030 C.2   339  THR339      0.2313
    133  O        -49.6060   -4.0730   37.9430 O.2   339  THR339     -0.2863
    134  CB       -50.9290   -1.2600   38.0660 C.3   339  THR339      0.1794
    135  OG1      -49.9360   -0.6850   38.9020 O.3   339  THR339     -0.2208
    136  CG2      -51.8240   -2.1810   38.8880 C.3   339  THR339      0.0378
    137  N        -53.7350    1.7110   36.3950 N.3   364  LYS364     -0.1231
    138  CA       -54.4650    1.7930   37.7010 C.3   364  LYS364      0.1693
    139  C        -55.3940    0.6050   38.0210 C.2   364  LYS364      0.2592
    140  O        -55.5040   -0.3250   37.2350 O.2   364  LYS364     -0.2718
    141  CB       -55.2190    3.1320   37.8620 C.3   364  LYS364      0.0285
    142  CG       -56.3320    3.3660   36.8460 C.3   364  LYS364      0.0035
    143  CD       -56.5750    4.8700   36.5470 C.3   364  LYS364      0.0206
    144  CE       -57.7900    5.0390   35.6010 C.3   364  LYS364      0.1093
    145  NZ       -57.7750    6.2750   34.7380 N.3   364  LYS364     -0.1314
    146  N        -56.0440    0.6300   39.1860 N.am  365  PHE365     -0.1962
    147  CA       -56.9670   -0.4390   39.5660 C.3   365  PHE365      0.1771
    148  C        -58.3820   -0.0020   39.1870 C.2   365  PHE365      0.2620
    149  O        -59.3100   -0.0710   40.0050 O.2   365  PHE365     -0.2715
    150  CB       -56.8440   -0.7560   41.0710 C.3   365  PHE365      0.0574
    151  CG       -57.2800   -2.1700   41.4650 C.ar  365  PHE365     -0.0200
    152  CD1      -56.7560   -3.2980   40.7990 C.ar  365  PHE365     -0.0042
    153  CD2      -58.1760   -2.3720   42.5470 C.ar  365  PHE365     -0.0042
    154  CE1      -57.1430   -4.6010   41.1810 C.ar  365  PHE365     -0.0003
    155  CE2      -58.5620   -3.6720   42.9420 C.ar  365  PHE365     -0.0003
    156  CZ       -58.0430   -4.7870   42.2690 C.ar  365  PHE365     -0.0000
    157  N        -58.5390    0.4520   37.9400 N.am  366  ASN366     -0.1958
    158  CA       -59.8440    0.9100   37.4420 C.3   366  ASN366      0.1819
    159  C        -60.8160   -0.2410   37.1020 C.2   366  ASN366      0.2621
    160  O        -61.0280   -0.5820   35.9140 O.2   366  ASN366     -0.2715
    161  CB       -59.6680    1.8640   36.2420 C.3   366  ASN366      0.1195
    162  CG       -60.7800    2.9100   36.1510 C.2   366  ASN366      0.2630
    163  OD1      -61.6980    2.9580   36.9790 O.2   366  ASN366     -0.2716
    164  ND2      -60.6910    3.7600   35.1460 N.am  366  ASN366     -0.0877
    165  N        -61.4070   -0.8360   38.1340 N.am  367  ALA367     -0.1977
    166  CA       -62.4000   -1.8880   37.9130 C.3   367  ALA367      0.1597
    167  C        -63.4940   -1.4850   36.8960 C.2   367  ALA367      0.2287
    168  O        -63.8130   -2.2490   35.9940 O.2   367  ALA367     -0.2864
    169  CB       -63.0160   -2.3560   39.2370 C.3   367  ALA367      0.0319
    170  N        -62.0550   -1.8480   33.4900 N.3   370  ALA370     -0.1245
    171  CA       -61.9170   -3.2230   33.0850 C.3   370  ALA370      0.1562
    172  C        -63.2130   -3.7010   32.4550 C.2   370  ALA370      0.2260
    173  O        -63.1920   -4.2280   31.3760 O.2   370  ALA370     -0.2867
    174  CB       -61.5610   -4.0690   34.2320 C.3   370  ALA370      0.0290
    175  N        -49.5020  -19.4300   32.6540 N.3   387  GLU387     -0.1231
    176  CA       -50.8600  -19.0820   33.0220 C.3   387  GLU387      0.1684
    177  C        -51.5770  -20.2560   33.6650 C.2   387  GLU387      0.2434
    178  O        -52.1570  -21.0710   32.9630 O.2   387  GLU387     -0.2733
    179  CB       -51.6280  -18.6310   31.7810 C.3   387  GLU387      0.0402
    180  CG       -52.8430  -17.8370   32.1010 C.3   387  GLU387      0.1161
    181  CD       -52.5020  -16.6360   32.9490 C.2   387  GLU387      0.3649
    182  OE1      -51.6840  -15.7990   32.4890 O.co2 387  GLU387     -0.2457
    183  OE2      -53.0340  -16.5540   34.0840 O.co2 387  GLU387     -0.2457
    184  N        -51.5480  -20.3470   35.0020 N.am  388  PRO388     -0.2729
    185  CA       -52.1460  -21.5070   35.6480 C.3   388  PRO388      0.1401
    186  C        -53.6300  -21.7090   35.3210 C.2   388  PRO388      0.2269
    187  O        -53.9910  -22.7580   34.7960 O.2   388  PRO388     -0.2865
    188  CB       -51.9160  -21.2360   37.1400 C.3   388  PRO388      0.0296
    189  CG       -50.6880  -20.4450   37.1650 C.3   388  PRO388      0.0237
    190  CD       -50.7580  -19.5520   35.9510 C.3   388  PRO388      0.0939
    191  N        -56.2130  -18.4210   34.7190 N.3   390  GLY390     -0.1210
    192  CA       -56.4930  -17.3030   33.8580 C.3   390  GLY390      0.1956
    193  C        -57.9320  -16.9570   34.0930 C.2   390  GLY390      0.2612
    194  O        -58.8060  -17.8010   34.0080 O.2   390  GLY390     -0.2717
    195  N        -58.1640  -15.7040   34.4150 N.am  391  LEU391     -0.1965
    196  CA       -59.4710  -15.2880   34.7280 C.3   391  LEU391      0.1728
    197  C        -59.8390  -14.2630   33.6870 C.2   391  LEU391      0.2616
    198  O        -60.9990  -14.1320   33.2960 O.2   391  LEU391     -0.2715
    199  CB       -59.4720  -14.6910   36.1210 C.3   391  LEU391      0.0311
    200  CG       -60.8370  -14.4920   36.7500 C.3   391  LEU391      0.0022
    201  CD1      -61.5820  -15.7890   36.6350 C.3   391  LEU391      0.0001
    202  CD2      -60.6600  -14.0840   38.1820 C.3   391  LEU391      0.0001
    203  N        -58.8440  -13.5590   33.2020 N.am  392  ILE392     -0.1977
    204  CA       -59.0730  -12.6010   32.1600 C.3   392  ILE392      0.1596
    205  C        -59.7750  -13.1710   30.8860 C.2   392  ILE392      0.2287
    206  O        -60.6730  -12.5390   30.3300 O.2   392  ILE392     -0.2864
    207  CB       -57.7680  -11.8750   31.8220 C.3   392  ILE392      0.0276
    208  CG1      -58.0400  -10.3820   31.6690 C.3   392  ILE392      0.0022
    209  CG2      -57.1190  -12.4550   30.5830 C.3   392  ILE392      0.0022
    210  CD1      -58.6450   -9.7290   32.9020 C.3   392  ILE392      0.0001
    211  N        -63.3690  -14.0420   31.7150 N.3   395  GLN395     -0.1245
    212  CA       -64.1450  -12.8320   31.7300 C.3   395  GLN395      0.1566
    213  C        -64.4300  -12.3810   30.3070 C.2   395  GLN395      0.2260
    214  O        -65.5820  -12.1880   29.9220 O.2   395  GLN395     -0.2867
    215  CB       -63.4370  -11.7900   32.5630 C.3   395  GLN395      0.0367
    216  CG       -63.6150  -12.1310   34.0140 C.3   395  GLN395      0.0905
    217  CD       -62.5730  -11.5220   34.9180 C.2   395  GLN395      0.2608
    218  OE1      -61.6460  -10.8330   34.4780 O.2   395  GLN395     -0.2717
    219  NE2      -62.7160  -11.7880   36.2120 N.am  395  GLN395     -0.0878
@<TRIPOS>BOND
     1    77    78    1
     2   112   111    2
     3   214   213    2
     4   118   119    1
     5   213   212    1
     6   206   205    2
     7   111   110    1
     8    82    84    1
     9    82    81    1
    10   209   207    1
    11    78    81    1
    12    78    79    1
    13   205   204    1
    14    81    83    1
    15   173   172    2
    16   119   122    1
    17   119   120    1
    18    80    79    2
    19   122   123    1
    20    79    85   am
    21   208   207    1
    22   208   210    1
    23   110   109    1
    24   110   113    1
    25   211   212    1
    26   212   215    1
    27   179   180    1
    28   179   176    1
    29   207   204    1
    30   103   102    2
    31   180   181    1
    32   204   203    1
    33   121   120    2
    34   120   126   am
    35    85    86    1
    36   172   171    1
    37   109   102   am
    38   182   181   ar
    39   113   114    1
    40   215   216    1
    41   102   101    1
    42   175   176    1
    43   181   183   ar
    44   178   177    2
    45   176   177    1
    46   123   124    1
    47   123   125    1
    48   171   170    1
    49   171   174    1
    50   203   197   am
    51   126   127    1
    52   198   197    2
    53    86    87    1
    54   115   114    1
    55   115   116    1
    56   177   184   am
    57   197   196    1
    58   101   100    1
    59   101   104    1
    60    75    73   ar
    61    75    76   ar
    62   192   193    1
    63   192   191    1
    64   194   193    2
    65    88    87    2
    66   216   217    1
    67    73    70   ar
    68   193   195   am
    69    87    89   am
    70   127   128    1
    71   195   196    1
    72    66    65    2
    73   218   217    2
    74    92    91    2
    75   117   116    1
    76    65    64    1
    77   196   199    1
    78   129   128    2
    79   145   144    1
    80    76    74   ar
    81   187   186    2
    82   105   104    1
    83   105   106    1
    84   217   219   am
    85   184   185    1
    86   184   190    1
    87   128   130   am
    88    67    64    1
    89    67    68    1
    90   164   162   am
    91    70    68   ar
    92    70    72   ar
    93   186   185    1
    94    91    90    1
    95    89    90    1
    96    64    63    1
    97   144   143    1
    98   185   188    1
    99    68    69   ar
   100   160   159    2
   101   190   189    1
   102    74    72   ar
   103   168   167    2
   104   199   200    1
   105   130   131    1
   106   162   161    1
   107   162   163    2
   108    72    71   ar
   109   108   106   am
   110    90    93    1
   111   161   158    1
   112   106   107    2
   113   137   138    1
   114   143   142    1
   115   201   200    1
   116   200   202    1
   117   142   141    1
   118   167   166    1
   119   131   132    1
   120   131   134    1
   121    69    71   ar
   122   159   158    1
   123   159   165   am
   124   188   189    1
   125   140   139    2
   126    93    94    1
   127   158   157    1
   128   132   133    2
   129   138   141    1
   130   138   139    1
   131   166   165    1
   132   166   169    1
   133   157   148   am
   134   139   146   am
   135   134   136    1
   136   134   135    1
   137    94    95    1
   138    98    97    1
   139    97    99    1
   140    97    96    2
   141   146   147    1
   142   148   147    1
   143   148   149    2
   144    49    48    2
   145    95    96    1
   146   147   150    1
   147    50    48   am
   148    48    47    1
   149    36    35    2
   150   152   154   ar
   151   152   151   ar
   152   150   151    1
   153    47    44    1
   154   154   156   ar
   155    22    21    1
   156    22    23    1
   157    44    45    1
   158    44    43    1
   159    21    19   am
   160     9     8    1
   161   151   153   ar
   162    35    43   am
   163    35    34    1
   164    45    46    2
   165    62    61    1
   166    13    12    2
   167    24    23    2
   168     8     7    1
   169    18    19    1
   170    18    17    1
   171   156   155   ar
   172    19    20    2
   173    23    25   am
   174    34    33    1
   175    34    37    1
   176   153   155   ar
   177    59    61   ar
   178    59    57   ar
   179    61    60   ar
   180    12    17   am
   181    12    11    1
   182    39    38   ar
   183    39    41   ar
   184    37    38    1
   185    57    56   ar
   186    25    26    1
   187    51    52    1
   188     7     6    1
   189    60    58   ar
   190    38    40   ar
   191    41    42   ar
   192    11    14    1
   193    11    10    1
   194    56    58   ar
   195    56    55    1
   196     6     5    1
   197    26    27    1
   198    26    29    1
   199    14    15    1
   200    14    16    1
   201    40    42   ar
   202    52    55    1
   203    52    53    1
   204    27    28    2
   205    10     3   am
   206    29    30    1
   207    53    54    2
   208     5     2    1
   209     3     4    2
   210     3     2    1
   211     2     1    1
   212    30    31    1
   213    30    32    1
