@<TRIPOS>MOLECULE
tmp/3vumA01.pdb
 80 77 0 0 0
SMALL
GASTEIGER

@<TRIPOS>ATOM
      1  N         67.9240  -42.2170    6.3670 N.3   221  LEU221     -0.1231
      2  CA        67.3920  -41.7350    5.1050 C.3   221  LEU221      0.1693
      3  C         68.0790  -40.5140    4.5460 C.2   221  LEU221      0.2593
      4  O         68.0350  -40.3000    3.3290 O.2   221  LEU221     -0.2718
      5  CB        65.8770  -41.5220    5.1900 C.3   221  LEU221      0.0284
      6  CG        65.1960  -42.8590    5.5970 C.3   221  LEU221      0.0019
      7  CD1       63.6770  -42.7300    5.6650 C.3   221  LEU221      0.0001
      8  CD2       65.6160  -43.9500    4.6540 C.3   221  LEU221      0.0001
      9  N         68.7540  -39.7300    5.3970 N.am  222  GLY222     -0.1942
     10  CA        69.2980  -38.4380    4.9520 C.3   222  GLY222      0.2014
     11  C         68.3780  -37.3400    5.4550 C.2   222  GLY222      0.2640
     12  O         67.2360  -37.5900    5.7470 O.2   222  GLY222     -0.2714
     13  N         68.8840  -36.1280    5.5980 N.am  223  THR223     -0.1937
     14  CA        68.1190  -35.0050    6.0720 C.3   223  THR223      0.2013
     15  C         67.2990  -34.5970    4.8930 C.2   223  THR223      0.2484
     16  O         67.7800  -34.6600    3.7470 O.2   223  THR223     -0.2729
     17  CB        69.1220  -33.8980    6.4050 C.3   223  THR223      0.1807
     18  OG1       69.9780  -34.3580    7.4740 O.3   223  THR223     -0.2208
     19  CG2       68.4320  -32.5550    6.7760 C.3   223  THR223      0.0379
     20  N         66.0450  -34.1870    5.1240 N.am  224  PRO224     -0.2715
     21  CA        65.2000  -33.8310    3.9730 C.3   224  PRO224      0.1536
     22  C         65.5480  -32.4470    3.3920 C.2   224  PRO224      0.2599
     23  O         66.2790  -31.6860    4.0260 O.2   224  PRO224     -0.2715
     24  CB        63.7810  -33.8490    4.5390 C.3   224  PRO224      0.0310
     25  CG        63.8970  -33.8810    6.0300 C.3   224  PRO224      0.0237
     26  CD        65.3590  -33.9840    6.4110 C.3   224  PRO224      0.0939
     27  N         65.0180  -32.1350    2.2070 N.am  225  SER225     -0.1950
     28  CA        65.4190  -30.9690    1.4420 C.3   225  SER225      0.1924
     29  C         64.9950  -29.6390    2.0980 C.2   225  SER225      0.2314
     30  O         64.1650  -29.6060    3.0010 O.2   225  SER225     -0.2863
     31  CB        64.8620  -31.0560    0.0090 C.3   225  SER225      0.2116
     32  OG        63.4590  -30.7900    0.0080 O.3   225  SER225     -0.2180
     33  N         61.3340  -28.8240    1.8060 N.3   228  PHE228     -0.1241
     34  CA        60.5650  -29.6220    2.7280 C.3   228  PHE228      0.1605
     35  C         60.6250  -28.9780    4.0930 C.2   228  PHE228      0.2264
     36  O         59.6200  -28.9200    4.8400 O.2   228  PHE228     -0.2867
     37  CB        61.0650  -31.0650    2.8090 C.3   228  PHE228      0.0534
     38  CG        60.5090  -31.7920    3.9930 C.ar  228  PHE228     -0.0203
     39  CD1       59.2260  -32.3570    3.9440 C.ar  228  PHE228     -0.0042
     40  CD2       61.1920  -31.8020    5.2050 C.ar  228  PHE228     -0.0042
     41  CE1       58.6670  -32.9650    5.0740 C.ar  228  PHE228     -0.0003
     42  CE2       60.6310  -32.4080    6.3350 C.ar  228  PHE228     -0.0003
     43  CZ        59.3700  -33.0120    6.2660 C.ar  228  PHE228     -0.0000
     44  N         73.8160  -37.2320    4.9340 N.3   247  ALA247     -0.1245
     45  CA        73.5980  -37.6600    3.5660 C.3   247  ALA247      0.1562
     46  C         72.5790  -38.7810    3.4470 C.2   247  ALA247      0.2260
     47  O         71.8990  -38.8620    2.4450 O.2   247  ALA247     -0.2867
     48  CB        74.9080  -38.0450    2.8520 C.3   247  ALA247      0.0290
     49  N         59.9820  -42.6580    2.2400 N.3   283  VAL283     -0.1231
     50  CA        60.4180  -41.3580    1.7400 C.3   283  VAL283      0.1692
     51  C         59.8120  -40.3070    2.7010 C.2   283  VAL283      0.2592
     52  O         58.5880  -40.2870    2.9050 O.2   283  VAL283     -0.2718
     53  CB        59.8780  -41.0690    0.3000 C.3   283  VAL283      0.0266
     54  CG1       60.2630  -39.6770   -0.1470 C.3   283  VAL283      0.0020
     55  CG2       60.2780  -42.1130   -0.7530 C.3   283  VAL283      0.0020
     56  N         60.6520  -39.4470    3.2740 N.am  284  ILE284     -0.1966
     57  CA        60.2360  -38.5150    4.2900 C.3   284  ILE284      0.1727
     58  C         59.3220  -37.4320    3.6800 C.2   284  ILE284      0.2616
     59  O         58.3050  -37.0530    4.2550 O.2   284  ILE284     -0.2715
     60  CB        61.4720  -37.8740    4.9550 C.3   284  ILE284      0.0290
     61  CG1       62.0840  -38.7940    6.0110 C.3   284  ILE284      0.0022
     62  CG2       61.1040  -36.5870    5.6580 C.3   284  ILE284      0.0023
     63  CD1       63.4840  -38.3920    6.4680 C.3   284  ILE284      0.0001
     64  N         59.6580  -36.9220    2.5090 N.am  285  ASP285     -0.1971
     65  CA        58.8320  -35.8390    1.9730 C.3   285  ASP285      0.1709
     66  C         57.6140  -36.4340    1.2530 C.2   285  ASP285      0.2293
     67  O         57.7540  -37.0210    0.1690 O.2   285  ASP285     -0.2864
     68  CB        59.6270  -34.9030    1.0460 C.3   285  ASP285      0.1436
     69  CG        58.7590  -33.7710    0.4640 C.2   285  ASP285      0.3671
     70  OD1       57.5010  -33.8790    0.4630 O.co2 285  ASP285     -0.2456
     71  OD2       59.3430  -32.7620   -0.0110 O.co2 285  ASP285     -0.2456
     72  N         57.0210  -36.2790   -2.4000 N.3   288  LYS288     -0.1245
     73  CA        57.8350  -37.1300   -3.2730 C.3   288  LYS288      0.1561
     74  C         57.5580  -38.6520   -3.0410 C.2   288  LYS288      0.2260
     75  O         58.1430  -39.5100   -3.6930 O.2   288  LYS288     -0.2867
     76  CB        59.3230  -36.8240   -3.1040 C.3   288  LYS288      0.0271
     77  CG        59.7970  -35.4440   -3.5960 C.3   288  LYS288      0.0035
     78  CD        61.3230  -35.2760   -3.4370 C.3   288  LYS288      0.0206
     79  CE        61.7830  -33.8200   -3.3840 C.3   288  LYS288      0.1093
     80  NZ        62.6370  -33.5380   -2.1790 N.3   288  LYS288     -0.1314
@<TRIPOS>BOND
     1    75    74    2
     2    77    78    1
     3    77    76    1
     4    78    79    1
     5    79    80    1
     6    73    76    1
     7    73    74    1
     8    73    72    1
     9    55    53    1
    10    54    53    1
    11    71    69   ar
    12    32    31    1
    13    31    28    1
    14    67    66    2
    15    53    50    1
    16    70    69   ar
    17    69    68    1
    18    68    65    1
    19    66    65    1
    20    28    29    1
    21    28    27    1
    22    50    49    1
    23    50    51    1
    24    33    34    1
    25    65    64    1
    26    29    30    2
    27    27    22   am
    28    47    46    2
    29    64    58   am
    30    51    52    2
    31    51    56   am
    32    34    37    1
    33    34    35    1
    34    37    38    1
    35    48    45    1
    36    56    57    1
    37     4     3    2
    38    22    21    1
    39    22    23    2
    40    46    45    1
    41    45    44    1
    42    58    59    2
    43    58    57    1
    44    16    15    2
    45    39    38   ar
    46    39    41   ar
    47    21    24    1
    48    21    20    1
    49    38    40   ar
    50    35    36    2
    51    57    60    1
    52    24    25    1
    53     3     2    1
    54     3     9   am
    55     8     6    1
    56    15    20   am
    57    15    14    1
    58    10     9    1
    59    10    11    1
    60    60    62    1
    61    60    61    1
    62    41    43   ar
    63     2     5    1
    64     2     1    1
    65    20    26    1
    66     5     6    1
    67    40    42   ar
    68    11    13   am
    69    11    12    2
    70     6     7    1
    71    13    14    1
    72    61    63    1
    73    25    26    1
    74    14    17    1
    75    43    42   ar
    76    17    19    1
    77    17    18    1
