@<TRIPOS>MOLECULE
tmp/3vumA00.pdb
 206 197 0 0 0
SMALL
GASTEIGER

@<TRIPOS>ATOM
      1  N         37.6290  -57.9110    2.3810 N.3    77  LYS77      -0.1245
      2  CA        38.3900  -59.1070    2.8460 C.3    77  LYS77       0.1561
      3  C         39.6410  -58.7910    3.6590 C.2    77  LYS77       0.2260
      4  O         40.1740  -59.6650    4.3140 O.2    77  LYS77      -0.2867
      5  CB        38.7100  -60.1620    1.7360 C.3    77  LYS77       0.0271
      6  CG        39.4540  -59.7660    0.4570 C.3    77  LYS77       0.0035
      7  CD        39.3300  -60.8210   -0.6980 C.3    77  LYS77       0.0206
      8  CE        40.4750  -61.8060   -0.7150 C.3    77  LYS77       0.1093
      9  NZ        40.3440  -63.0300   -1.5480 N.3    77  LYS77      -0.1314
     10  N         44.9970  -65.2430   13.6870 N.3   106  ASP106     -0.1225
     11  CA        45.9450  -66.1060   14.3610 C.3   106  ASP106      0.1805
     12  C         47.0930  -65.3270   14.9460 C.2   106  ASP106      0.2597
     13  O         47.6490  -65.7460   15.9680 O.2   106  ASP106     -0.2718
     14  CB        46.5230  -67.1630   13.4410 C.3   106  ASP106      0.1424
     15  CG        45.4700  -68.1120   12.8970 C.2   106  ASP106      0.3668
     16  OD1       44.3180  -68.0030   13.3310 O.co2 106  ASP106     -0.2456
     17  OD2       45.7760  -68.9500   12.0220 O.co2 106  ASP106     -0.2456
     18  N         47.5120  -64.2350   14.3010 N.am  107  ALA107     -0.1979
     19  CA        48.7150  -63.5480   14.8050 C.3   107  ALA107      0.1597
     20  C         48.7830  -62.1380   14.3210 C.2   107  ALA107      0.2287
     21  O         48.0230  -61.7790   13.4040 O.2   107  ALA107     -0.2864
     22  CB        49.9860  -64.3070   14.4410 C.3   107  ALA107      0.0319
     23  N         54.8030  -60.8060   14.4720 N.3   111  GLN111     -0.1231
     24  CA        55.2800  -62.1610   14.4340 C.3   111  GLN111      0.1698
     25  C         55.8670  -62.5080   13.0700 C.2   111  GLN111      0.2592
     26  O         56.8250  -63.2860   12.9320 O.2   111  GLN111     -0.2718
     27  CB        54.1380  -63.0960   14.7090 C.3   111  GLN111      0.0381
     28  CG        54.4660  -64.0810   15.7950 C.3   111  GLN111      0.0905
     29  CD        54.1230  -65.4950   15.3780 C.2   111  GLN111      0.2608
     30  OE1       53.0110  -65.9610   15.6100 O.2   111  GLN111     -0.2717
     31  NE2       55.0860  -66.1940   14.7730 N.am  111  GLN111     -0.0878
     32  N         55.2750  -61.9450   12.0380 N.am  112  VAL112     -0.1980
     33  CA        55.6670  -62.2840   10.6970 C.3   112  VAL112      0.1595
     34  C         57.0550  -61.6620   10.4600 C.2   112  VAL112      0.2287
     35  O         57.9310  -62.2840    9.8720 O.2   112  VAL112     -0.2864
     36  CB        54.6330  -61.6980    9.7200 C.3   112  VAL112      0.0276
     37  CG1       55.1670  -61.6480    8.2880 C.3   112  VAL112      0.0022
     38  CG2       53.3270  -62.4670    9.7950 C.3   112  VAL112      0.0022
     39  N         60.0390  -63.6920   11.1670 N.3   115  MET115     -0.1245
     40  CA        60.2840  -64.9790   10.4980 C.3   115  MET115      0.1570
     41  C         60.8220  -64.8380    9.0910 C.2   115  MET115      0.2261
     42  O         60.7170  -63.7810    8.5000 O.2   115  MET115     -0.2867
     43  CB        59.0330  -65.8780   10.5500 C.3   115  MET115      0.0387
     44  CG        57.9090  -65.3560    9.7000 C.3   115  MET115      0.0595
     45  SD        56.4490  -66.4090    9.8320 S.3   115  MET115     -0.1393
     46  CE        55.1760  -65.2760    9.3580 C.3   115  MET115      0.0692
     47  N         60.6180  -64.9590    5.4240 N.3   117  LEU117     -0.1245
     48  CA        59.6530  -65.1420    4.3390 C.3   117  LEU117      0.1561
     49  C         60.3060  -65.1700    3.0010 C.2   117  LEU117      0.2260
     50  O         61.3970  -64.6390    2.7890 O.2   117  LEU117     -0.2867
     51  CB        58.6690  -64.0120    4.2850 C.3   117  LEU117      0.0270
     52  CG        58.0140  -63.6020    5.5750 C.3   117  LEU117      0.0019
     53  CD1       57.2160  -62.3180    5.3510 C.3   117  LEU117      0.0001
     54  CD2       57.1070  -64.7440    6.0320 C.3   117  LEU117      0.0001
     55  N         57.1830  -64.3710   -2.4220 N.3   120  GLU120     -0.1231
     56  CA        55.7400  -64.3450   -2.6980 C.3   120  GLU120      0.1699
     57  C         54.9710  -64.0220   -1.4400 C.2   120  GLU120      0.2592
     58  O         54.0100  -63.2190   -1.4780 O.2   120  GLU120     -0.2718
     59  CB        55.1750  -65.5330   -3.5240 C.3   120  GLU120      0.0402
     60  CG        56.0200  -66.7910   -3.6150 C.3   120  GLU120      0.1161
     61  CD        57.0890  -66.7400   -4.6960 C.2   120  GLU120      0.3649
     62  OE1       56.7240  -67.0450   -5.8560 O.co2 120  GLU120     -0.2457
     63  OE2       58.2940  -66.4590   -4.3670 O.co2 120  GLU120     -0.2457
     64  N         55.4410  -64.5400   -0.3070 N.am  121  ARG121     -0.1980
     65  CA        54.7880  -64.1680    0.9530 C.3   121  ARG121      0.1597
     66  C         54.8420  -62.6960    1.2970 C.2   121  ARG121      0.2287
     67  O         53.7790  -62.0790    1.5890 O.2   121  ARG121     -0.2864
     68  CB        55.1520  -65.1020    2.0970 C.3   121  ARG121      0.0334
     69  CG        54.4600  -66.4250    1.9380 C.3   121  ARG121      0.0492
     70  CD        54.7530  -67.4610    3.0210 C.3   121  ARG121      0.2205
     71  NE        55.1720  -68.7100    2.3760 N.pl3 121  ARG121     -0.0865
     72  CZ        54.4630  -69.8130    2.2860 C.cat 121  ARG121      0.5346
     73  NH1       53.2890  -69.9030    2.8420 N.pl3 121  ARG121      0.1354
     74  NH2       54.9360  -70.8450    1.6520 N.pl3 121  ARG121      0.1354
     75  N         52.8170  -60.6420   -1.2650 N.3   124  TYR124     -0.1227
     76  CA        51.4320  -60.9040   -1.1030 C.3   124  TYR124      0.1736
     77  C         50.8870  -60.2680    0.1700 C.2   124  TYR124      0.2595
     78  O         49.7520  -59.6780    0.1530 O.2   124  TYR124     -0.2718
     79  CB        51.2070  -62.4150   -1.0910 C.3   124  TYR124      0.0548
     80  CG        49.7220  -62.7810   -1.0380 C.ar  124  TYR124     -0.0200
     81  CD1       48.7890  -62.1000   -1.8050 C.ar  124  TYR124     -0.0009
     82  CD2       49.2740  -63.8000   -0.2280 C.ar  124  TYR124     -0.0009
     83  CE1       47.4580  -62.4360   -1.7550 C.ar  124  TYR124      0.0417
     84  CE2       47.9580  -64.1330   -0.1610 C.ar  124  TYR124      0.0417
     85  CZ        47.0600  -63.4550   -0.9180 C.ar  124  TYR124      0.1957
     86  OH        45.7350  -63.7790   -0.8150 O.3   124  TYR124     -0.2866
     87  N         51.6600  -60.3510    1.2670 N.am  125  LEU125     -0.1980
     88  CA        51.1800  -59.6640    2.4740 C.3   125  LEU125      0.1596
     89  C         51.0750  -58.1700    2.2620 C.2   125  LEU125      0.2287
     90  O         50.0750  -57.5620    2.6300 O.2   125  LEU125     -0.2864
     91  CB        51.9860  -59.9940    3.7000 C.3   125  LEU125      0.0297
     92  CG        51.9770  -61.4670    4.0740 C.3   125  LEU125      0.0022
     93  CD1       52.9220  -61.6180    5.2340 C.3   125  LEU125      0.0001
     94  CD2       50.6000  -61.8660    4.4960 C.3   125  LEU125      0.0001
     95  N         50.7730  -56.6210   -0.5940 N.3   127  TYR127     -0.1241
     96  CA        49.6720  -56.4120   -1.5490 C.3   127  TYR127      0.1605
     97  C         48.3560  -56.2890   -0.7610 C.2   127  TYR127      0.2264
     98  O         47.6590  -55.2590   -0.8400 O.2   127  TYR127     -0.2867
     99  CB        49.5680  -57.5580   -2.5700 C.3   127  TYR127      0.0534
    100  CG        48.2530  -57.5370   -3.3100 C.ar  127  TYR127     -0.0201
    101  CD1       47.9930  -56.5330   -4.2520 C.ar  127  TYR127     -0.0009
    102  CD2       47.2290  -58.4740   -3.0160 C.ar  127  TYR127     -0.0009
    103  CE1       46.7940  -56.5040   -4.9320 C.ar  127  TYR127      0.0417
    104  CE2       46.0140  -58.4640   -3.6900 C.ar  127  TYR127      0.0417
    105  CZ        45.8170  -57.4740   -4.6520 C.ar  127  TYR127      0.1957
    106  OH        44.6410  -57.3870   -5.3270 O.3   127  TYR127     -0.2866
    107  N         47.2600  -61.5730   10.6510 N.3   153  VAL153     -0.1231
    108  CA        47.4110  -62.5740    9.6210 C.3   153  VAL153      0.1692
    109  C         46.8320  -63.8980   10.1130 C.2   153  VAL153      0.2592
    110  O         46.6820  -64.0760   11.3060 O.2   153  VAL153     -0.2718
    111  CB        48.9230  -62.8300    9.3060 C.3   153  VAL153      0.0266
    112  CG1       49.4950  -61.6550    8.5670 C.3   153  VAL153      0.0020
    113  CG2       49.7380  -63.0100   10.5710 C.3   153  VAL153      0.0020
    114  N         46.5600  -64.8350    9.1890 N.am  154  LYS154     -0.1966
    115  CA        46.0000  -66.1730    9.4830 C.3   154  LYS154      0.1728
    116  C         46.9810  -67.1750    8.9090 C.2   154  LYS154      0.2617
    117  O         47.8270  -66.7930    8.1050 O.2   154  LYS154     -0.2715
    118  CB        44.6920  -66.3430    8.7350 C.3   154  LYS154      0.0311
    119  CG        43.6950  -67.3510    9.2910 C.3   154  LYS154      0.0038
    120  CD        42.3440  -66.6510    9.2730 C.3   154  LYS154      0.0206
    121  CE        41.2140  -67.6230    9.5100 C.3   154  LYS154      0.1093
    122  NZ        41.3820  -68.6540    8.4750 N.3   154  LYS154     -0.1314
    123  N         46.8420  -68.4460    9.2580 N.am  155  SER155     -0.1936
    124  CA        47.7600  -69.4470    8.7900 C.3   155  SER155      0.2055
    125  C         47.5070  -69.8000    7.3660 C.2   155  SER155      0.2643
    126  O         48.2520  -70.5920    6.8340 O.2   155  SER155     -0.2714
    127  CB        47.6180  -70.6960    9.6110 C.3   155  SER155      0.2130
    128  OG        47.8210  -70.3640   10.9730 O.3   155  SER155     -0.2179
    129  N         46.4580  -69.2450    6.7440 N.am  156  ASP156     -0.1957
    130  CA        46.2410  -69.4660    5.3160 C.3   156  ASP156      0.1840
    131  C         46.7950  -68.2890    4.5050 C.2   156  ASP156      0.2621
    132  O         46.4540  -68.1400    3.3100 O.2   156  ASP156     -0.2715
    133  CB        44.7680  -69.6490    4.9930 C.3   156  ASP156      0.1450
    134  CG        43.9160  -68.4210    5.3300 C.2   156  ASP156      0.3671
    135  OD1       44.4340  -67.3590    5.8520 O.co2 156  ASP156     -0.2456
    136  OD2       42.6790  -68.5400    5.0620 O.co2 156  ASP156     -0.2456
    137  N         47.6130  -67.4710    5.1810 N.am  157  ALA157     -0.1977
    138  CA        48.2660  -66.2690    4.6320 C.3   157  ALA157      0.1597
    139  C         47.3560  -65.1060    4.3090 C.2   157  ALA157      0.2287
    140  O         47.7360  -64.2150    3.5440 O.2   157  ALA157     -0.2864
    141  CB        49.1460  -66.5830    3.4290 C.3   157  ALA157      0.0319
    142  N         59.9610  -66.0270  -10.4950 N.3   266  HIS266     -0.1241
    143  CA        59.1510  -64.9850  -11.1490 C.3   266  HIS266      0.1621
    144  C         59.8880  -63.6990  -11.3190 C.2   266  HIS266      0.2264
    145  O         60.4730  -63.1830  -10.3840 O.2   266  HIS266     -0.2867
    146  CB        57.7610  -64.8450  -10.4860 C.3   266  HIS266      0.0745
    147  CG        56.9530  -66.1100  -10.6070 C.ar  266  HIS266      0.0817
    148  ND1       56.1910  -66.3840  -11.6970 N.ar  266  HIS266     -0.2268
    149  CD2       56.9120  -67.2540   -9.8010 C.ar  266  HIS266      0.1154
    150  CE1       55.6430  -67.6180  -11.5670 C.ar  266  HIS266      0.1986
    151  NE2       56.0890  -68.1520  -10.4100 N.ar  266  HIS266     -0.2212
    152  N         59.5020  -60.5150  -11.5450 N.3   268  LYS268     -0.1231
    153  CA        59.3240  -59.2440  -10.8570 C.3   268  LYS268      0.1693
    154  C         59.5640  -59.3330   -9.3170 C.2   268  LYS268      0.2591
    155  O         59.7150  -58.3380   -8.6290 O.2   268  LYS268     -0.2718
    156  CB        57.9500  -58.6970  -11.1900 C.3   268  LYS268      0.0285
    157  CG        57.5600  -58.8340  -12.6600 C.3   268  LYS268      0.0035
    158  CD        56.0610  -59.1300  -12.8040 C.3   268  LYS268      0.0206
    159  CE        55.6530  -59.5970  -14.2120 C.3   268  LYS268      0.1093
    160  NZ        56.4700  -60.6890  -14.8460 N.3   268  LYS268     -0.1314
    161  N         59.6750  -60.5460   -8.8140 N.am  269  LEU269     -0.1980
    162  CA        59.8110  -60.8140   -7.4350 C.3   269  LEU269      0.1596
    163  C         61.2730  -61.0100   -7.1010 C.2   269  LEU269      0.2287
    164  O         61.7600  -62.1450   -6.8630 O.2   269  LEU269     -0.2864
    165  CB        59.0210  -62.0820   -7.0980 C.3   269  LEU269      0.0297
    166  CG        57.6450  -61.9220   -6.4370 C.3   269  LEU269      0.0022
    167  CD1       56.9910  -60.5570   -6.7140 C.3   269  LEU269      0.0001
    168  CD2       56.7910  -63.1160   -6.8160 C.3   269  LEU269      0.0001
    169  N         51.8860  -58.3180   -9.4500 N.3   303  VAL303     -0.1231
    170  CA        51.5950  -59.6860   -9.8000 C.3   303  VAL303      0.1692
    171  C         50.2370  -60.2380   -9.2500 C.2   303  VAL303      0.2592
    172  O         49.6720  -61.1820   -9.8160 O.2   303  VAL303     -0.2718
    173  CB        52.7840  -60.6170   -9.4730 C.3   303  VAL303      0.0266
    174  CG1       54.0260  -60.0260  -10.0760 C.3   303  VAL303      0.0020
    175  CG2       53.0020  -60.7290   -7.9650 C.3   303  VAL303      0.0020
    176  N         49.6980  -59.6550   -8.1910 N.am  304  TRP304     -0.1976
    177  CA        48.5140  -60.2300   -7.5400 C.3   304  TRP304      0.1640
    178  C         47.3750  -59.3940   -7.9200 C.2   304  TRP304      0.2290
    179  O         46.2560  -59.6340   -7.5370 O.2   304  TRP304     -0.2864
    180  CB        48.6370  -60.1700   -6.0170 C.3   304  TRP304      0.0576
    181  CG        50.0100  -60.6000   -5.5100 C.ar  304  TRP304      0.0006
    182  CD1       51.0090  -59.8050   -4.9050 C.ar  304  TRP304      0.0946
    183  CD2       50.5780  -61.9570   -5.5850 C.ar  304  TRP304      0.0152
    184  NE1       52.1170  -60.5780   -4.6170 N.ar  304  TRP304     -0.2442
    185  CE2       51.9130  -61.8770   -4.9780 C.ar  304  TRP304      0.0810
    186  CE3       50.0970  -63.1950   -6.0230 C.ar  304  TRP304      0.0012
    187  CZ2       52.7230  -62.9870   -4.8390 C.ar  304  TRP304      0.0191
    188  CZ3       50.9410  -64.3210   -5.9070 C.ar  304  TRP304      0.0001
    189  CH2       52.2330  -64.2130   -5.3410 C.ar  304  TRP304      0.0015
    190  N         44.2370  -57.7120   -8.4170 N.3   306  ASP306     -0.1239
    191  CA        42.8880  -58.1060   -8.8390 C.3   306  ASP306      0.1674
    192  C         41.8540  -56.9850   -8.7380 C.2   306  ASP306      0.2266
    193  O         41.5080  -56.5520   -7.6410 O.2   306  ASP306     -0.2867
    194  CB        42.4080  -59.3850   -8.1340 C.3   306  ASP306      0.1410
    195  CG        40.9820  -59.7890   -8.5580 C.2   306  ASP306      0.3668
    196  OD1       40.2150  -58.9620   -9.1080 O.co2 306  ASP306     -0.2456
    197  OD2       40.6110  -60.9600   -8.3740 O.co2 306  ASP306     -0.2456
    198  N         39.2260  -56.9980   -6.1470 N.3   309  GLU309     -0.1245
    199  CA        39.6790  -56.7660   -4.7680 C.3   309  GLU309      0.1567
    200  C         39.9640  -55.2550   -4.6520 C.2   309  GLU309      0.2260
    201  O         39.4580  -54.5570   -3.7450 O.2   309  GLU309     -0.2867
    202  CB        40.9710  -57.5450   -4.4330 C.3   309  GLU309      0.0388
    203  CG        40.7810  -59.0020   -4.1790 C.3   309  GLU309      0.1160
    204  CD        42.0770  -59.7990   -4.0710 C.2   309  GLU309      0.3649
    205  OE1       43.1480  -59.4050   -4.6300 O.co2 309  GLU309     -0.2457
    206  OE2       42.0330  -60.8910   -3.4380 O.co2 309  GLU309     -0.2457
@<TRIPOS>BOND
     1   160   159    1
     2   159   158    1
     3   158   157    1
     4   157   156    1
     5   148   150   ar
     6   148   147   ar
     7   150   151   ar
     8   152   153    1
     9   144   143    1
    10   144   145    2
    11   156   153    1
    12   143   142    1
    13   143   146    1
    14   153   154    1
    15   147   146    1
    16   147   149   ar
    17   151   149   ar
    18   174   173    1
    19   172   171    2
    20   170   173    1
    21   170   169    1
    22   170   171    1
    23   173   175    1
    24   154   161   am
    25   154   155    2
    26   171   176   am
    27   196   195   ar
    28   191   192    1
    29   191   190    1
    30   191   194    1
    31   161   162    1
    32   192   193    2
    33   195   197   ar
    34   195   194    1
    35   176   177    1
    36   178   177    1
    37   178   179    2
    38   177   180    1
    39   162   163    1
    40   162   165    1
    41   163   164    2
    42   165   166    1
    43   168   166    1
    44   167   166    1
    45   198   199    1
    46   186   188   ar
    47   186   183   ar
    48   180   181    1
    49   188   189   ar
    50    62    61   ar
    51   183   181   ar
    52   183   185   ar
    53   181   182   ar
    54   189   187   ar
    55   106   105    1
    56   185   187   ar
    57   185   184   ar
    58   103   105   ar
    59   103   101   ar
    60   182   184   ar
    61   199   200    1
    62   199   202    1
    63    61    63   ar
    64    61    60    1
    65   105   104   ar
    66   200   201    2
    67   205   204   ar
    68   202   203    1
    69   101   100   ar
    70   203   204    1
    71   204   206   ar
    72   104   102   ar
    73    60    59    1
    74    59    56    1
    75   100   102   ar
    76   100    99    1
    77    56    55    1
    78    56    57    1
    79    99    96    1
    80    81    83   ar
    81    81    80   ar
    82    83    85   ar
    83    96    97    1
    84    96    95    1
    85     9     8    1
    86    58    57    2
    87    57    64   am
    88    75    76    1
    89    76    79    1
    90    76    77    1
    91    79    80    1
    92    80    82   ar
    93    85    86    1
    94    85    84   ar
    95    98    97    2
    96     8     7    1
    97     7     6    1
    98    64    65    1
    99    82    84   ar
   100    78    77    2
   101    77    87   am
   102     6     5    1
   103    65    66    1
   104    65    68    1
   105    87    88    1
   106    66    67    2
   107    74    72    1
   108     5     2    1
   109    69    68    1
   110    69    70    1
   111    89    88    1
   112    89    90    2
   113    72    71    2
   114    72    73    1
   115    71    70    1
   116     1     2    1
   117    88    91    1
   118    50    49    2
   119     2     3    1
   120    49    48    1
   121   132   131    2
   122   141   138    1
   123   140   139    2
   124     3     4    2
   125    91    92    1
   126    92    94    1
   127    92    93    1
   128    51    48    1
   129    51    52    1
   130   139   138    1
   131    48    47    1
   132   131   137   am
   133   131   130    1
   134   138   137    1
   135   133   130    1
   136   133   134    1
   137   136   134   ar
   138   130   129    1
   139   134   135   ar
   140    53    52    1
   141    52    54    1
   142   129   125   am
   143   126   125    2
   144   125   124    1
   145   117   116    2
   146    37    36    1
   147   122   121    1
   148    42    41    2
   149   112   111    1
   150   118   119    1
   151   118   115    1
   152   124   123    1
   153   124   127    1
   154   116   123   am
   155   116   115    1
   156    41    40    1
   157   114   115    1
   158   114   109   am
   159   120   119    1
   160   120   121    1
   161   111   108    1
   162   111   113    1
   163    46    45    1
   164   127   128    1
   165   108   109    1
   166   108   107    1
   167    44    45    1
   168    44    43    1
   169    36    38    1
   170    36    33    1
   171    35    34    2
   172   109   110    2
   173    34    33    1
   174    40    43    1
   175    40    39    1
   176    33    32    1
   177    17    15   ar
   178    32    25   am
   179    15    16   ar
   180    15    14    1
   181    26    25    2
   182    25    24    1
   183    21    20    2
   184    14    11    1
   185    10    11    1
   186    18    19    1
   187    18    12   am
   188    20    19    1
   189    11    12    1
   190    24    23    1
   191    24    27    1
   192    22    19    1
   193    27    28    1
   194    31    29   am
   195    12    13    2
   196    29    30    2
   197    29    28    1
