@<TRIPOS>MOLECULE
tmp/3vupB00.pdb
 128 129 0 0 0
SMALL
GASTEIGER

@<TRIPOS>ATOM
      1  N         45.4100   19.3380    1.9550 N.3    25  TRP25      -0.1241
      2  CA        46.2520   18.2470    2.4260 C.3    25  TRP25       0.1605
      3  C         45.9310   17.0890    1.4870 C.2    25  TRP25       0.2264
      4  O         44.9820   17.1530    0.6990 O.2    25  TRP25      -0.2867
      5  CB        45.9300   17.8450    3.8830 C.3    25  TRP25       0.0550
      6  CG        44.4650   17.6270    4.1150 C.ar   25  TRP25       0.0003
      7  CD1       43.7040   16.5740    3.6790 C.ar   25  TRP25       0.0946
      8  CD2       43.5710   18.5110    4.7990 C.ar   25  TRP25       0.0152
      9  NE1       42.3980   16.7510    4.0550 N.ar   25  TRP25      -0.2442
     10  CE2       42.2910   17.9220    4.7570 C.ar   25  TRP25       0.0810
     11  CE3       43.7380   19.7220    5.4850 C.ar   25  TRP25       0.0012
     12  CZ2       41.1780   18.5170    5.3480 C.ar   25  TRP25       0.0191
     13  CZ3       42.6280   20.3140    6.0670 C.ar   25  TRP25       0.0001
     14  CH2       41.3660   19.7070    5.9980 C.ar   25  TRP25       0.0015
     15  N         48.4630   22.2850    4.5160 N.3    62  TRP62      -0.1241
     16  CA        48.6680   22.2210    5.9540 C.3    62  TRP62       0.1605
     17  C         49.7120   21.1770    6.3300 C.2    62  TRP62       0.2264
     18  O         49.7440   20.0780    5.7750 O.2    62  TRP62      -0.2867
     19  CB        47.3590   21.9230    6.6610 C.3    62  TRP62       0.0550
     20  CG        46.2520   22.9370    6.4940 C.ar   62  TRP62       0.0003
     21  CD1       46.1570   23.9790    5.6050 C.ar   62  TRP62       0.0946
     22  CD2       45.0530   22.9560    7.2580 C.ar   62  TRP62       0.0152
     23  NE1       44.9620   24.6440    5.7860 N.ar   62  TRP62      -0.2442
     24  CE2       44.2620   24.0230    6.7860 C.ar   62  TRP62       0.0810
     25  CE3       44.5640   22.1550    8.2880 C.ar   62  TRP62       0.0012
     26  CZ2       43.0130   24.3140    7.3220 C.ar   62  TRP62       0.0191
     27  CZ3       43.3360   22.4340    8.8110 C.ar   62  TRP62       0.0001
     28  CH2       42.5660   23.5070    8.3330 C.ar   62  TRP62       0.0015
     29  N         46.7990   24.1250   13.3900 N.3   112  ASN112     -0.1240
     30  CA        45.3560   24.2250   13.2220 C.3   112  ASN112      0.1653
     31  C         44.6610   24.2770   14.5720 C.2   112  ASN112      0.2266
     32  O         44.9520   23.4600   15.4420 O.2   112  ASN112     -0.2867
     33  CB        44.8510   23.0070   12.4490 C.3   112  ASN112      0.1155
     34  CG        43.3470   23.0440   12.1860 C.2   112  ASN112      0.2627
     35  OD1       42.7580   24.1200   12.0390 O.2   112  ASN112     -0.2716
     36  ND2       42.7230   21.8640   12.1170 N.am  112  ASN112     -0.0877
     37  N         41.0250   24.7720   14.3610 N.3   114  ALA114     -0.1231
     38  CA        39.6200   24.6820   13.9560 C.3   114  ALA114      0.1694
     39  C         38.9140   23.4150   14.4350 C.2   114  ALA114      0.2591
     40  O         37.6940   23.2990   14.2910 O.2   114  ALA114     -0.2718
     41  CB        39.4770   24.8060   12.4440 C.3   114  ALA114      0.0304
     42  N         39.6760   22.4610   14.9610 N.am  115  VAL115     -0.1980
     43  CA        39.1220   21.2760   15.6130 C.3   115  VAL115      0.1595
     44  C         39.9090   21.0930   16.9170 C.2   115  VAL115      0.2287
     45  O         40.9570   21.6920   17.0910 O.2   115  VAL115     -0.2864
     46  CB        39.2690   19.9990   14.7340 C.3   115  VAL115      0.0276
     47  CG1       38.4550   20.1090   13.4480 C.3   115  VAL115      0.0022
     48  CG2       40.7410   19.6920   14.4330 C.3   115  VAL115      0.0022
     49  N         45.9980   28.0090   11.2710 N.3   161  ASN161     -0.1225
     50  CA        44.6400   28.0570   10.8070 C.3   161  ASN161      0.1785
     51  C         43.6610   28.2870   11.9510 C.2   161  ASN161      0.2597
     52  O         43.5390   27.4510   12.8490 O.2   161  ASN161     -0.2718
     53  CB        44.2670   26.7610   10.1160 C.3   161  ASN161      0.1169
     54  CG        42.9060   26.8500    9.5010 C.2   161  ASN161      0.2627
     55  OD1       42.7150   27.6150    8.5600 O.2   161  ASN161     -0.2716
     56  ND2       41.9310   26.1370   10.0580 N.am  161  ASN161     -0.0877
     57  N         42.9670   29.4190   11.8850 N.am  162  GLU162     -0.1979
     58  CA        41.7900   29.7130   12.7140 C.3   162  GLU162      0.1602
     59  C         42.0110   29.5320   14.2230 C.2   162  GLU162      0.2287
     60  O         41.3430   28.7210   14.8680 O.2   162  GLU162     -0.2864
     61  CB        40.5850   28.9070   12.2210 C.3   162  GLU162      0.0415
     62  CG        40.2890   29.2130   10.7510 C.3   162  GLU162      0.1163
     63  CD        38.9960   28.6280   10.2260 C.2   162  GLU162      0.3649
     64  OE1       38.3710   27.7900   10.9110 O.co2 162  GLU162     -0.2457
     65  OE2       38.6070   29.0180    9.1000 O.co2 162  GLU162     -0.2457
     66  N         34.2770   27.5650   19.0020 N.3   190  TRP190     -0.1241
     67  CA        33.4510   26.4020   18.6670 C.3   190  TRP190      0.1605
     68  C         34.1050   25.0700   19.0120 C.2   190  TRP190      0.2264
     69  O         33.4080   24.1110   19.3390 O.2   190  TRP190     -0.2867
     70  CB        33.0420   26.4160   17.1890 C.3   190  TRP190      0.0550
     71  CG        34.1820   26.2490   16.2360 C.ar  190  TRP190      0.0003
     72  CD1       34.6940   25.0730   15.7730 C.ar  190  TRP190      0.0946
     73  CD2       34.9540   27.2890   15.6330 C.ar  190  TRP190      0.0152
     74  NE1       35.7390   25.3130   14.9180 N.ar  190  TRP190     -0.2442
     75  CE2       35.9180   26.6690   14.8140 C.ar  190  TRP190      0.0810
     76  CE3       34.9230   28.6850   15.7020 C.ar  190  TRP190      0.0012
     77  CZ2       36.8440   27.3990   14.0670 C.ar  190  TRP190      0.0191
     78  CZ3       35.8510   29.4090   14.9650 C.ar  190  TRP190      0.0001
     79  CH2       36.7930   28.7630   14.1540 C.ar  190  TRP190      0.0015
     80  N         32.8730   32.5060    5.0530 N.3   264  TYR264     -0.1241
     81  CA        31.8330   31.5520    4.7200 C.3   264  TYR264      0.1605
     82  C         30.4820   32.1080    5.1460 C.2   264  TYR264      0.2264
     83  O         30.3620   32.6850    6.2340 O.2   264  TYR264     -0.2867
     84  CB        32.0900   30.2450    5.4500 C.3   264  TYR264      0.0534
     85  CG        33.3550   29.5080    5.0630 C.ar  264  TYR264     -0.0201
     86  CD1       33.3770   28.6720    3.9570 C.ar  264  TYR264     -0.0009
     87  CD2       34.5140   29.6260    5.8170 C.ar  264  TYR264     -0.0009
     88  CE1       34.5100   27.9690    3.6190 C.ar  264  TYR264      0.0417
     89  CE2       35.6570   28.9290    5.4870 C.ar  264  TYR264      0.0417
     90  CZ        35.6490   28.0980    4.3830 C.ar  264  TYR264      0.1957
     91  OH        36.7530   27.3670    4.0400 O.3   264  TYR264     -0.2866
     92  N         40.2040   31.4760    2.3480 N.3   293  GLU293     -0.1245
     93  CA        39.3050   30.3260    2.2440 C.3   293  GLU293      0.1567
     94  C         37.9170   30.8310    1.9050 C.2   293  GLU293      0.2260
     95  O         37.4690   31.8300    2.4720 O.2   293  GLU293     -0.2867
     96  CB        39.1550   29.5600    3.5590 C.3   293  GLU293      0.0388
     97  CG        40.3530   28.7810    4.0480 C.3   293  GLU293      0.1160
     98  CD        40.0390   27.9440    5.2860 C.2   293  GLU293      0.3649
     99  OE1       38.8340   27.7470    5.6120 O.co2 293  GLU293     -0.2457
    100  OE2       41.0030   27.4940    5.9460 O.co2 293  GLU293     -0.2457
    101  N         34.1470   28.8730   -0.3700 N.3   295  TRP295     -0.1241
    102  CA        33.6500   27.9470   -1.3780 C.3   295  TRP295      0.1605
    103  C         32.1840   28.1880   -1.6610 C.2   295  TRP295      0.2264
    104  O         31.4810   28.8380   -0.8930 O.2   295  TRP295     -0.2867
    105  CB        33.9160   26.4750   -1.0360 C.3   295  TRP295      0.0550
    106  CG        33.3510   25.9240    0.2340 C.ar  295  TRP295      0.0003
    107  CD1       32.6100   26.5670    1.1850 C.ar  295  TRP295      0.0946
    108  CD2       33.5370   24.5920    0.7040 C.ar  295  TRP295      0.0152
    109  NE1       32.3190   25.7040    2.2160 N.ar  295  TRP295     -0.2442
    110  CE2       32.8750   24.4830    1.9410 C.ar  295  TRP295      0.0810
    111  CE3       34.1890   23.4720    0.1840 C.ar  295  TRP295      0.0012
    112  CZ2       32.8570   23.2990    2.6780 C.ar  295  TRP295      0.0191
    113  CZ3       34.1690   22.2930    0.9150 C.ar  295  TRP295      0.0001
    114  CH2       33.5030   22.2180    2.1480 C.ar  295  TRP295      0.0015
    115  N         38.5090   26.7720   -0.9940 N.3   322  TRP322     -0.1241
    116  CA        38.6990   25.7060   -0.0110 C.3   322  TRP322      0.1605
    117  C         38.5380   24.2880   -0.5750 C.2   322  TRP322      0.2264
    118  O         37.4580   23.9190   -1.0520 O.2   322  TRP322     -0.2867
    119  CB        37.7360   25.9000    1.1720 C.3   322  TRP322      0.0550
    120  CG        37.8370   24.7740    2.1510 C.ar  322  TRP322      0.0003
    121  CD1       36.8950   23.8120    2.3970 C.ar  322  TRP322      0.0946
    122  CD2       38.9690   24.4400    2.9640 C.ar  322  TRP322      0.0152
    123  NE1       37.3660   22.9150    3.3240 N.ar  322  TRP322     -0.2442
    124  CE2       38.6370   23.2760    3.6790 C.ar  322  TRP322      0.0810
    125  CE3       40.2300   25.0200    3.1640 C.ar  322  TRP322      0.0012
    126  CZ2       39.5140   22.6860    4.5840 C.ar  322  TRP322      0.0191
    127  CZ3       41.1000   24.4290    4.0580 C.ar  322  TRP322      0.0001
    128  CH2       40.7370   23.2730    4.7590 C.ar  322  TRP322      0.0015
@<TRIPOS>BOND
     1   103   102    1
     2   103   104    2
     3   102   105    1
     4   102   101    1
     5   118   117    2
     6   105   106    1
     7   115   116    1
     8   117   116    1
     9   116   119    1
    10   111   108   ar
    11   111   113   ar
    12   106   108   ar
    13   106   107   ar
    14     4     3    2
    15   108   110   ar
    16   113   114   ar
    17   119   120    1
    18   107   109   ar
    19     3     2    1
    20    94    93    1
    21    94    95    2
    22   110   109   ar
    23   110   112   ar
    24     1     2    1
    25   114   112   ar
    26   120   121   ar
    27   120   122   ar
    28    93    92    1
    29    93    96    1
    30   121   123   ar
    31     2     5    1
    32   122   125   ar
    33   122   124   ar
    34   125   127   ar
    35   123   124   ar
    36    96    97    1
    37    88    86   ar
    38    88    90   ar
    39     7     9   ar
    40     7     6   ar
    41   124   126   ar
    42     5     6    1
    43    86    85   ar
    44    91    90    1
    45    97    98    1
    46     9    10   ar
    47   127   128   ar
    48     6     8   ar
    49    90    89   ar
    50    15    16    1
    51   126   128   ar
    52    81    80    1
    53    81    82    1
    54    81    84    1
    55    10     8   ar
    56    10    12   ar
    57     8    11   ar
    58    85    84    1
    59    85    87   ar
    60    82    83    2
    61    98    99   ar
    62    98   100   ar
    63    12    14   ar
    64    11    13   ar
    65    89    87   ar
    66    21    23   ar
    67    21    20   ar
    68    18    17    2
    69    23    24   ar
    70    16    17    1
    71    16    19    1
    72    14    13   ar
    73    20    19    1
    74    20    22   ar
    75    24    22   ar
    76    24    26   ar
    77    22    25   ar
    78    26    28   ar
    79    25    27   ar
    80    28    27   ar
    81    55    54    2
    82    65    63   ar
    83    54    56   am
    84    54    53    1
    85    53    50    1
    86    63    62    1
    87    63    64   ar
    88    62    61    1
    89    50    49    1
    90    50    51    1
    91    57    51   am
    92    57    58    1
    93    51    52    2
    94    35    34    2
    95    36    34   am
    96    34    33    1
    97    61    58    1
    98    41    38    1
    99    33    30    1
   100    58    59    1
   101    30    29    1
   102    30    31    1
   103    47    46    1
   104    38    37    1
   105    38    39    1
   106    77    79   ar
   107    77    75   ar
   108    79    78   ar
   109    59    60    2
   110    40    39    2
   111    48    46    1
   112    39    42   am
   113    31    32    2
   114    46    43    1
   115    75    74   ar
   116    75    73   ar
   117    74    72   ar
   118    42    43    1
   119    78    76   ar
   120    43    44    1
   121    73    76   ar
   122    73    71   ar
   123    72    71   ar
   124    71    70    1
   125    44    45    2
   126    70    67    1
   127    67    66    1
   128    67    68    1
   129    68    69    2
