@<TRIPOS>MOLECULE
tmp/3vuzA00.pdb
 198 196 0 0 0
SMALL
GASTEIGER

@<TRIPOS>ATOM
      1  N        -39.3200    0.0740  -30.9700 N.3   115  ILE115     -0.1231
      2  CA       -40.3140   -0.8070  -30.3620 C.3   115  ILE115      0.1692
      3  C        -41.5510    0.0120  -30.0230 C.2   115  ILE115      0.2593
      4  O        -41.4700    1.0080  -29.2950 O.2   115  ILE115     -0.2718
      5  CB       -39.7890   -1.4750  -29.0770 C.3   115  ILE115      0.0266
      6  CG1      -38.5810   -2.3590  -29.3840 C.3   115  ILE115      0.0019
      7  CG2      -40.8890   -2.2890  -28.4010 C.3   115  ILE115      0.0020
      8  CD1      -37.2710   -1.7790  -28.9420 C.3   115  ILE115      0.0001
      9  N        -42.6930   -0.4080  -30.5580 N.am  116  SER116     -0.1938
     10  CA       -43.9220    0.3590  -30.4270 C.3   116  SER116      0.2055
     11  C        -44.3770    0.4640  -28.9780 C.2   116  SER116      0.2644
     12  O        -44.3630   -0.5220  -28.2350 O.2   116  SER116     -0.2714
     13  CB       -45.0220   -0.2430  -31.2990 C.3   116  SER116      0.2130
     14  OG       -44.6830   -0.1260  -32.6700 O.3   116  SER116     -0.2179
     15  N        -44.7640    1.6770  -28.5900 N.am  117  SER117     -0.1935
     16  CA       -45.2190    1.9620  -27.2340 C.3   117  SER117      0.2055
     17  C        -44.1620    1.6530  -26.1850 C.2   117  SER117      0.2643
     18  O        -44.4930    1.3620  -25.0370 O.2   117  SER117     -0.2714
     19  CB       -46.5020    1.1970  -26.9200 C.3   117  SER117      0.2130
     20  OG       -47.4110    1.3120  -27.9970 O.3   117  SER117     -0.2179
     21  N        -42.8940    1.7070  -26.5770 N.am  118  ALA118     -0.1963
     22  CA       -41.8120    1.4960  -25.6210 C.3   118  ALA118      0.1728
     23  C        -41.3470    2.8340  -25.0600 C.2   118  ALA118      0.2617
     24  O        -40.7210    2.8960  -24.0050 O.2   118  ALA118     -0.2715
     25  CB       -40.6570    0.7460  -26.2630 C.3   118  ALA118      0.0334
     26  N        -41.6720    3.9050  -25.7730 N.am  119  GLY119     -0.1940
     27  CA       -41.3640    5.2480  -25.3300 C.3   119  GLY119      0.2014
     28  C        -40.1140    5.7320  -26.0190 C.2   119  GLY119      0.2638
     29  O        -39.9910    5.6500  -27.2430 O.2   119  GLY119     -0.2714
     30  N        -39.1770    6.2400  -25.2270 N.am  120  GLU120     -0.1977
     31  CA       -37.8660    6.5720  -25.7440 C.3   120  GLU120      0.1602
     32  C        -36.9430    5.3590  -25.6530 C.2   120  GLU120      0.2287
     33  O        -37.1260    4.4650  -24.7940 O.2   120  GLU120     -0.2864
     34  CB       -37.2780    7.7570  -24.9850 C.3   120  GLU120      0.0415
     35  CG       -37.7530    9.1050  -25.5000 C.3   120  GLU120      0.1163
     36  CD       -37.2480   10.2600  -24.6630 C.2   120  GLU120      0.3649
     37  OE1      -36.9220   10.0420  -23.4800 O.co2 120  GLU120     -0.2457
     38  OE2      -37.1770   11.3890  -25.1910 O.co2 120  GLU120     -0.2457
     39  N        -25.1310    3.4030  -16.5160 N.3   137  TYR137     -0.1241
     40  CA       -26.3760    3.3300  -15.7940 C.3   137  TYR137      0.1605
     41  C        -26.1210    3.8030  -14.3830 C.2   137  TYR137      0.2264
     42  O        -25.8020    3.0160  -13.4940 O.2   137  TYR137     -0.2867
     43  CB       -26.9360    1.8970  -15.7940 C.3   137  TYR137      0.0534
     44  CG       -28.4380    1.8150  -15.5230 C.ar  137  TYR137     -0.0201
     45  CD1      -29.3190    1.3340  -16.4890 C.ar  137  TYR137     -0.0009
     46  CD2      -28.9730    2.2320  -14.3060 C.ar  137  TYR137     -0.0009
     47  CE1      -30.6850    1.2500  -16.2420 C.ar  137  TYR137      0.0417
     48  CE2      -30.3340    2.1650  -14.0550 C.ar  137  TYR137      0.0417
     49  CZ       -31.1890    1.6700  -15.0240 C.ar  137  TYR137      0.1957
     50  OH       -32.5430    1.5920  -14.7630 O.3   137  TYR137     -0.2866
     51  N        -40.8770    0.8950  -10.1780 N.3   155  ASN155     -0.1225
     52  CA       -39.6850    0.1180  -10.4350 C.3   155  ASN155      0.1785
     53  C        -39.3350   -0.0070  -11.9150 C.2   155  ASN155      0.2598
     54  O        -38.5570   -0.8730  -12.3170 O.2   155  ASN155     -0.2718
     55  CB       -39.8090   -1.2430   -9.7470 C.3   155  ASN155      0.1169
     56  CG       -39.9320   -1.1150   -8.2370 C.2   155  ASN155      0.2627
     57  OD1      -39.5610   -0.0930   -7.6570 O.2   155  ASN155     -0.2716
     58  ND2      -40.4520   -2.1510   -7.5950 N.am  155  ASN155     -0.0877
     59  N        -39.8930    0.8850  -12.7180 N.am  156  GLY156     -0.1942
     60  CA       -39.6500    0.8680  -14.1470 C.3   156  GLY156      0.2014
     61  C        -38.2410    1.2800  -14.5090 C.2   156  GLY156      0.2639
     62  O        -37.8090    1.0860  -15.6450 O.2   156  GLY156     -0.2714
     63  N        -37.5230    1.8440  -13.5390 N.am  157  ASN157     -0.1958
     64  CA       -36.1550    2.3070  -13.7610 C.3   157  ASN157      0.1819
     65  C        -35.1400    1.7360  -12.7760 C.2   157  ASN157      0.2622
     66  O        -34.0160    2.2320  -12.6730 O.2   157  ASN157     -0.2715
     67  CB       -36.1000    3.8330  -13.7470 C.3   157  ASN157      0.1195
     68  CG       -36.5370    4.4430  -15.0650 C.2   157  ASN157      0.2630
     69  OD1      -37.0490    3.7520  -15.9450 O.2   157  ASN157     -0.2716
     70  ND2      -36.3400    5.7480  -15.2070 N.am  157  ASN157     -0.0877
     71  N        -35.5340    0.6950  -12.0530 N.am  158  THR158     -0.1937
     72  CA       -34.6260    0.0710  -11.0920 C.3   158  THR158      0.2028
     73  C        -33.8010   -1.0460  -11.7150 C.2   158  THR158      0.2642
     74  O        -34.3160   -1.8860  -12.4520 O.2   158  THR158     -0.2714
     75  CB       -35.3550   -0.4980   -9.8790 C.3   158  THR158      0.1808
     76  OG1      -36.3460   -1.4370  -10.3170 O.3   158  THR158     -0.2208
     77  CG2      -36.0160    0.6210   -9.0980 C.3   158  THR158      0.0379
     78  N        -32.5120   -1.0350  -11.3980 N.am  159  LEU159     -0.1977
     79  CA       -31.5710   -2.0310  -11.8740 C.3   159  LEU159      0.1596
     80  C        -30.7090   -2.4730  -10.7120 C.2   159  LEU159      0.2287
     81  O        -29.9820   -1.6710  -10.1370 O.2   159  LEU159     -0.2864
     82  CB       -30.6810   -1.4400  -12.9620 C.3   159  LEU159      0.0297
     83  CG       -29.5500   -2.3180  -13.4700 C.3   159  LEU159      0.0022
     84  CD1      -30.1030   -3.6690  -13.9350 C.3   159  LEU159      0.0001
     85  CD2      -28.8750   -1.6050  -14.6150 C.3   159  LEU159      0.0001
     86  N        -36.3820   10.6760  -15.0470 N.3   174  ASN174     -0.1240
     87  CA       -36.5790    9.8510  -16.2390 C.3   174  ASN174      0.1653
     88  C        -36.7650   10.7300  -17.4730 C.2   174  ASN174      0.2266
     89  O        -36.8820   10.2330  -18.5990 O.2   174  ASN174     -0.2867
     90  CB       -37.7560    8.8880  -16.0770 C.3   174  ASN174      0.1155
     91  CG       -37.9290    7.9690  -17.2780 C.2   174  ASN174      0.2627
     92  OD1      -36.9710    7.3480  -17.7460 O.2   174  ASN174     -0.2716
     93  ND2      -39.1490    7.9000  -17.7980 N.am  174  ASN174     -0.0877
     94  N        -27.9040    5.1470  -19.5970 N.3   184  GLY184     -0.1210
     95  CA       -28.1450    3.7160  -19.5680 C.3   184  GLY184      0.1956
     96  C        -29.5970    3.3140  -19.3630 C.2   184  GLY184      0.2612
     97  O        -30.0730    2.3390  -19.9520 O.2   184  GLY184     -0.2717
     98  N        -30.3080    4.0830  -18.5450 N.am  185  HIS185     -0.1961
     99  CA       -31.7110    3.8080  -18.2390 C.3   185  HIS185      0.1787
    100  C        -32.6550    4.0390  -19.4260 C.2   185  HIS185      0.2620
    101  O        -33.8450    3.7790  -19.3210 O.2   185  HIS185     -0.2715
    102  CB       -32.1710    4.6670  -17.0480 C.3   185  HIS185      0.0785
    103  CG       -32.0480    6.1440  -17.2910 C.ar  185  HIS185      0.0821
    104  ND1      -30.8330    6.7990  -17.3070 N.ar  185  HIS185     -0.2267
    105  CD2      -32.9870    7.0870  -17.5490 C.ar  185  HIS185      0.1154
    106  CE1      -31.0330    8.0830  -17.5490 C.ar  185  HIS185      0.1986
    107  NE2      -32.3320    8.2850  -17.6890 N.ar  185  HIS185     -0.2212
    108  N        -32.1430    4.5570  -20.5380 N.am  186  LYS186     -0.1963
    109  CA       -32.9930    4.8030  -21.7050 C.3   186  LYS186      0.1728
    110  C        -33.0110    3.6110  -22.6770 C.2   186  LYS186      0.2616
    111  O        -33.6570    3.6680  -23.7200 O.2   186  LYS186     -0.2715
    112  CB       -32.5850    6.0980  -22.4210 C.3   186  LYS186      0.0311
    113  CG       -33.0420    7.3790  -21.6860 C.3   186  LYS186      0.0038
    114  CD       -34.5450    7.5650  -21.8360 C.3   186  LYS186      0.0206
    115  CE       -35.0990    8.5800  -20.8660 C.3   186  LYS186      0.1093
    116  NZ       -36.5660    8.7450  -21.1010 N.3   186  LYS186     -0.1314
    117  N        -32.3040    2.5370  -22.3250 N.am  187  ALA187     -0.1963
    118  CA       -32.2870    1.3380  -23.1490 C.3   187  ALA187      0.1728
    119  C        -33.4820    0.4400  -22.8470 C.2   187  ALA187      0.2616
    120  O        -33.7060    0.0520  -21.6980 O.2   187  ALA187     -0.2715
    121  CB       -30.9760    0.5760  -22.9810 C.3   187  ALA187      0.0334
    122  N        -34.2520    0.1350  -23.8880 N.am  188  ASN188     -0.1958
    123  CA       -35.4290   -0.7180  -23.7640 C.3   188  ASN188      0.1819
    124  C        -35.0990   -2.2040  -23.7870 C.2   188  ASN188      0.2621
    125  O        -33.9560   -2.5820  -24.0350 O.2   188  ASN188     -0.2715
    126  CB       -36.4340   -0.3950  -24.8590 C.3   188  ASN188      0.1195
    127  CG       -37.0670    0.9610  -24.6700 C.2   188  ASN188      0.2630
    128  OD1      -37.5160    1.3080  -23.5740 O.2   188  ASN188     -0.2716
    129  ND2      -37.0900    1.7480  -25.7340 N.am  188  ASN188     -0.0877
    130  N        -36.1030   -3.0440  -23.5360 N.am  189  HIS189     -0.1973
    131  CA       -35.8780   -4.4870  -23.3990 C.3   189  HIS189      0.1656
    132  C        -36.1150   -5.3260  -24.6580 C.2   189  HIS189      0.2291
    133  O        -37.1430   -5.2060  -25.3060 O.2   189  HIS189     -0.2864
    134  CB       -36.7320   -5.0710  -22.2750 C.3   189  HIS189      0.0771
    135  CG       -36.8430   -6.5620  -22.3330 C.ar  189  HIS189      0.0820
    136  ND1      -35.8150   -7.4000  -21.9570 N.ar  189  HIS189     -0.2267
    137  CD2      -37.8480   -7.3670  -22.7550 C.ar  189  HIS189      0.1154
    138  CE1      -36.1880   -8.6550  -22.1300 C.ar  189  HIS189      0.1986
    139  NE2      -37.4170   -8.6630  -22.6140 N.ar  189  HIS189     -0.2212
    140  N        -26.0480   -5.5250  -19.5420 N.3   197  TYR197     -0.1241
    141  CA       -25.5750   -4.7760  -18.3980 C.3   197  TYR197      0.1605
    142  C        -24.2840   -5.4250  -17.9360 C.2   197  TYR197      0.2264
    143  O        -24.1380   -6.6390  -18.0170 O.2   197  TYR197     -0.2867
    144  CB       -26.5990   -4.8700  -17.2930 C.3   197  TYR197      0.0534
    145  CG       -27.9080   -4.2180  -17.6400 C.ar  197  TYR197     -0.0201
    146  CD1      -27.9540   -2.9050  -18.0800 C.ar  197  TYR197     -0.0009
    147  CD2      -29.1020   -4.9160  -17.5280 C.ar  197  TYR197     -0.0009
    148  CE1      -29.1530   -2.3000  -18.3840 C.ar  197  TYR197      0.0417
    149  CE2      -30.2980   -4.3210  -17.8360 C.ar  197  TYR197      0.0417
    150  CZ       -30.3200   -3.0150  -18.2590 C.ar  197  TYR197      0.1957
    151  OH       -31.5190   -2.4280  -18.5610 O.3   197  TYR197     -0.2866
    152  N        -33.7010   -7.3140  -19.6520 N.3   227  TYR227     -0.1241
    153  CA       -33.8940   -6.7930  -18.3080 C.3   227  TYR227      0.1605
    154  C        -33.7210   -7.8820  -17.2540 C.2   227  TYR227      0.2264
    155  O        -33.2480   -7.6150  -16.1530 O.2   227  TYR227     -0.2867
    156  CB       -35.2700   -6.1400  -18.1740 C.3   227  TYR227      0.0534
    157  CG       -35.4100   -4.8040  -18.8770 C.ar  227  TYR227     -0.0201
    158  CD1      -34.3880   -4.2950  -19.6600 C.ar  227  TYR227     -0.0009
    159  CD2      -36.5680   -4.0540  -18.7450 C.ar  227  TYR227     -0.0009
    160  CE1      -34.5220   -3.0790  -20.3020 C.ar  227  TYR227      0.0417
    161  CE2      -36.7070   -2.8430  -19.3730 C.ar  227  TYR227      0.0417
    162  CZ       -35.6820   -2.3580  -20.1480 C.ar  227  TYR227      0.1957
    163  OH       -35.8230   -1.1450  -20.7630 O.3   227  TYR227     -0.2866
    164  N        -35.9650  -10.1550  -15.5700 N.3   229  TYR229     -0.1241
    165  CA       -36.8600  -10.3730  -14.4480 C.3   229  TYR229      0.1605
    166  C        -37.0050  -11.8610  -14.1930 C.2   229  TYR229      0.2264
    167  O        -36.7340  -12.6710  -15.0760 O.2   229  TYR229     -0.2867
    168  CB       -38.2120   -9.7560  -14.7610 C.3   229  TYR229      0.0534
    169  CG       -38.1270   -8.2630  -14.9250 C.ar  229  TYR229     -0.0201
    170  CD1      -38.8290   -7.6090  -15.9310 C.ar  229  TYR229     -0.0009
    171  CD2      -37.3430   -7.5040  -14.0660 C.ar  229  TYR229     -0.0009
    172  CE1      -38.7520   -6.2330  -16.0740 C.ar  229  TYR229      0.0417
    173  CE2      -37.2650   -6.1350  -14.2000 C.ar  229  TYR229      0.0417
    174  CZ       -37.9660   -5.5010  -15.2030 C.ar  229  TYR229      0.1957
    175  OH       -37.8720   -4.1310  -15.3350 O.3   229  TYR229     -0.2866
    176  N        -46.3660   -5.3390  -19.5590 N.3   236  TRP236     -0.1241
    177  CA       -45.8290   -5.2930  -20.9150 C.3   236  TRP236      0.1605
    178  C        -44.7310   -6.3370  -21.1140 C.2   236  TRP236      0.2264
    179  O        -44.5720   -6.8840  -22.2030 O.2   236  TRP236     -0.2867
    180  CB       -45.2810   -3.8910  -21.2160 C.3   236  TRP236      0.0550
    181  CG       -44.1580   -3.4830  -20.2940 C.ar  236  TRP236      0.0003
    182  CD1      -44.2710   -2.8340  -19.0990 C.ar  236  TRP236      0.0946
    183  CD2      -42.7570   -3.7160  -20.4900 C.ar  236  TRP236      0.0152
    184  NE1      -43.0290   -2.6460  -18.5400 N.ar  236  TRP236     -0.2442
    185  CE2      -42.0840   -3.1800  -19.3730 C.ar  236  TRP236      0.0810
    186  CE3      -42.0080   -4.3250  -21.5010 C.ar  236  TRP236      0.0012
    187  CZ2      -40.7030   -3.2320  -19.2420 C.ar  236  TRP236      0.0191
    188  CZ3      -40.6390   -4.3820  -21.3660 C.ar  236  TRP236      0.0001
    189  CH2      -39.9990   -3.8360  -20.2470 C.ar  236  TRP236      0.0015
    190  N        -44.9170   -9.2830  -23.4500 N.3   240  GLU240     -0.1245
    191  CA       -43.9240   -9.4520  -24.5000 C.3   240  GLU240      0.1567
    192  C        -43.2940  -10.8440  -24.3920 C.2   240  GLU240      0.2260
    193  O        -42.9860  -11.4750  -25.4030 O.2   240  GLU240     -0.2867
    194  CB       -42.8680   -8.3410  -24.4540 C.3   240  GLU240      0.0388
    195  CG       -41.6990   -8.5110  -25.4370 C.3   240  GLU240      0.1160
    196  CD       -42.1210   -9.0090  -26.8190 C.2   240  GLU240      0.3649
    197  OE1      -43.0870   -8.4580  -27.4030 O.co2 240  GLU240     -0.2457
    198  OE2      -41.4780   -9.9600  -27.3210 O.co2 240  GLU240     -0.2457
@<TRIPOS>BOND
     1    14    13    1
     2    13    10    1
     3     1     2    1
     4     9    10    1
     5     9     3   am
     6    10    11    1
     7     2     3    1
     8     2     5    1
     9     3     4    2
    10     6     5    1
    11     6     8    1
    12     5     7    1
    13    11    15   am
    14    11    12    2
    15    15    16    1
    16    20    19    1
    17   197   196   ar
    18   198   196   ar
    19    29    28    2
    20    16    19    1
    21    16    17    1
    22   196   195    1
    23    21    17   am
    24    21    22    1
    25    25    22    1
    26    17    18    2
    27    28    27    1
    28    28    30   am
    29    26    27    1
    30    26    23   am
    31    31    32    1
    32    31    30    1
    33    31    34    1
    34   129   127   am
    35    32    33    2
    36    22    23    1
    37    35    34    1
    38    35    36    1
    39   195   194    1
    40   193   192    2
    41   133   132    2
    42    38    36   ar
    43    23    24    2
    44   126   127    1
    45   126   123    1
    46   127   128    2
    47    36    37   ar
    48   132   131    1
    49   191   194    1
    50   191   192    1
    51   191   190    1
    52   125   124    2
    53   122   123    1
    54   122   119   am
    55   124   123    1
    56   124   130   am
    57   111   110    2
    58   130   131    1
    59   131   134    1
    60   118   121    1
    61   118   119    1
    62   118   117    1
    63   119   120    2
    64   137   139   ar
    65   137   135   ar
    66   110   117   am
    67   110   109    1
    68   139   138   ar
    69   112   109    1
    70   112   113    1
    71   135   134    1
    72   135   136   ar
    73   179   178    2
    74   138   136   ar
    75   114   113    1
    76   114   115    1
    77   109   108    1
    78   186   188   ar
    79   186   183   ar
    80   188   189   ar
    81   180   177    1
    82   180   181    1
    83   178   177    1
    84   116   115    1
    85   177   176    1
    86   163   162    1
    87   108   100   am
    88   183   181   ar
    89   183   185   ar
    90   160   162   ar
    91   160   158   ar
    92   181   182   ar
    93   189   187   ar
    94   162   161   ar
    95    97    96    2
    96   158   157   ar
    97   152   153    1
    98    94    95    1
    99    95    96    1
   100   140   141    1
   101   100   101    2
   102   100    99    1
   103   185   187   ar
   104   185   184   ar
   105   161   159   ar
   106    96    98   am
   107   182   184   ar
   108   157   159   ar
   109   157   156    1
   110    89    88    2
   111   151   150    1
   112    98    99    1
   113   141   142    1
   114   141   144    1
   115   148   150   ar
   116   148   146   ar
   117   153   156    1
   118   153   154    1
   119   150   149   ar
   120    99   102    1
   121   146   145   ar
   122   143   142    2
   123   149   147   ar
   124    93    91   am
   125    92    91    2
   126   107   105   ar
   127   107   106   ar
   128   145   147   ar
   129   145   144    1
   130   105   103   ar
   131   106   104   ar
   132    88    87    1
   133   104   103   ar
   134   103   102    1
   135    91    90    1
   136   154   155    2
   137    39    40    1
   138    45    47   ar
   139    45    44   ar
   140    47    49   ar
   141    87    90    1
   142    87    86    1
   143   172   170   ar
   144   172   174   ar
   145    69    68    2
   146   170   169   ar
   147    43    40    1
   148    43    44    1
   149    40    41    1
   150    62    61    2
   151   164   165    1
   152    44    46   ar
   153   175   174    1
   154    70    68   am
   155   174   173   ar
   156   167   166    2
   157    68    67    1
   158    49    50    1
   159    49    48   ar
   160   169   168    1
   161   169   171   ar
   162   168   165    1
   163    85    83    1
   164    61    60    1
   165    61    63   am
   166   165   166    1
   167    41    42    2
   168    46    48   ar
   169   173   171   ar
   170    60    59    1
   171    84    83    1
   172    64    67    1
   173    64    63    1
   174    64    65    1
   175    83    82    1
   176    82    79    1
   177    65    66    2
   178    65    71   am
   179    59    53   am
   180    74    73    2
   181    54    53    2
   182    71    72    1
   183    53    52    1
   184    79    78    1
   185    79    80    1
   186    73    78   am
   187    73    72    1
   188    72    75    1
   189    80    81    2
   190    52    51    1
   191    52    55    1
   192    76    75    1
   193    75    77    1
   194    55    56    1
   195    56    57    2
   196    56    58   am
