@<TRIPOS>MOLECULE
tmp/3vv0A00.pdb
 192 190 0 0 0
SMALL
GASTEIGER

@<TRIPOS>ATOM
      1  N        -39.3790   -0.0900  -31.1700 N.3   108  ILE108     -0.1231
      2  CA       -40.3770   -0.9760  -30.5800 C.3   108  ILE108      0.1692
      3  C        -41.6560   -0.1850  -30.3290 C.2   108  ILE108      0.2593
      4  O        -41.6370    0.8410  -29.6290 O.2   108  ILE108     -0.2718
      5  CB       -39.9030   -1.5790  -29.2450 C.3   108  ILE108      0.0266
      6  CG1      -38.5180   -2.2130  -29.3950 C.3   108  ILE108      0.0019
      7  CG2      -40.9230   -2.5930  -28.7310 C.3   108  ILE108      0.0020
      8  CD1      -37.8680   -2.5890  -28.0650 C.3   108  ILE108      0.0001
      9  N        -42.7640   -0.6680  -30.8910 N.am  109  SER109     -0.1938
     10  CA       -44.0410    0.0420  -30.8150 C.3   109  SER109      0.2055
     11  C        -44.5230    0.2050  -29.3750 C.2   109  SER109      0.2644
     12  O        -44.4600   -0.7400  -28.5850 O.2   109  SER109     -0.2714
     13  CB       -45.1080   -0.6760  -31.6440 C.3   109  SER109      0.2130
     14  OG       -46.3370    0.0220  -31.5870 O.3   109  SER109     -0.2179
     15  N        -44.9910    1.4080  -29.0470 N.am  110  SER110     -0.1935
     16  CA       -45.5210    1.7110  -27.7190 C.3   110  SER110      0.2055
     17  C        -44.5050    1.4210  -26.6160 C.2   110  SER110      0.2643
     18  O        -44.8630    0.9240  -25.5460 O.2   110  SER110     -0.2714
     19  CB       -46.8140    0.9340  -27.4680 C.3   110  SER110      0.2130
     20  OG       -47.7220    1.1190  -28.5400 O.3   110  SER110     -0.2179
     21  N        -43.2390    1.7230  -26.8840 N.am  111  ALA111     -0.1963
     22  CA       -42.1800    1.4570  -25.9200 C.3   111  ALA111      0.1728
     23  C        -41.5590    2.7440  -25.3930 C.2   111  ALA111      0.2617
     24  O        -40.7810    2.7110  -24.4430 O.2   111  ALA111     -0.2715
     25  CB       -41.1160    0.5620  -26.5260 C.3   111  ALA111      0.0334
     26  N        -41.9030    3.8700  -26.0150 N.am  112  GLY112     -0.1940
     27  CA       -41.4020    5.1690  -25.5860 C.3   112  GLY112      0.2014
     28  C        -40.0730    5.5270  -26.2310 C.2   112  GLY112      0.2638
     29  O        -39.8630    5.3000  -27.4270 O.2   112  GLY112     -0.2714
     30  N        -39.1690    6.0970  -25.4450 N.am  113  GLU113     -0.1977
     31  CA       -37.8390    6.3960  -25.9480 C.3   113  GLU113      0.1602
     32  C        -36.9490    5.1640  -25.9100 C.2   113  GLU113      0.2287
     33  O        -37.1920    4.2250  -25.1450 O.2   113  GLU113     -0.2864
     34  CB       -37.2050    7.5410  -25.1520 C.3   113  GLU113      0.0415
     35  CG       -37.9520    8.8290  -25.3420 C.3   113  GLU113      0.1163
     36  CD       -37.3220    9.9900  -24.6270 C.2   113  GLU113      0.3649
     37  OE1      -36.6080    9.7710  -23.6230 O.co2 113  GLU113     -0.2457
     38  OE2      -37.5570   11.1310  -25.0670 O.co2 113  GLU113     -0.2457
     39  N        -25.1440    3.2620  -16.6660 N.3   130  TYR130     -0.1241
     40  CA       -26.3920    3.1960  -15.9410 C.3   130  TYR130      0.1605
     41  C        -26.1140    3.6490  -14.5190 C.2   130  TYR130      0.2264
     42  O        -25.8890    2.8200  -13.6320 O.2   130  TYR130     -0.2867
     43  CB       -26.9340    1.7590  -15.9440 C.3   130  TYR130      0.0534
     44  CG       -28.4300    1.6510  -15.7300 C.ar  130  TYR130     -0.0201
     45  CD1      -29.2380    1.0060  -16.6580 C.ar  130  TYR130     -0.0009
     46  CD2      -29.0380    2.1900  -14.6090 C.ar  130  TYR130     -0.0009
     47  CE1      -30.6160    0.8830  -16.4670 C.ar  130  TYR130      0.0417
     48  CE2      -30.4230    2.0780  -14.4130 C.ar  130  TYR130      0.0417
     49  CZ       -31.1990    1.4210  -15.3480 C.ar  130  TYR130      0.1957
     50  OH       -32.5610    1.3100  -15.1650 O.3   130  TYR130     -0.2866
     51  N        -39.8950    0.8700  -12.8460 N.3   149  GLY149     -0.1210
     52  CA       -39.6070    0.8340  -14.2690 C.3   149  GLY149      0.1956
     53  C        -38.1260    1.0070  -14.5540 C.2   149  GLY149      0.2612
     54  O        -37.6300    0.5120  -15.5670 O.2   149  GLY149     -0.2717
     55  N        -37.4160    1.6910  -13.6560 N.am  150  ASN150     -0.1960
     56  CA       -35.9970    2.0150  -13.8740 C.3   150  ASN150      0.1819
     57  C        -35.0030    1.3860  -12.8860 C.2   150  ASN150      0.2622
     58  O        -33.8300    1.7650  -12.8600 O.2   150  ASN150     -0.2715
     59  CB       -35.7990    3.5370  -13.9020 C.3   150  ASN150      0.1195
     60  CG       -36.1030    4.1340  -15.2540 C.2   150  ASN150      0.2630
     61  OD1      -35.8850    3.5000  -16.2800 O.2   150  ASN150     -0.2716
     62  ND2      -36.5790    5.3680  -15.2660 N.am  150  ASN150     -0.0877
     63  N        -35.4640    0.4230  -12.0900 N.am  151  THR151     -0.1937
     64  CA       -34.6050   -0.2320  -11.1000 C.3   151  THR151      0.2028
     65  C        -33.7210   -1.3420  -11.6820 C.2   151  THR151      0.2642
     66  O        -34.2010   -2.2550  -12.3730 O.2   151  THR151     -0.2714
     67  CB       -35.4240   -0.8010   -9.9410 C.3   151  THR151      0.1808
     68  OG1      -36.4370   -1.6660  -10.4650 O.3   151  THR151     -0.2208
     69  CG2      -36.0790    0.3390   -9.1570 C.3   151  THR151      0.0379
     70  N        -32.4280   -1.2650  -11.3710 N.am  152  LEU152     -0.1963
     71  CA       -31.4540   -2.2560  -11.8230 C.3   152  LEU152      0.1728
     72  C        -30.5650   -2.6670  -10.6560 C.2   152  LEU152      0.2616
     73  O        -29.8590   -1.8270  -10.0780 O.2   152  LEU152     -0.2715
     74  CB       -30.5860   -1.6740  -12.9440 C.3   152  LEU152      0.0311
     75  CG       -29.4400   -2.5430  -13.4630 C.3   152  LEU152      0.0022
     76  CD1      -29.9770   -3.8460  -14.0260 C.3   152  LEU152      0.0001
     77  CD2      -28.6450   -1.8000  -14.5090 C.3   152  LEU152      0.0001
     78  N        -30.6020   -3.9490  -10.3070 N.am  153  SER153     -0.1950
     79  CA       -29.7670   -4.4780   -9.2280 C.3   153  SER153      0.1924
     80  C        -28.2810   -4.2720   -9.5260 C.2   153  SER153      0.2314
     81  O        -27.8160   -4.5700  -10.6310 O.2   153  SER153     -0.2863
     82  CB       -30.0600   -5.9650   -9.0160 C.3   153  SER153      0.2116
     83  OG       -29.1930   -6.5150   -8.0400 O.3   153  SER153     -0.2180
     84  N        -36.1750   10.3400  -15.0510 N.3   167  ASN167     -0.1240
     85  CA       -36.3680    9.4550  -16.2070 C.3   167  ASN167      0.1653
     86  C        -36.6190   10.2470  -17.4900 C.2   167  ASN167      0.2266
     87  O        -36.8010    9.6770  -18.5680 O.2   167  ASN167     -0.2867
     88  CB       -37.5050    8.4550  -15.9630 C.3   167  ASN167      0.1155
     89  CG       -38.8320    9.1340  -15.6880 C.2   167  ASN167      0.2627
     90  OD1      -38.9260   10.0240  -14.8370 O.2   167  ASN167     -0.2716
     91  ND2      -39.8700    8.7170  -16.4100 N.am  167  ASN167     -0.0877
     92  N        -30.4290    3.9140  -18.7200 N.3   178  HIS178     -0.1226
     93  CA       -31.8150    3.5980  -18.3660 C.3   178  HIS178      0.1752
     94  C        -32.7800    3.8210  -19.5360 C.2   178  HIS178      0.2596
     95  O        -33.9950    3.6240  -19.3910 O.2   178  HIS178     -0.2718
     96  CB       -32.2630    4.4590  -17.1830 C.3   178  HIS178      0.0759
     97  CG       -32.1270    5.9260  -17.4450 C.ar  178  HIS178      0.0818
     98  ND1      -30.9020    6.5450  -17.5580 N.ar  178  HIS178     -0.2268
     99  CD2      -33.0590    6.8860  -17.6560 C.ar  178  HIS178      0.1154
    100  CE1      -31.0850    7.8360  -17.8010 C.ar  178  HIS178      0.1986
    101  NE2      -32.3820    8.0680  -17.8670 N.ar  178  HIS178     -0.2212
    102  N        -32.2570    4.2440  -20.6820 N.am  179  LYS179     -0.1966
    103  CA       -33.1060    4.4520  -21.8640 C.3   179  LYS179      0.1728
    104  C        -33.0970    3.2400  -22.8100 C.2   179  LYS179      0.2616
    105  O        -33.8810    3.1790  -23.7680 O.2   179  LYS179     -0.2715
    106  CB       -32.7130    5.7430  -22.5950 C.3   179  LYS179      0.0311
    107  CG       -33.1120    7.0400  -21.8330 C.3   179  LYS179      0.0038
    108  CD       -34.6250    7.2990  -21.9460 C.3   179  LYS179      0.0206
    109  CE       -35.0800    8.4020  -20.9830 C.3   179  LYS179      0.1093
    110  NZ       -36.5760    8.5580  -21.0140 N.3   179  LYS179     -0.1314
    111  N        -32.2380    2.2640  -22.5250 N.am  180  ALA180     -0.1963
    112  CA       -32.1900    1.0550  -23.3480 C.3   180  ALA180      0.1728
    113  C        -33.4260    0.2040  -23.0830 C.2   180  ALA180      0.2616
    114  O        -33.7140   -0.1390  -21.9280 O.2   180  ALA180     -0.2715
    115  CB       -30.9170    0.2560  -23.0800 C.3   180  ALA180      0.0334
    116  N        -34.1640   -0.1080  -24.1480 N.am  181  ASN181     -0.1958
    117  CA       -35.3620   -0.9410  -24.0420 C.3   181  ASN181      0.1819
    118  C        -35.0230   -2.4390  -24.0220 C.2   181  ASN181      0.2621
    119  O        -33.8670   -2.8340  -24.2240 O.2   181  ASN181     -0.2715
    120  CB       -36.3410   -0.6400  -25.1850 C.3   181  ASN181      0.1195
    121  CG       -37.1770    0.6190  -24.9390 C.2   181  ASN181      0.2630
    122  OD1      -37.5770    0.9140  -23.8130 O.2   181  ASN181     -0.2716
    123  ND2      -37.4500    1.3540  -25.9990 N.am  181  ASN181     -0.0877
    124  N        -36.0410   -3.2650  -23.7920 N.am  182  HIS182     -0.1973
    125  CA       -35.8620   -4.7130  -23.6750 C.3   182  HIS182      0.1656
    126  C        -35.9880   -5.4550  -25.0140 C.2   182  HIS182      0.2291
    127  O        -36.7580   -5.0410  -25.8750 O.2   182  HIS182     -0.2864
    128  CB       -36.8920   -5.2890  -22.6970 C.3   182  HIS182      0.0771
    129  CG       -37.0130   -6.7800  -22.7630 C.ar  182  HIS182      0.0820
    130  ND1      -36.1610   -7.6250  -22.0870 N.ar  182  HIS182     -0.2267
    131  CD2      -37.8810   -7.5780  -23.4360 C.ar  182  HIS182      0.1154
    132  CE1      -36.5010   -8.8790  -22.3320 C.ar  182  HIS182      0.1986
    133  NE2      -37.5390   -8.8780  -23.1500 N.ar  182  HIS182     -0.2212
    134  N        -26.1630   -5.6510  -19.6970 N.3   190  TYR190     -0.1241
    135  CA       -25.6880   -4.8260  -18.5880 C.3   190  TYR190      0.1605
    136  C        -24.4130   -5.4590  -18.0620 C.2   190  TYR190      0.2264
    137  O        -24.3400   -6.6690  -17.9520 O.2   190  TYR190     -0.2867
    138  CB       -26.7050   -4.8540  -17.4530 C.3   190  TYR190      0.0534
    139  CG       -28.0180   -4.2190  -17.7930 C.ar  190  TYR190     -0.0201
    140  CD1      -28.0730   -2.9430  -18.3260 C.ar  190  TYR190     -0.0009
    141  CD2      -29.2090   -4.8950  -17.5780 C.ar  190  TYR190     -0.0009
    142  CE1      -29.2850   -2.3480  -18.6340 C.ar  190  TYR190      0.0417
    143  CE2      -30.4220   -4.3090  -17.8840 C.ar  190  TYR190      0.0417
    144  CZ       -30.4530   -3.0330  -18.4040 C.ar  190  TYR190      0.1957
    145  OH       -31.6610   -2.4470  -18.7100 O.3   190  TYR190     -0.2866
    146  N        -34.0530   -7.7820  -20.1910 N.3   220  TYR220     -0.1241
    147  CA       -34.3120   -7.3180  -18.8290 C.3   220  TYR220      0.1605
    148  C        -34.2780   -8.4690  -17.8170 C.2   220  TYR220      0.2264
    149  O        -33.9980   -8.2590  -16.6370 O.2   220  TYR220     -0.2867
    150  CB       -35.6530   -6.5760  -18.7420 C.3   220  TYR220      0.0534
    151  CG       -35.6620   -5.1570  -19.3090 C.ar  220  TYR220     -0.0201
    152  CD1      -34.5610   -4.6270  -19.9710 C.ar  220  TYR220     -0.0009
    153  CD2      -36.7870   -4.3520  -19.1800 C.ar  220  TYR220     -0.0009
    154  CE1      -34.5920   -3.3280  -20.4890 C.ar  220  TYR220      0.0417
    155  CE2      -36.8210   -3.0650  -19.6890 C.ar  220  TYR220      0.0417
    156  CZ       -35.7220   -2.5610  -20.3390 C.ar  220  TYR220      0.1957
    157  OH       -35.7700   -1.2840  -20.8450 O.3   220  TYR220     -0.2866
    158  N        -36.6210  -10.6880  -16.3690 N.3   222  TYR222     -0.1241
    159  CA       -37.5570  -10.8360  -15.2680 C.3   222  TYR222      0.1605
    160  C        -37.8420  -12.3130  -15.0000 C.2   222  TYR222      0.2264
    161  O        -36.9310  -13.0920  -14.7060 O.2   222  TYR222     -0.2867
    162  CB       -38.8550  -10.0870  -15.5730 C.3   222  TYR222      0.0534
    163  CG       -38.6950   -8.5830  -15.5680 C.ar  222  TYR222     -0.0201
    164  CD1      -39.1840   -7.8090  -16.6060 C.ar  222  TYR222     -0.0009
    165  CD2      -38.0590   -7.9370  -14.5190 C.ar  222  TYR222     -0.0009
    166  CE1      -39.0410   -6.4310  -16.6040 C.ar  222  TYR222      0.0417
    167  CE2      -37.9100   -6.5620  -14.5120 C.ar  222  TYR222      0.0417
    168  CZ       -38.4020   -5.8140  -15.5550 C.ar  222  TYR222      0.1957
    169  OH       -38.2530   -4.4430  -15.5430 O.3   222  TYR222     -0.2866
    170  N        -46.5490   -5.3490  -20.6630 N.3   225  TRP225     -0.1241
    171  CA       -45.8700   -5.2270  -21.9560 C.3   225  TRP225      0.1605
    172  C        -44.8650   -6.3440  -22.2320 C.2   225  TRP225      0.2264
    173  O        -44.6740   -6.7600  -23.3760 O.2   225  TRP225     -0.2867
    174  CB       -45.1610   -3.8680  -22.0340 C.3   225  TRP225      0.0550
    175  CG       -44.0930   -3.6850  -20.9830 C.ar  225  TRP225      0.0003
    176  CD1      -44.2440   -3.1150  -19.7510 C.ar  225  TRP225      0.0946
    177  CD2      -42.7150   -4.0800  -21.0740 C.ar  225  TRP225      0.0152
    178  NE1      -43.0480   -3.1290  -19.0730 N.ar  225  TRP225     -0.2442
    179  CE2      -42.0940   -3.7160  -19.8630 C.ar  225  TRP225      0.0810
    180  CE3      -41.9460   -4.7000  -22.0620 C.ar  225  TRP225      0.0012
    181  CZ2      -40.7440   -3.9580  -19.6150 C.ar  225  TRP225      0.0191
    182  CZ3      -40.6070   -4.9370  -21.8120 C.ar  225  TRP225      0.0001
    183  CH2      -40.0200   -4.5660  -20.6020 C.ar  225  TRP225      0.0015
    184  N        -44.9250   -9.4080  -25.0880 N.3   229  GLU229     -0.1245
    185  CA       -43.8050   -9.5410  -26.0110 C.3   229  GLU229      0.1567
    186  C        -43.2260  -10.9520  -25.9430 C.2   229  GLU229      0.2260
    187  O        -42.7960  -11.5090  -26.9590 O.2   229  GLU229     -0.2867
    188  CB       -42.7310   -8.5100  -25.6860 C.3   229  GLU229      0.0388
    189  CG       -41.6930   -8.3250  -26.7780 C.3   229  GLU229      0.1160
    190  CD       -41.3440   -6.8620  -26.9790 C.2   229  GLU229      0.3649
    191  OE1      -41.9660   -6.0180  -26.2990 O.co2 229  GLU229     -0.2457
    192  OE2      -40.4670   -6.5490  -27.8150 O.co2 229  GLU229     -0.2457
@<TRIPOS>BOND
     1    13    14    1
     2    13    10    1
     3     1     2    1
     4     9    10    1
     5     9     3   am
     6    10    11    1
     7     2     3    1
     8     2     5    1
     9     3     4    2
    10     6     5    1
    11     6     8    1
    12    11    15   am
    13    11    12    2
    14     5     7    1
    15    15    16    1
    16    20    19    1
    17   192   190   ar
    18    16    19    1
    19    16    17    1
    20    29    28    2
    21   190   189    1
    22   190   191   ar
    23   187   186    2
    24    21    17   am
    25    21    22    1
    26   189   188    1
    27    17    18    2
    28    25    22    1
    29    28    27    1
    30    28    30   am
    31    26    27    1
    32    26    23   am
    33   185   186    1
    34   185   188    1
    35   185   184    1
    36   123   121   am
    37    31    32    1
    38    31    30    1
    39    31    34    1
    40    22    23    1
    41    32    33    2
    42   127   126    2
    43    23    24    2
    44    35    34    1
    45    35    36    1
    46   120   121    1
    47   120   117    1
    48    38    36   ar
    49   126   125    1
    50   121   122    2
    51    36    37   ar
    52   119   118    2
    53   116   117    1
    54   116   113   am
    55   117   118    1
    56   118   124   am
    57   124   125    1
    58   105   104    2
    59   125   128    1
    60   131   133   ar
    61   131   129   ar
    62   173   172    2
    63   112   113    1
    64   112   115    1
    65   112   111    1
    66   133   132   ar
    67   113   114    2
    68   104   111   am
    69   104   103    1
    70   129   128    1
    71   129   130   ar
    72   106   103    1
    73   106   107    1
    74   132   130   ar
    75   172   171    1
    76   180   182   ar
    77   180   177   ar
    78   174   171    1
    79   174   175    1
    80   171   170    1
    81   108   107    1
    82   108   109    1
    83   103   102    1
    84   182   183   ar
    85   177   175   ar
    86   177   179   ar
    87   110   109    1
    88   175   176   ar
    89   157   156    1
    90   102    94   am
    91   183   181   ar
    92   154   156   ar
    93   154   152   ar
    94   156   155   ar
    95   146   147    1
    96   152   151   ar
    97   179   181   ar
    98   179   178   ar
    99   176   178   ar
   100   134   135    1
   101   155   153   ar
   102    94    95    2
   103    94    93    1
   104   151   153   ar
   105   151   150    1
   106   147   150    1
   107   147   148    1
   108    92    93    1
   109   145   144    1
   110   142   144   ar
   111   142   140   ar
   112   135   136    1
   113   135   138    1
   114    87    86    2
   115   144   143   ar
   116    93    96    1
   117   140   139   ar
   118   136   137    2
   119   143   141   ar
   120   101   100   ar
   121   101    99   ar
   122   148   149    2
   123   100    98   ar
   124   139   141   ar
   125   139   138    1
   126    99    97   ar
   127    98    97   ar
   128    86    85    1
   129    97    96    1
   130    39    40    1
   131    45    47   ar
   132    45    44   ar
   133   164   166   ar
   134   164   163   ar
   135   166   168   ar
   136    47    49   ar
   137    91    89   am
   138   158   159    1
   139    61    60    2
   140    85    88    1
   141    85    84    1
   142    88    89    1
   143    43    40    1
   144    43    44    1
   145    40    41    1
   146    44    46   ar
   147    89    90    2
   148   162   163    1
   149   162   159    1
   150   163   165   ar
   151    54    53    2
   152   168   169    1
   153   168   167   ar
   154    49    50    1
   155    49    48   ar
   156   159   160    1
   157    62    60   am
   158    60    59    1
   159   160   161    2
   160    46    48   ar
   161    53    52    1
   162    53    55   am
   163    41    42    2
   164   165   167   ar
   165    77    75    1
   166    52    51    1
   167    76    75    1
   168    59    56    1
   169    56    55    1
   170    56    57    1
   171    75    74    1
   172    74    71    1
   173    57    58    2
   174    57    63   am
   175    66    65    2
   176    63    64    1
   177    71    70    1
   178    71    72    1
   179    65    70   am
   180    65    64    1
   181    64    67    1
   182    72    78   am
   183    72    73    2
   184    81    80    2
   185    68    67    1
   186    78    79    1
   187    67    69    1
   188    80    79    1
   189    79    82    1
   190    82    83    1
