@<TRIPOS>MOLECULE
tmp/3vv1A00.pdb
 108 101 0 0 0
SMALL
GASTEIGER

@<TRIPOS>ATOM
      1  N         26.5900   59.3820    8.0060 N.3    41  ARG41      -0.1245
      2  CA        25.5810   58.3490    7.7120 C.3    41  ARG41       0.1563
      3  C         25.4240   57.3810    8.8350 C.2    41  ARG41       0.2260
      4  O         26.3370   57.1880    9.5800 O.2    41  ARG41      -0.2867
      5  CB        25.9870   57.5340    6.4540 C.3    41  ARG41       0.0307
      6  CG        26.1970   58.4380    5.2350 C.3    41  ARG41       0.0489
      7  CD        26.4940   57.5960    3.9900 C.3    41  ARG41       0.2205
      8  NE        26.6470   58.5000    2.8490 N.pl3  41  ARG41      -0.0865
      9  CZ        26.9870   58.0930    1.6170 C.cat  41  ARG41       0.5346
     10  NH1       27.1890   56.7810    1.3600 N.pl3  41  ARG41       0.1354
     11  NH2       27.1590   58.9830    0.6500 N.pl3  41  ARG41       0.1354
     12  N         23.3540   53.2750    9.2740 N.3    43  HIS43      -0.1241
     13  CA        22.4260   52.3260    8.6190 C.3    43  HIS43       0.1621
     14  C         21.9890   51.2360    9.5490 C.2    43  HIS43       0.2264
     15  O         22.6450   50.9530   10.5600 O.2    43  HIS43      -0.2867
     16  CB        23.0260   51.7420    7.3060 C.3    43  HIS43       0.0745
     17  CG        24.2570   50.9500    7.5130 C.ar   43  HIS43       0.0817
     18  ND1       25.5070   51.4860    7.4140 N.ar   43  HIS43      -0.2268
     19  CD2       24.4320   49.6200    7.8670 C.ar   43  HIS43       0.1154
     20  CE1       26.4100   50.5280    7.6210 C.ar   43  HIS43       0.1986
     21  NE2       25.7630   49.3930    7.9170 N.ar   43  HIS43      -0.2212
     22  N         18.8500   47.2250    3.6010 N.3    55  HIS55      -0.1241
     23  CA        19.8570   48.1470    4.1050 C.3    55  HIS55       0.1621
     24  C         19.1300   49.4670    4.0940 C.2    55  HIS55       0.2264
     25  O         18.7580   49.9720    3.0310 O.2    55  HIS55      -0.2867
     26  CB        21.0380   48.1280    3.1000 C.3    55  HIS55       0.0745
     27  CG        22.0460   49.2590    3.2740 C.ar   55  HIS55       0.0817
     28  ND1       23.0140   49.2180    4.2280 N.ar   55  HIS55      -0.2268
     29  CD2       22.2810   50.4120    2.5310 C.ar   55  HIS55       0.1154
     30  CE1       23.8460   50.2820    4.1020 C.ar   55  HIS55       0.1986
     31  NE2       23.3810   51.0380    3.0680 N.ar   55  HIS55      -0.2212
     32  N         19.5790   53.2890    4.9380 N.3    57  ASN57      -0.1240
     33  CA        20.7800   54.1490    5.1470 C.3    57  ASN57       0.1653
     34  C         20.3530   55.6190    5.1900 C.2    57  ASN57       0.2266
     35  O         19.9130   56.1810    4.1950 O.2    57  ASN57      -0.2867
     36  CB        21.6920   53.8910    3.9630 C.3    57  ASN57       0.1155
     37  CG        23.1250   54.4780    4.1030 C.2    57  ASN57       0.2627
     38  OD1       23.8090   54.6150    3.0880 O.2    57  ASN57      -0.2716
     39  ND2       23.6120   54.7490    5.3280 N.am   57  ASN57      -0.0877
     40  N         21.4260   59.3350    5.2030 N.3    59  ARG59      -0.1245
     41  CA        22.6050   60.0480    4.6790 C.3    59  ARG59       0.1563
     42  C         22.4260   61.5590    4.9020 C.2    59  ARG59       0.2260
     43  O         21.6710   62.2360    4.1760 O.2    59  ARG59      -0.2867
     44  CB        22.7600   59.7350    3.1690 C.3    59  ARG59       0.0307
     45  CG        22.9100   58.2380    2.8940 C.3    59  ARG59       0.0489
     46  CD        23.1820   58.0450    1.4120 C.3    59  ARG59       0.2205
     47  NE        23.4740   56.6390    1.1290 N.pl3  59  ARG59      -0.0865
     48  CZ        23.8280   56.1890   -0.0730 C.cat  59  ARG59       0.5346
     49  NH1       23.9140   57.0440   -1.1130 N.pl3  59  ARG59       0.1354
     50  NH2       24.1090   54.9020   -0.2510 N.pl3  59  ARG59       0.1354
     51  N         24.0950   63.4660    1.8590 N.3    62  GLU62      -0.1245
     52  CA        23.2540   63.5450    0.6420 C.3    62  GLU62       0.1567
     53  C         21.8320   64.0990    0.8960 C.2    62  GLU62       0.2260
     54  O         21.1170   64.4050   -0.0700 O.2    62  GLU62      -0.2867
     55  CB        23.1590   62.2160   -0.0810 C.3    62  GLU62       0.0388
     56  CG        24.4990   61.7430   -0.6140 C.3    62  GLU62       0.1160
     57  CD        24.4260   60.5000   -1.4550 C.2    62  GLU62       0.3649
     58  OE1       23.4450   59.7560   -1.3920 O.co2  62  GLU62      -0.2457
     59  OE2       25.3830   60.2770   -2.1700 O.co2  62  GLU62      -0.2457
     60  N         18.4430   56.0600    1.7680 N.3    66  VAL66      -0.1245
     61  CA        18.5740   55.1290    0.6370 C.3    66  VAL66       0.1561
     62  C         18.2590   53.7460    1.1710 C.2    66  VAL66       0.2260
     63  O         18.8790   53.3390    2.1590 O.2    66  VAL66      -0.2867
     64  CB        19.9860   55.1440    0.0480 C.3    66  VAL66       0.0252
     65  CG1       20.1300   54.0270   -1.0030 C.3    66  VAL66       0.0019
     66  CG2       20.2090   56.5280   -0.5960 C.3    66  VAL66       0.0019
     67  N         18.2250   49.6960    0.1230 N.3    68  ASN68      -0.1240
     68  CA        18.6290   48.7430   -0.9060 C.3    68  ASN68       0.1653
     69  C         18.7890   47.3810   -0.2730 C.2    68  ASN68       0.2266
     70  O         18.4230   47.1540    0.8980 O.2    68  ASN68      -0.2867
     71  CB        19.9890   49.1810   -1.5450 C.3    68  ASN68       0.1155
     72  CG        20.1920   48.7010   -2.9690 C.2    68  ASN68       0.2627
     73  OD1       19.4650   47.8330   -3.4270 O.2    68  ASN68      -0.2716
     74  ND2       21.1940   49.2310   -3.6510 N.am   68  ASN68      -0.0877
     75  N         24.7440   44.7000   -4.6560 N.3    75  TRP75      -0.1241
     76  CA        23.6720   45.6610   -4.4650 C.3    75  TRP75       0.1605
     77  C         22.7100   45.6790   -5.6000 C.2    75  TRP75       0.2264
     78  O         23.1040   45.6650   -6.7840 O.2    75  TRP75      -0.2867
     79  CB        24.2760   47.0980   -4.3170 C.3    75  TRP75       0.0550
     80  CG        25.0400   47.3480   -3.0300 C.ar   75  TRP75       0.0003
     81  CD1       26.4090   47.6300   -2.8730 C.ar   75  TRP75       0.0946
     82  CD2       24.4810   47.3350   -1.6860 C.ar   75  TRP75       0.0152
     83  NE1       26.7260   47.7740   -1.5350 N.ar   75  TRP75      -0.2442
     84  CE2       25.6130   47.6080   -0.7640 C.ar   75  TRP75       0.0810
     85  CE3       23.1790   47.1270   -1.1550 C.ar   75  TRP75       0.0012
     86  CZ2       25.4420   47.6410    0.6290 C.ar   75  TRP75       0.0191
     87  CZ3       23.0220   47.1770    0.2380 C.ar   75  TRP75       0.0001
     88  CH2       24.1330   47.4740    1.1090 C.ar   75  TRP75       0.0015
     89  N         18.5070   51.0490   -5.8280 N.3    78  GLU78      -0.1245
     90  CA        18.2230   51.8700   -4.6630 C.3    78  GLU78       0.1567
     91  C         16.7900   52.4590   -4.7390 C.2    78  GLU78       0.2260
     92  O         16.3250   52.8920   -5.8210 O.2    78  GLU78      -0.2867
     93  CB        19.1940   53.0430   -4.5740 C.3    78  GLU78       0.0388
     94  CG        20.5970   52.5690   -4.2700 C.3    78  GLU78       0.1160
     95  CD        21.6040   53.7240   -4.2200 C.2    78  GLU78       0.3649
     96  OE1       21.2980   54.8390   -4.7100 O.co2  78  GLU78      -0.2457
     97  OE2       22.7130   53.4620   -3.7390 O.co2  78  GLU78      -0.2457
     98  N         15.1380   55.7510   -3.1310 N.3    80  ARG80      -0.1245
     99  CA        15.5750   56.9690   -2.4450 C.3    80  ARG80       0.1563
    100  C         14.3870   57.7050   -1.8710 C.2    80  ARG80       0.2260
    101  O         13.3940   57.8970   -2.5690 O.2    80  ARG80      -0.2867
    102  CB        16.3620   57.8590   -3.3940 C.3    80  ARG80       0.0307
    103  CG        17.6320   57.1210   -3.8140 C.3    80  ARG80       0.0489
    104  CD        18.6540   57.9020   -4.6270 C.3    80  ARG80       0.2205
    105  NE        19.3530   58.8840   -3.8180 N.pl3  80  ARG80      -0.0865
    106  CZ        20.6460   58.8250   -3.4590 C.cat  80  ARG80       0.5346
    107  NH1       21.4400   57.8140   -3.7760 N.pl3  80  ARG80       0.1354
    108  NH2       21.1290   59.7910   -2.7410 N.pl3  80  ARG80       0.1354
@<TRIPOS>BOND
     1    78    77    2
     2    89    90    1
     3    92    91    2
     4    77    76    1
     5    91    90    1
     6    96    95   ar
     7    90    93    1
     8    75    76    1
     9   104   105    1
    10   104   103    1
    11    93    94    1
    12    76    79    1
    13    79    80    1
    14    94    95    1
    15    95    97   ar
    16   105   106    2
    17   103   102    1
    18   107   106    1
    19    74    72   am
    20   106   108    1
    21    73    72    2
    22   102    99    1
    23    98    99    1
    24    80    81   ar
    25    80    82   ar
    26    72    71    1
    27    81    83   ar
    28   101   100    2
    29    99   100    1
    30    59    57   ar
    31    82    85   ar
    32    82    84   ar
    33    71    68    1
    34    83    84   ar
    35    57    58   ar
    36    57    56    1
    37    85    87   ar
    38    49    48    1
    39    65    64    1
    40    68    69    1
    41    68    67    1
    42    84    86   ar
    43    56    55    1
    44    66    64    1
    45    69    70    2
    46    50    48    1
    47    55    52    1
    48    48    47    2
    49    54    53    2
    50    64    61    1
    51    87    88   ar
    52    86    88   ar
    53    61    62    1
    54    61    60    1
    55    52    53    1
    56    52    51    1
    57    11     9    1
    58    47    46    1
    59    62    63    2
    60    10     9    1
    61    46    45    1
    62     9     8    2
    63    29    31   ar
    64    29    27   ar
    65     8     7    1
    66    45    44    1
    67    25    24    2
    68    31    30   ar
    69    38    37    2
    70    26    27    1
    71    26    23    1
    72    44    41    1
    73    27    28   ar
    74    22    23    1
    75    36    37    1
    76    36    33    1
    77     7     6    1
    78    24    23    1
    79    30    28   ar
    80    37    39   am
    81    43    42    2
    82    35    34    2
    83    41    42    1
    84    41    40    1
    85    32    33    1
    86    33    34    1
    87     6     5    1
    88     5     2    1
    89    16    17    1
    90    16    13    1
    91    18    17   ar
    92    18    20   ar
    93    17    19   ar
    94    20    21   ar
    95     2     1    1
    96     2     3    1
    97    19    21   ar
    98    13    12    1
    99    13    14    1
   100     3     4    2
   101    14    15    2
