@<TRIPOS>MOLECULE
tmp/3vv5B00.pdb
 146 139 0 0 0
SMALL
GASTEIGER

@<TRIPOS>ATOM
      1  N          2.5140   22.3650  -11.6990 N.3    21  GLU21      -0.1245
      2  CA         2.8990   22.5380  -10.3100 C.3    21  GLU21       0.1567
      3  C          2.7850   21.2080   -9.5810 C.2    21  GLU21       0.2260
      4  O          3.7830   20.6970   -9.0600 O.2    21  GLU21      -0.2867
      5  CB         2.0440   23.6000   -9.6150 C.3    21  GLU21       0.0388
      6  CG         2.3290   23.6470   -8.0930 C.3    21  GLU21       0.1160
      7  CD         1.0990   24.0420   -7.2600 C.2    21  GLU21       0.3649
      8  OE1       -0.0070   23.5640   -7.5880 O.co2  21  GLU21      -0.2457
      9  OE2        1.2530   24.8130   -6.2760 O.co2  21  GLU21      -0.2457
     10  N         -2.3360   21.1480   -6.6790 N.3    24  PHE24      -0.1241
     11  CA        -3.5820   21.8700   -6.8530 C.3    24  PHE24       0.1605
     12  C         -4.6730   20.8830   -7.2770 C.2    24  PHE24       0.2264
     13  O         -5.1620   20.9550   -8.4030 O.2    24  PHE24      -0.2867
     14  CB        -3.3840   22.9710   -7.9280 C.3    24  PHE24       0.0534
     15  CG        -4.3490   24.1140   -7.8290 C.ar   24  PHE24      -0.0203
     16  CD1       -4.4230   24.8760   -6.6580 C.ar   24  PHE24      -0.0042
     17  CD2       -5.1740   24.4500   -8.9130 C.ar   24  PHE24      -0.0042
     18  CE1       -5.2990   25.9500   -6.5580 C.ar   24  PHE24      -0.0003
     19  CE2       -6.0470   25.5330   -8.8380 C.ar   24  PHE24      -0.0003
     20  CZ        -6.1170   26.2880   -7.6610 C.ar   24  PHE24      -0.0000
     21  N         -4.1000   19.6760  -10.9650 N.3    28  ASN28      -0.1240
     22  CA        -2.7580   19.1380  -11.1560 C.3    28  ASN28       0.1653
     23  C         -2.1870   18.8260   -9.7910 C.2    28  ASN28       0.2266
     24  O         -2.0450   19.7210   -8.9590 O.2    28  ASN28      -0.2867
     25  CB        -1.8400   20.0690  -11.9950 C.3    28  ASN28       0.1155
     26  CG        -1.6680   21.4780  -11.4010 C.2    28  ASN28       0.2627
     27  OD1       -0.6360   21.7740  -10.7930 O.2    28  ASN28      -0.2716
     28  ND2       -2.6420   22.3570  -11.6230 N.am   28  ASN28      -0.0877
     29  N          4.6890   26.7830   -8.2680 N.3    62  PHE62      -0.1241
     30  CA         3.7550   27.4800   -9.1290 C.3    62  PHE62       0.1605
     31  C          4.2220   28.8740   -9.5330 C.2    62  PHE62       0.2264
     32  O          4.1120   29.2640  -10.7050 O.2    62  PHE62      -0.2867
     33  CB         2.3790   27.5800   -8.4640 C.3    62  PHE62       0.0534
     34  CG         1.4130   28.4680   -9.2100 C.ar   62  PHE62      -0.0203
     35  CD1        0.7690   28.0040  -10.3540 C.ar   62  PHE62      -0.0042
     36  CD2        1.1900   29.7790   -8.7930 C.ar   62  PHE62      -0.0042
     37  CE1       -0.0910   28.8310  -11.0640 C.ar   62  PHE62      -0.0003
     38  CE2        0.3090   30.6080   -9.4830 C.ar   62  PHE62      -0.0003
     39  CZ        -0.3360   30.1410  -10.6170 C.ar   62  PHE62      -0.0000
     40  N         -1.3150   24.7880  -15.7130 N.3    79  ALA79      -0.1231
     41  CA        -1.2280   24.8320  -14.2360 C.3    79  ALA79       0.1694
     42  C         -2.2780   25.7380  -13.6220 C.2    79  ALA79       0.2593
     43  O         -2.0450   26.3600  -12.5710 O.2    79  ALA79      -0.2718
     44  CB         0.1750   25.2830  -13.7840 C.3    79  ALA79       0.0304
     45  N         -3.4410   25.7900  -14.2660 N.am   80  SER80      -0.1938
     46  CA        -4.5810   26.5750  -13.7790 C.3    80  SER80       0.2055
     47  C         -4.3690   28.0900  -13.7410 C.2    80  SER80       0.2643
     48  O         -4.9570   28.7600  -12.9060 O.2    80  SER80      -0.2714
     49  CB        -5.0800   26.0560  -12.4180 C.3    80  SER80       0.2130
     50  OG        -5.6300   24.7450  -12.5580 O.3    80  SER80      -0.2179
     51  N         -3.5460   28.6310  -14.6470 N.am   81  HIS81      -0.1959
     52  CA        -3.3860   30.0980  -14.7300 C.3    81  HIS81       0.1787
     53  C         -4.6180   30.7980  -15.2760 C.2    81  HIS81       0.2620
     54  O         -4.9880   30.5860  -16.4080 O.2    81  HIS81      -0.2715
     55  CB        -2.1930   30.4940  -15.6180 C.3    81  HIS81       0.0785
     56  CG        -0.8680   30.1490  -15.0270 C.ar   81  HIS81       0.0821
     57  ND1       -0.2010   30.9860  -14.1510 N.ar   81  HIS81      -0.2267
     58  CD2       -0.0920   29.0520  -15.1670 C.ar   81  HIS81       0.1154
     59  CE1        0.9260   30.4090  -13.7760 C.ar   81  HIS81       0.1986
     60  NE2        1.0150   29.2360  -14.3770 N.ar   81  HIS81      -0.2212
     61  N         -5.2090   31.6800  -14.4820 N.am   82  GLY82      -0.1954
     62  CA        -6.2350   32.5910  -14.9760 C.3    82  GLY82       0.1869
     63  C         -5.5750   33.6240  -15.8660 C.2    82  GLY82       0.2309
     64  O         -4.4550   34.0640  -15.5970 O.2    82  GLY82      -0.2863
     65  N         -0.1810   39.0310  -16.6090 N.3    87  ARG87      -0.1245
     66  CA         0.4590   37.8020  -17.0850 C.3    87  ARG87       0.1563
     67  C          0.6630   37.7960  -18.6040 C.2    87  ARG87       0.2260
     68  O          1.6990   37.3130  -19.0880 O.2    87  ARG87      -0.2867
     69  CB        -0.3380   36.5770  -16.6430 C.3    87  ARG87       0.0307
     70  CG        -0.0990   36.2220  -15.1540 C.3    87  ARG87       0.0489
     71  CD        -1.1740   35.2820  -14.6430 C.3    87  ARG87       0.2205
     72  NE        -0.9890   34.9410  -13.2190 N.pl3  87  ARG87      -0.0865
     73  CZ        -1.7930   34.1230  -12.5530 C.cat  87  ARG87       0.5346
     74  NH1       -2.8380   33.5920  -13.1700 N.pl3  87  ARG87       0.1354
     75  NH2       -1.5730   33.8400  -11.2700 N.pl3  87  ARG87       0.1354
     76  N        -10.6870   25.9750  -19.2560 N.3    98  TYR98      -0.1241
     77  CA       -11.8600   25.9720  -18.3920 C.3    98  TYR98       0.1605
     78  C        -12.1300   27.3430  -17.8110 C.2    98  TYR98       0.2264
     79  O        -11.2840   28.2350  -17.9070 O.2    98  TYR98      -0.2867
     80  CB       -11.7930   24.8940  -17.2880 C.3    98  TYR98       0.0534
     81  CG       -10.8130   25.1370  -16.1640 C.ar   98  TYR98      -0.0201
     82  CD1      -11.2090   25.7650  -14.9850 C.ar   98  TYR98      -0.0009
     83  CD2       -9.4910   24.7060  -16.2640 C.ar   98  TYR98      -0.0009
     84  CE1      -10.2890   25.9640  -13.9220 C.ar   98  TYR98       0.0417
     85  CE2       -8.5700   24.9000  -15.2080 C.ar   98  TYR98       0.0417
     86  CZ        -8.9940   25.5360  -14.0400 C.ar   98  TYR98       0.1957
     87  OH        -8.1090   25.7130  -12.9950 O.3    98  TYR98      -0.2866
     88  N         -2.4860   31.3520   -1.6680 N.3   125  GLN125     -0.1245
     89  CA        -1.2650   30.8780   -2.2950 C.3   125  GLN125      0.1566
     90  C         -0.4790   32.0400   -2.9020 C.2   125  GLN125      0.2260
     91  O         -1.0570   32.9380   -3.5210 O.2   125  GLN125     -0.2867
     92  CB        -1.6060   29.8390   -3.3800 C.3   125  GLN125      0.0367
     93  CG        -0.3610   29.2820   -4.0050 C.3   125  GLN125      0.0905
     94  CD        -0.5820   28.1910   -5.0400 C.2   125  GLN125      0.2608
     95  OE1       -1.7020   27.8840   -5.4490 O.2   125  GLN125     -0.2717
     96  NE2        0.5150   27.6020   -5.4690 N.am  125  GLN125     -0.0878
     97  N         -0.7830   34.0710   -6.8720 N.3   128  THR128     -0.1203
     98  CA        -2.0610   33.7610   -7.5170 C.3   128  THR128      0.1994
     99  C         -2.9580   34.9730   -7.6670 C.2   128  THR128      0.2619
    100  O         -2.7080   36.0530   -7.0690 O.2   128  THR128     -0.2717
    101  CB        -2.8530   32.6790   -6.7430 C.3   128  THR128      0.1784
    102  OG1       -3.0740   33.1080   -5.3960 O.3   128  THR128     -0.2211
    103  CG2       -2.0900   31.3190   -6.7560 C.3   128  THR128      0.0376
    104  N         -4.0150   34.7860   -8.4560 N.am  129  THR129     -0.1938
    105  CA        -5.1000   35.7680   -8.5490 C.3   129  THR129      0.2028
    106  C         -5.8360   35.8980   -7.2130 C.2   129  THR129      0.2642
    107  O         -6.4410   36.9330   -6.9490 O.2   129  THR129     -0.2714
    108  CB        -6.0870   35.4040   -9.6710 C.3   129  THR129      0.1808
    109  OG1       -6.4530   34.0160   -9.5660 O.3   129  THR129     -0.2208
    110  CG2       -5.4550   35.6660  -11.0390 C.3   129  THR129      0.0379
    111  N         -5.7710   34.8570   -6.3670 N.am  130  TYR130     -0.1973
    112  CA        -6.3810   34.9190   -5.0140 C.3   130  TYR130      0.1639
    113  C         -5.6380   35.9220   -4.1450 C.2   130  TYR130      0.2290
    114  O         -6.2570   36.7050   -3.4070 O.2   130  TYR130     -0.2864
    115  CB        -6.4350   33.5090   -4.3370 C.3   130  TYR130      0.0560
    116  CG        -6.8620   32.4550   -5.3230 C.ar  130  TYR130     -0.0198
    117  CD1       -8.0280   32.6260   -6.0890 C.ar  130  TYR130     -0.0009
    118  CD2       -6.0880   31.3130   -5.5350 C.ar  130  TYR130     -0.0009
    119  CE1       -8.4140   31.6990   -7.0190 C.ar  130  TYR130      0.0417
    120  CE2       -6.4760   30.3660   -6.4610 C.ar  130  TYR130      0.0417
    121  CZ        -7.6230   30.5730   -7.2130 C.ar  130  TYR130      0.1957
    122  OH        -7.9780   29.6430   -8.1560 O.3   130  TYR130     -0.2866
    123  N         -9.7950   28.5370   -5.5650 N.3   167  ASP167     -0.1239
    124  CA       -10.6290   28.1850   -6.6970 C.3   167  ASP167      0.1674
    125  C        -11.9250   27.5050   -6.2600 C.2   167  ASP167      0.2266
    126  O        -11.9210   26.6620   -5.3720 O.2   167  ASP167     -0.2867
    127  CB        -9.8330   27.2650   -7.6300 C.3   167  ASP167      0.1410
    128  CG       -10.6350   26.8400   -8.8170 C.2   167  ASP167      0.3668
    129  OD1      -10.7160   27.6450   -9.7510 O.co2 167  ASP167     -0.2456
    130  OD2      -11.2340   25.7320   -8.7750 O.co2 167  ASP167     -0.2456
    131  N        -12.6740   33.9100  -13.6390 N.3   193  GLU193     -0.1245
    132  CA       -11.5360   33.9230  -14.5350 C.3   193  GLU193      0.1567
    133  C        -11.5880   32.8010  -15.5590 C.2   193  GLU193      0.2260
    134  O        -12.2800   31.7830  -15.3750 O.2   193  GLU193     -0.2867
    135  CB       -10.2010   33.9150  -13.7570 C.3   193  GLU193      0.0388
    136  CG        -9.9740   32.6440  -12.9250 C.3   193  GLU193      0.1160
    137  CD        -8.7160   32.6900  -12.0420 C.2   193  GLU193      0.3649
    138  OE1       -7.9790   33.6880  -12.0660 O.co2 193  GLU193     -0.2457
    139  OE2       -8.4580   31.7080  -11.3200 O.co2 193  GLU193     -0.2457
    140  N         -9.2690   30.2220  -17.5760 N.3   195  VAL195     -0.1245
    141  CA        -7.9910   29.5750  -17.2820 C.3   195  VAL195      0.1561
    142  C         -7.4050   28.9970  -18.5810 C.2   195  VAL195      0.2260
    143  O         -8.1350   28.3510  -19.3450 O.2   195  VAL195     -0.2867
    144  CB        -8.1830   28.4830  -16.1920 C.3   195  VAL195      0.0252
    145  CG1       -6.8970   27.6680  -15.9930 C.3   195  VAL195      0.0019
    146  CG2       -8.5740   29.1480  -14.8700 C.3   195  VAL195      0.0019
@<TRIPOS>BOND
     1   143   142    2
     2    76    77    1
     3    68    67    2
     4    67    66    1
     5   142   141    1
     6    77    78    1
     7    77    80    1
     8    79    78    2
     9   140   141    1
    10    80    81    1
    11   141   144    1
    12    66    69    1
    13    66    65    1
    14    69    70    1
    15    54    53    2
    16    83    81   ar
    17    83    85   ar
    18   144   145    1
    19   144   146    1
    20    81    82   ar
    21    63    64    2
    22    63    62    1
    23    40    41    1
    24    55    56    1
    25    55    52    1
    26   133   134    2
    27   133   132    1
    28    53    52    1
    29    53    61   am
    30    85    86   ar
    31    58    56   ar
    32    58    60   ar
    33    70    71    1
    34    56    57   ar
    35    82    84   ar
    36    62    61    1
    37    52    51    1
    38    51    47   am
    39    71    72    1
    40   132   135    1
    41   132   131    1
    42    60    59   ar
    43    45    46    1
    44    45    42   am
    45    41    44    1
    46    41    42    1
    47    57    59   ar
    48    86    84   ar
    49    86    87    1
    50    46    47    1
    51    46    49    1
    52   135   136    1
    53    47    48    2
    54    42    43    2
    55    72    73    2
    56    74    73    1
    57   136   137    1
    58    50    49    1
    59    73    75    1
    60   138   137   ar
    61   137   139   ar
    62    25    26    1
    63    25    22    1
    64     1     2    1
    65    28    26   am
    66    26    27    2
    67    22    21    1
    68    22    23    1
    69    37    39   ar
    70    37    35   ar
    71   110   108    1
    72    32    31    2
    73    39    38   ar
    74    35    34   ar
    75     2     5    1
    76     2     3    1
    77    23    24    2
    78   129   128   ar
    79   108   109    1
    80   108   105    1
    81     5     6    1
    82     3     4    2
    83    31    30    1
    84    38    36   ar
    85    34    36   ar
    86    34    33    1
    87    30    33    1
    88    30    29    1
    89    17    19   ar
    90    17    15   ar
    91    19    20   ar
    92   128   130   ar
    93   128   127    1
    94   105   104    1
    95   105   106    1
    96   104    99   am
    97    13    12    2
    98   122   121    1
    99     6     7    1
   100    14    15    1
   101    14    11    1
   102    15    16   ar
   103    99    98    1
   104    99   100    2
   105    20    18   ar
   106   127   124    1
   107     8     7   ar
   108    98    97    1
   109    98   101    1
   110    12    11    1
   111     7     9   ar
   112   106   107    2
   113   106   111   am
   114   121   119   ar
   115   121   120   ar
   116   119   117   ar
   117    11    10    1
   118   103   101    1
   119   101   102    1
   120   124   125    1
   121   124   123    1
   122    16    18   ar
   123   120   118   ar
   124   111   112    1
   125   125   126    2
   126   117   116   ar
   127   118   116   ar
   128    96    94   am
   129    95    94    2
   130   116   115    1
   131    94    93    1
   132   112   115    1
   133   112   113    1
   134   113   114    2
   135    93    92    1
   136    91    90    2
   137    92    89    1
   138    90    89    1
   139    89    88    1
