@<TRIPOS>MOLECULE
tmp/3vv6A00.pdb
 153 145 0 0 0
SMALL
GASTEIGER

@<TRIPOS>ATOM
      1  N         22.3360   33.1270   -1.9530 N.3    34  LEU34      -0.1245
      2  CA        21.6210   34.3800   -1.8180 C.3    34  LEU34       0.1561
      3  C         20.1230   34.1200   -1.5740 C.2    34  LEU34       0.2260
      4  O         19.4630   33.3860   -2.3360 O.2    34  LEU34      -0.2867
      5  CB        21.8490   35.1750   -3.1070 C.3    34  LEU34       0.0270
      6  CG        21.4580   36.6250   -3.3510 C.3    34  LEU34       0.0019
      7  CD1       20.0190   36.8750   -3.0260 C.3    34  LEU34       0.0001
      8  CD2       22.3830   37.5750   -2.5940 C.3    34  LEU34       0.0001
      9  N         16.4610   35.2730   -1.7100 N.3    36  ASP36      -0.1239
     10  CA        15.7700   36.2110   -2.5790 C.3    36  ASP36       0.1674
     11  C         14.2510   36.0220   -2.5580 C.2    36  ASP36       0.2266
     12  O         13.7190   35.1430   -3.2350 O.2    36  ASP36      -0.2867
     13  CB        16.3400   36.1090   -4.0210 C.3    36  ASP36       0.1410
     14  CG        15.7310   37.1330   -4.9820 C.2    36  ASP36       0.3668
     15  OD1       15.8760   36.9590   -6.2120 O.co2  36  ASP36      -0.2456
     16  OD2       15.0900   38.1050   -4.5320 O.co2  36  ASP36      -0.2456
     17  N         12.2410   37.8090   -4.0190 N.3    38  GLY38      -0.1210
     18  CA        11.7350   38.4140   -5.2500 C.3    38  GLY38       0.1956
     19  C         11.8510   37.5880   -6.5130 C.2    38  GLY38       0.2612
     20  O         11.6280   38.1110   -7.6180 O.2    38  GLY38      -0.2717
     21  N         12.1800   36.3060   -6.3590 N.am   39  SER39      -0.1952
     22  CA        12.1890   35.3570   -7.4670 C.3    39  SER39       0.1924
     23  C         11.8880   33.9610   -6.9020 C.2    39  SER39       0.2314
     24  O         11.7550   33.8030   -5.6840 O.2    39  SER39      -0.2863
     25  CB        13.5400   35.3860   -8.1900 C.3    39  SER39       0.2116
     26  OG        14.5640   34.8820   -7.3460 O.3    39  SER39      -0.2180
     27  N         17.1520   33.1580  -18.1150 N.3    73  VAL73      -0.1245
     28  CA        16.6140   34.2210  -17.2510 C.3    73  VAL73       0.1561
     29  C         17.2640   35.5990  -17.4500 C.2    73  VAL73       0.2260
     30  O         18.3130   35.8870  -16.8650 O.2    73  VAL73      -0.2867
     31  CB        16.6400   33.8160  -15.7470 C.3    73  VAL73       0.0252
     32  CG1       15.9040   34.8370  -14.9100 C.3    73  VAL73       0.0019
     33  CG2       16.0270   32.4210  -15.5430 C.3    73  VAL73       0.0019
     34  N         17.0680   39.6210  -16.7150 N.3    75  TYR75      -0.1227
     35  CA        16.5240   40.4970  -15.6970 C.3    75  TYR75       0.1736
     36  C         17.0650   41.8790  -15.9070 C.2    75  TYR75       0.2596
     37  O         17.8250   42.1230  -16.8350 O.2    75  TYR75      -0.2718
     38  CB        16.8180   40.0050  -14.2780 C.3    75  TYR75       0.0548
     39  CG        18.2480   39.6710  -13.9950 C.ar   75  TYR75      -0.0200
     40  CD1       19.1070   40.6110  -13.4600 C.ar   75  TYR75      -0.0009
     41  CD2       18.7310   38.4340  -14.2410 C.ar   75  TYR75      -0.0009
     42  CE1       20.3820   40.3230  -13.2260 C.ar   75  TYR75       0.0417
     43  CE2       19.9890   38.1280  -14.0130 C.ar   75  TYR75       0.0417
     44  CZ        20.8220   39.0540  -13.4910 C.ar   75  TYR75       0.1957
     45  OH        22.1040   38.7200  -13.2310 O.3    75  TYR75      -0.2866
     46  N         16.6560   42.8000  -15.0480 N.am   76  THR76      -0.1953
     47  CA        17.0790   44.1650  -15.2260 C.3    76  THR76       0.1897
     48  C         18.5730   44.1950  -15.0680 C.2    76  THR76       0.2313
     49  O         19.1030   43.9260  -14.0110 O.2    76  THR76      -0.2863
     50  CB        16.3640   45.1570  -14.2960 C.3    76  THR76       0.1794
     51  OG1       16.6370   44.7860  -12.9530 O.3    76  THR76      -0.2208
     52  CG2       14.8690   45.1960  -14.5470 C.3    76  THR76       0.0378
     53  N         21.0510   35.0230  -16.3970 N.3    80  TRP80      -0.1241
     54  CA        21.6210   33.6860  -16.2180 C.3    80  TRP80       0.1605
     55  C         20.8410   32.6520  -17.0130 C.2    80  TRP80       0.2264
     56  O         19.6510   32.8260  -17.3000 O.2    80  TRP80      -0.2867
     57  CB        21.7910   33.2830  -14.7360 C.3    80  TRP80       0.0550
     58  CG        20.5160   33.0820  -13.9430 C.ar   80  TRP80       0.0003
     59  CD1       19.9060   33.9940  -13.1240 C.ar   80  TRP80       0.0946
     60  CD2       19.7160   31.8900  -13.8820 C.ar   80  TRP80       0.0152
     61  NE1       18.7770   33.4410  -12.5600 N.ar   80  TRP80      -0.2442
     62  CE2       18.6390   32.1530  -13.0010 C.ar   80  TRP80       0.0810
     63  CE3       19.8170   30.6230  -14.4670 C.ar   80  TRP80       0.0012
     64  CZ2       17.6540   31.1960  -12.7060 C.ar   80  TRP80       0.0191
     65  CZ3       18.8280   29.6750  -14.1870 C.ar   80  TRP80       0.0001
     66  CH2       17.7640   29.9690  -13.3110 C.ar   80  TRP80       0.0015
     67  N         26.6170   39.6790  -15.7670 N.3   111  LYS111     -0.1231
     68  CA        26.3410   40.6270  -14.6720 C.3   111  LYS111      0.1693
     69  C         25.4780   39.9990  -13.5760 C.2   111  LYS111      0.2592
     70  O         24.6200   40.6640  -12.9960 O.2   111  LYS111     -0.2718
     71  CB        25.6950   41.9240  -15.2080 C.3   111  LYS111      0.0285
     72  CG        26.6450   42.7400  -16.0390 C.3   111  LYS111      0.0035
     73  CD        25.9260   43.5990  -17.0610 C.3   111  LYS111      0.0206
     74  CE        26.9320   44.2710  -18.0270 C.3   111  LYS111      0.1093
     75  NZ        27.6870   43.3500  -18.9360 N.3   111  LYS111     -0.1314
     76  N         25.7100   38.7130  -13.3110 N.am  112  PHE112     -0.1976
     77  CA        24.9480   37.9710  -12.3180 C.3   112  PHE112      0.1639
     78  C         25.7220   37.6240  -11.0660 C.2   112  PHE112      0.2290
     79  O         25.2760   37.9080   -9.9540 O.2   112  PHE112     -0.2864
     80  CB        24.4950   36.6220  -12.8710 C.3   112  PHE112      0.0560
     81  CG        23.7480   35.7820  -11.8800 C.ar  112  PHE112     -0.0200
     82  CD1       22.4750   36.1660  -11.4260 C.ar  112  PHE112     -0.0042
     83  CD2       24.3080   34.6050  -11.3880 C.ar  112  PHE112     -0.0042
     84  CE1       21.7780   35.3780  -10.4990 C.ar  112  PHE112     -0.0003
     85  CE2       23.6170   33.8130  -10.4710 C.ar  112  PHE112     -0.0003
     86  CZ        22.3470   34.2040  -10.0300 C.ar  112  PHE112     -0.0000
     87  N         29.0330   38.5050   -8.8360 N.3   114  ILE114     -0.1245
     88  CA        29.6540   39.7690   -8.4980 C.3   114  ILE114      0.1561
     89  C         31.1030   39.4960   -8.1130 C.2   114  ILE114      0.2260
     90  O         31.4010   38.6080   -7.2870 O.2   114  ILE114     -0.2867
     91  CB        28.9250   40.4610   -7.3030 C.3   114  ILE114      0.0252
     92  CG1       27.5130   40.9220   -7.6940 C.3   114  ILE114      0.0019
     93  CG2       29.7690   41.6370   -6.7290 C.3   114  ILE114      0.0019
     94  CD1       26.6010   41.2650   -6.4630 C.3   114  ILE114      0.0001
     95  N         28.9900   34.5300   -2.5410 N.3   119  TRP119     -0.1241
     96  CA        27.9340   33.5660   -2.8110 C.3   119  TRP119      0.1605
     97  C         28.0250   33.0240   -4.2310 C.2   119  TRP119      0.2264
     98  O         28.6230   33.6590   -5.1150 O.2   119  TRP119     -0.2867
     99  CB        26.5350   34.1410   -2.5110 C.3   119  TRP119      0.0550
    100  CG        26.2240   35.4510   -3.2040 C.ar  119  TRP119      0.0003
    101  CD1       26.4060   36.7060   -2.7010 C.ar  119  TRP119      0.0946
    102  CD2       25.6800   35.6260   -4.5220 C.ar  119  TRP119      0.0152
    103  NE1       26.0110   37.6530   -3.6250 N.ar  119  TRP119     -0.2442
    104  CE2       25.5510   37.0160   -4.7430 C.ar  119  TRP119      0.0810
    105  CE3       25.2790   34.7430   -5.5340 C.ar  119  TRP119      0.0012
    106  CZ2       25.0490   37.5420   -5.9400 C.ar  119  TRP119      0.0191
    107  CZ3       24.7770   35.2620   -6.7050 C.ar  119  TRP119      0.0001
    108  CH2       24.6660   36.6470   -6.9040 C.ar  119  TRP119      0.0015
    109  N         21.5020   31.2970   -5.9050 N.3   122  ILE122     -0.1245
    110  CA        20.3330   32.0890   -5.4850 C.3   122  ILE122      0.1561
    111  C         19.1580   31.1810   -5.0980 C.2   122  ILE122      0.2260
    112  O         18.8670   30.1760   -5.7750 O.2   122  ILE122     -0.2867
    113  CB        19.9230   33.1270   -6.5590 C.3   122  ILE122      0.0252
    114  CG1       18.7310   33.9680   -6.0840 C.3   122  ILE122      0.0019
    115  CG2       19.6300   32.4490   -7.9190 C.3   122  ILE122      0.0019
    116  CD1       18.2900   35.0000   -7.0600 C.3   122  ILE122      0.0001
    117  N         10.9560   42.3860   -0.9160 N.3   220  ASP220     -0.1239
    118  CA        12.0460   41.7540   -1.6770 C.3   220  ASP220      0.1674
    119  C         13.4150   41.8240   -1.0150 C.2   220  ASP220      0.2266
    120  O         14.0790   42.8560   -1.0660 O.2   220  ASP220     -0.2867
    121  CB        12.1120   42.3340   -3.0940 C.3   220  ASP220      0.1410
    122  CG        13.1830   41.6720   -3.9400 C.2   220  ASP220      0.3668
    123  OD1       13.5140   42.2490   -4.9940 O.co2 220  ASP220     -0.2456
    124  OD2       13.6990   40.5920   -3.5350 O.co2 220  ASP220     -0.2456
    125  N         15.9700   40.5350   -2.0810 N.3   222  GLY222     -0.1210
    126  CA        16.9670   40.6210   -3.1550 C.3   222  GLY222      0.1956
    127  C         17.2160   42.0290   -3.6790 C.2   222  GLY222      0.2612
    128  O         17.8770   42.1990   -4.7050 O.2   222  GLY222     -0.2717
    129  N         16.6820   43.0380   -2.9920 N.am  223  THR223     -0.1952
    130  CA        16.8500   44.4460   -3.3930 C.3   223  THR223      0.1897
    131  C         17.3900   45.2160   -2.2110 C.2   223  THR223      0.2313
    132  O         17.0210   44.9640   -1.0600 O.2   223  THR223     -0.2863
    133  CB        15.5310   45.0890   -3.8610 C.3   223  THR223      0.1794
    134  OG1       15.0880   44.4360   -5.0400 O.3   223  THR223     -0.2208
    135  CG2       15.6960   46.5920   -4.1720 C.3   223  THR223      0.0378
    136  N         12.2320   51.0740   -3.4010 N.3   227  ARG227     -0.1245
    137  CA        12.0190   51.5150   -4.7700 C.3   227  ARG227      0.1563
    138  C         10.5580   51.9290   -4.9970 C.2   227  ARG227      0.2260
    139  O          9.6310   51.1880   -4.6740 O.2   227  ARG227     -0.2867
    140  CB        12.4580   50.4330   -5.7720 C.3   227  ARG227      0.0307
    141  CG        13.9300   49.9680   -5.6170 C.3   227  ARG227      0.0489
    142  CD        14.3470   49.0410   -6.7730 C.3   227  ARG227      0.2205
    143  NE        14.1570   49.6820   -8.0730 N.pl3 227  ARG227     -0.0865
    144  CZ        13.7650   49.0620   -9.1810 C.cat 227  ARG227      0.5346
    145  NH1       13.5220   47.7580   -9.1760 N.pl3 227  ARG227      0.1354
    146  NH2       13.6100   49.7510  -10.3110 N.pl3 227  ARG227      0.1354
    147  N          9.1150   48.5320   -4.3570 N.3   307  VAL307     -0.1245
    148  CA         9.8740   47.3990   -3.8760 C.3   307  VAL307      0.1561
    149  C         10.3900   47.7320   -2.4940 C.2   307  VAL307      0.2260
    150  O         11.1700   48.6810   -2.3030 O.2   307  VAL307     -0.2867
    151  CB        11.0640   47.0140   -4.8150 C.3   307  VAL307      0.0252
    152  CG1       11.8220   45.8080   -4.2430 C.3   307  VAL307      0.0019
    153  CG2       10.5670   46.7070   -6.2090 C.3   307  VAL307      0.0019
@<TRIPOS>BOND
     1    75    74    1
     2    27    28    1
     3    74    73    1
     4    29    28    1
     5    29    30    2
     6    56    55    2
     7    28    31    1
     8    73    72    1
     9    55    54    1
    10    37    36    2
    11    34    35    1
    12    53    54    1
    13    54    57    1
    14    72    71    1
    15    36    35    1
    16    36    46   am
    17    67    68    1
    18    31    33    1
    19    31    32    1
    20    35    38    1
    21    47    48    1
    22    47    46    1
    23    47    50    1
    24    71    68    1
    25    48    49    2
    26    57    58    1
    27    68    69    1
    28    52    50    1
    29    63    65   ar
    30    63    60   ar
    31    50    51    1
    32    38    39    1
    33    41    43   ar
    34    41    39   ar
    35    65    66   ar
    36    43    44   ar
    37    39    40   ar
    38    58    60   ar
    39    58    59   ar
    40    60    62   ar
    41    69    76   am
    42    69    70    2
    43    44    45    1
    44    44    42   ar
    45    40    42   ar
    46    76    77    1
    47    66    64   ar
    48    59    61   ar
    49    62    64   ar
    50    62    61   ar
    51    80    77    1
    52    80    81    1
    53    77    78    1
    54    81    82   ar
    55    81    83   ar
    56    82    84   ar
    57    83    85   ar
    58    78    79    2
    59    84    86   ar
    60    85    86   ar
    61   146   144    1
    62   144   145    1
    63   144   143    2
    64    87    88    1
    65    88    89    1
    66    88    91    1
    67    25    22    1
    68    25    26    1
    69    89    90    2
    70   143   142    1
    71   115   113    1
    72    92    91    1
    73    92    94    1
    74    20    19    2
    75    22    23    1
    76    22    21    1
    77    91    93    1
    78   116   114    1
    79   108   107   ar
    80   108   106   ar
    81    23    24    2
    82   142   141    1
    83   107   105   ar
    84   113   114    1
    85   113   110    1
    86    19    21   am
    87    19    18    1
    88    15    14   ar
    89   153   151    1
    90   106   104   ar
    91   109   110    1
    92   112   111    2
    93   140   141    1
    94   140   137    1
    95   105   102   ar
    96   110   111    1
    97    18    17    1
    98    98    97    2
    99   134   133    1
   100   138   137    1
   101   138   139    2
   102   123   122   ar
   103    14    16   ar
   104    14    13    1
   105   151   152    1
   106   151   148    1
   107   137   136    1
   108   104   102   ar
   109   104   103   ar
   110   128   127    2
   111   102   100   ar
   112   147   148    1
   113    97    96    1
   114   135   133    1
   115    13    10    1
   116   122   124   ar
   117   122   121    1
   118   148   149    1
   119   133   130    1
   120   127   126    1
   121   127   129   am
   122   103   101   ar
   123   130   129    1
   124   130   131    1
   125     6     5    1
   126     6     7    1
   127     6     8    1
   128    12    11    2
   129   100   101   ar
   130   100    99    1
   131   126   125    1
   132     5     2    1
   133   121   118    1
   134    96    95    1
   135    96    99    1
   136    10    11    1
   137    10     9    1
   138   149   150    2
   139     4     3    2
   140   131   132    2
   141     1     2    1
   142     2     3    1
   143   118   119    1
   144   118   117    1
   145   120   119    2
