@<TRIPOS>MOLECULE
tmp/3vv7A00.pdb
 205 199 0 0 0
SMALL
GASTEIGER

@<TRIPOS>ATOM
      1  N        -24.8170  -46.8360    0.4170 N.3    15  GLY15      -0.1210
      2  CA       -24.4290  -47.0880   -0.9750 C.3    15  GLY15       0.1956
      3  C        -24.4810  -45.8640   -1.8690 C.2    15  GLY15       0.2612
      4  O        -24.0990  -45.9310   -3.0410 O.2    15  GLY15      -0.2717
      5  N        -24.9200  -44.7430   -1.2970 N.am   16  GLN16      -0.1965
      6  CA       -25.1430  -43.4940   -2.0250 C.3    16  GLN16       0.1733
      7  C        -24.2460  -42.3270   -1.5890 C.2    16  GLN16       0.2617
      8  O        -24.4100  -41.2040   -2.0670 O.2    16  GLN16      -0.2715
      9  CB       -26.5900  -43.0700   -1.8570 C.3    16  GLN16       0.0408
     10  CG       -27.5710  -43.6740   -2.8500 C.3    16  GLN16       0.0908
     11  CD       -28.7220  -42.7370   -3.0980 C.2    16  GLN16       0.2608
     12  OE1      -29.8870  -43.1300   -3.0480 O.2    16  GLN16      -0.2717
     13  NE2      -28.4010  -41.4580   -3.3290 N.am   16  GLN16      -0.0878
     14  N        -23.3150  -42.5770   -0.6750 N.am   17  GLY17      -0.1940
     15  CA       -22.3740  -41.5440   -0.2750 C.3    17  GLY17       0.2014
     16  C        -22.9070  -40.5750    0.7530 C.2    17  GLY17       0.2638
     17  O        -24.1020  -40.5770    1.0750 O.2    17  GLY17      -0.2714
     18  N        -22.0100  -39.7300    1.2490 N.am   18  TYR18      -0.1973
     19  CA       -22.2970  -38.8350    2.3570 C.3    18  TYR18       0.1639
     20  C        -22.3060  -37.4020    1.8690 C.2    18  TYR18       0.2290
     21  O        -21.4450  -37.0150    1.0710 O.2    18  TYR18      -0.2864
     22  CB       -21.2250  -38.9870    3.4370 C.3    18  TYR18       0.0560
     23  CG       -21.2380  -40.3130    4.1590 C.ar   18  TYR18      -0.0198
     24  CD1      -21.7590  -40.4100    5.4480 C.ar   18  TYR18      -0.0009
     25  CD2      -20.7220  -41.4670    3.5670 C.ar   18  TYR18      -0.0009
     26  CE1      -21.7640  -41.6220    6.1380 C.ar   18  TYR18       0.0417
     27  CE2      -20.7410  -42.6840    4.2410 C.ar   18  TYR18       0.0417
     28  CZ       -21.2620  -42.7440    5.5320 C.ar   18  TYR18       0.1957
     29  OH       -21.2820  -43.9320    6.2270 O.3    18  TYR18      -0.2866
     30  N        -22.5300  -33.8470   -1.8090 N.3    34  LEU34      -0.1231
     31  CA       -21.7320  -35.0690   -1.6310 C.3    34  LEU34       0.1693
     32  C        -20.2550  -34.7520   -1.4090 C.2    34  LEU34       0.2592
     33  O        -19.6570  -34.0020   -2.1750 O.2    34  LEU34      -0.2718
     34  CB       -21.8920  -35.9910   -2.8420 C.3    34  LEU34       0.0284
     35  CG       -23.2920  -36.5640   -3.0770 C.3    34  LEU34       0.0019
     36  CD1      -23.3430  -37.3360   -4.3860 C.3    34  LEU34       0.0001
     37  CD2      -23.7150  -37.4460   -1.9130 C.3    34  LEU34       0.0001
     38  N        -19.6790  -35.3740   -0.3850 N.am   35  VAL35      -0.1966
     39  CA       -18.2820  -35.2230   -0.0230 C.3    35  VAL35       0.1727
     40  C        -17.4500  -36.3070   -0.7230 C.2    35  VAL35       0.2616
     41  O        -17.6050  -37.5160   -0.4470 O.2    35  VAL35      -0.2715
     42  CB       -18.1320  -35.2770    1.5330 C.3    35  VAL35       0.0290
     43  CG1      -16.6730  -35.3760    1.9430 C.3    35  VAL35       0.0023
     44  CG2      -18.7810  -34.0210    2.1620 C.3    35  VAL35       0.0023
     45  N        -16.5760  -35.8750   -1.6320 N.am   36  ASP36      -0.1971
     46  CA       -15.8620  -36.8010   -2.5120 C.3    36  ASP36       0.1709
     47  C        -14.3630  -36.5650   -2.4700 C.2    36  ASP36       0.2293
     48  O        -13.8690  -35.6150   -3.1030 O.2    36  ASP36      -0.2864
     49  CB       -16.3840  -36.6370   -3.9590 C.3    36  ASP36       0.1436
     50  CG       -15.8090  -37.6780   -4.9410 C.2    36  ASP36       0.3671
     51  OD1      -15.1660  -38.6480   -4.5170 O.co2  36  ASP36      -0.2456
     52  OD2      -16.0020  -37.5130   -6.1670 O.co2  36  ASP36      -0.2456
     53  N        -12.3050  -38.3210   -3.9350 N.3    38  GLY38      -0.1210
     54  CA       -11.8200  -38.9460   -5.1620 C.3    38  GLY38       0.1956
     55  C        -11.9760  -38.0690   -6.3870 C.2    38  GLY38       0.2612
     56  O        -11.7520  -38.5240   -7.5000 O.2    38  GLY38      -0.2717
     57  N        -12.3680  -36.8110   -6.1970 N.am   39  SER39      -0.1952
     58  CA       -12.3960  -35.8470   -7.2960 C.3    39  SER39       0.1924
     59  C        -12.0940  -34.4600   -6.7220 C.2    39  SER39       0.2314
     60  O        -11.9050  -34.3210   -5.5110 O.2    39  SER39      -0.2863
     61  CB       -13.7520  -35.8840   -8.0280 C.3    39  SER39       0.2116
     62  OG       -14.7900  -35.4690   -7.1530 O.3    39  SER39      -0.2180
     63  N        -17.4570  -33.4300  -17.9640 N.3    73  VAL73      -0.1245
     64  CA       -16.8810  -34.4730  -17.1110 C.3    73  VAL73       0.1561
     65  C        -17.5390  -35.8480  -17.3020 C.2    73  VAL73       0.2260
     66  O        -18.4980  -36.1980  -16.6070 O.2    73  VAL73      -0.2867
     67  CB       -16.8530  -34.0530  -15.6080 C.3    73  VAL73       0.0252
     68  CG1      -16.0670  -35.0610  -14.7900 C.3    73  VAL73       0.0019
     69  CG2      -16.2470  -32.6550  -15.4460 C.3    73  VAL73       0.0019
     70  N        -17.3330  -39.7770  -16.7830 N.3    75  TYR75      -0.1227
     71  CA       -16.7370  -40.6940  -15.8840 C.3    75  TYR75       0.1736
     72  C        -17.4370  -41.9790  -16.2240 C.2    75  TYR75       0.2596
     73  O        -17.9570  -42.0960  -17.2900 O.2    75  TYR75      -0.2718
     74  CB       -16.9670  -40.2610  -14.4390 C.3    75  TYR75       0.0548
     75  CG       -18.3800  -40.0260  -14.0580 C.ar   75  TYR75      -0.0200
     76  CD1      -19.0990  -40.9980  -13.4420 C.ar   75  TYR75      -0.0009
     77  CD2      -18.9870  -38.8200  -14.2810 C.ar   75  TYR75      -0.0009
     78  CE1      -20.3680  -40.7960  -13.1000 C.ar   75  TYR75       0.0417
     79  CE2      -20.2400  -38.6140  -13.9510 C.ar   75  TYR75       0.0417
     80  CZ       -20.9390  -39.5910  -13.3560 C.ar   75  TYR75       0.1957
     81  OH       -22.2140  -39.4010  -12.9820 O.3    75  TYR75      -0.2866
     82  N        -17.4750  -42.9300  -15.3070 N.am   76  THR76      -0.1953
     83  CA       -17.8700  -44.2950  -15.5840 C.3    76  THR76       0.1897
     84  C        -19.3450  -44.5620  -15.3040 C.2    76  THR76       0.2313
     85  O        -19.7580  -44.7960  -14.1850 O.2    76  THR76      -0.2863
     86  CB       -16.9010  -45.2920  -14.8500 C.3    76  THR76       0.1794
     87  OG1      -15.5560  -44.8530  -15.0190 O.3    76  THR76      -0.2208
     88  CG2      -16.9550  -46.6090  -15.4480 C.3    76  THR76       0.0378
     89  N        -21.3910  -35.5080  -16.1600 N.3    80  TRP80      -0.1241
     90  CA       -21.9570  -34.1870  -15.8980 C.3    80  TRP80       0.1605
     91  C        -21.2040  -33.1300  -16.6810 C.2    80  TRP80       0.2264
     92  O        -20.0110  -33.2720  -16.9540 O.2    80  TRP80      -0.2867
     93  CB       -22.0290  -33.8530  -14.3920 C.3    80  TRP80       0.0550
     94  CG       -20.7270  -33.6030  -13.6930 C.ar   80  TRP80       0.0003
     95  CD1      -20.0200  -34.4960  -12.9200 C.ar   80  TRP80       0.0946
     96  CD2      -19.9840  -32.3790  -13.6670 C.ar   80  TRP80       0.0152
     97  NE1      -18.8720  -33.9030  -12.4370 N.ar   80  TRP80      -0.2442
     98  CE2      -18.8300  -32.6050  -12.8690 C.ar   80  TRP80       0.0810
     99  CE3      -20.1760  -31.1120  -14.2410 C.ar   80  TRP80       0.0012
    100  CZ2      -17.8760  -31.6100  -12.6290 C.ar   80  TRP80       0.0191
    101  CZ3      -19.2250  -30.1280  -14.0080 C.ar   80  TRP80       0.0001
    102  CH2      -18.0860  -30.3850  -13.2080 C.ar   80  TRP80       0.0015
    103  N        -27.0040  -40.0100  -15.7460 N.3   111  LYS111     -0.1231
    104  CA       -26.7480  -40.9630  -14.6440 C.3   111  LYS111      0.1693
    105  C        -26.0130  -40.3300  -13.4630 C.2   111  LYS111      0.2592
    106  O        -25.2800  -41.0120  -12.7390 O.2   111  LYS111     -0.2718
    107  CB       -25.9370  -42.1890  -15.1300 C.3   111  LYS111      0.0285
    108  CG       -26.5410  -42.9440  -16.3210 C.3   111  LYS111      0.0035
    109  CD       -25.5130  -43.9210  -16.9080 C.3   111  LYS111      0.0206
    110  CE       -26.0160  -44.6260  -18.1510 C.3   111  LYS111      0.1093
    111  NZ       -26.1060  -43.7520  -19.3710 N.3   111  LYS111     -0.1314
    112  N        -26.2000  -39.0300  -13.2640 N.am  112  PHE112     -0.1976
    113  CA       -25.4430  -38.3350  -12.2220 C.3   112  PHE112      0.1639
    114  C        -26.3070  -38.1550  -11.0000 C.2   112  PHE112      0.2290
    115  O        -26.0110  -38.7100   -9.9440 O.2   112  PHE112     -0.2864
    116  CB       -24.9030  -36.9930  -12.7080 C.3   112  PHE112      0.0560
    117  CG       -24.1300  -36.2430  -11.6620 C.ar  112  PHE112     -0.0200
    118  CD1      -22.8570  -36.6770  -11.2710 C.ar  112  PHE112     -0.0042
    119  CD2      -24.6690  -35.1050  -11.0660 C.ar  112  PHE112     -0.0042
    120  CE1      -22.1250  -35.9930  -10.2960 C.ar  112  PHE112     -0.0003
    121  CE2      -23.9480  -34.3930  -10.1000 C.ar  112  PHE112     -0.0003
    122  CZ       -22.6670  -34.8440   -9.7050 C.ar  112  PHE112     -0.0000
    123  N        -29.4320  -35.1150   -2.4910 N.3   119  TRP119     -0.1241
    124  CA       -28.2830  -34.2420   -2.7120 C.3   119  TRP119      0.1605
    125  C        -28.3490  -33.5980   -4.0960 C.2   119  TRP119      0.2264
    126  O        -29.0050  -34.1180   -5.0180 O.2   119  TRP119     -0.2867
    127  CB       -26.9570  -34.9860   -2.4870 C.3   119  TRP119      0.0550
    128  CG       -26.8240  -36.2330   -3.2940 C.ar  119  TRP119      0.0003
    129  CD1      -27.1340  -37.5230   -2.8970 C.ar  119  TRP119      0.0946
    130  CD2      -26.3860  -36.3280   -4.6520 C.ar  119  TRP119      0.0152
    131  NE1      -26.8930  -38.3960   -3.9250 N.ar  119  TRP119     -0.2442
    132  CE2      -26.4370  -37.6930   -5.0120 C.ar  119  TRP119      0.0810
    133  CE3      -25.9450  -35.3920   -5.5980 C.ar  119  TRP119      0.0012
    134  CZ2      -26.0480  -38.1440   -6.2790 C.ar  119  TRP119      0.0191
    135  CZ3      -25.5700  -35.8370   -6.8560 C.ar  119  TRP119      0.0001
    136  CH2      -25.6230  -37.1970   -7.1850 C.ar  119  TRP119      0.0015
    137  N        -21.7590  -31.9500   -5.7400 N.3   122  ILE122     -0.1245
    138  CA       -20.5920  -32.7120   -5.3290 C.3   122  ILE122      0.1561
    139  C        -19.4470  -31.7580   -4.9340 C.2   122  ILE122      0.2260
    140  O        -19.2550  -30.6980   -5.5620 O.2   122  ILE122     -0.2867
    141  CB       -20.1680  -33.7380   -6.4280 C.3   122  ILE122      0.0252
    142  CG1      -19.0060  -34.6030   -5.9450 C.3   122  ILE122      0.0019
    143  CG2      -19.7850  -33.0590   -7.7450 C.3   122  ILE122      0.0019
    144  CD1      -18.5760  -35.6370   -6.9770 C.3   122  ILE122      0.0001
    145  N        -11.0280  -30.6650  -13.3900 N.3   132  ARG132     -0.1245
    146  CA       -11.3320  -30.4250  -14.7930 C.3   132  ARG132      0.1563
    147  C        -11.8140  -29.0120  -15.0030 C.2   132  ARG132      0.2260
    148  O        -12.4040  -28.4670  -14.1210 O.2   132  ARG132     -0.2867
    149  CB       -12.3100  -31.4340  -15.3360 C.3   132  ARG132      0.0307
    150  CG       -12.2730  -32.7030  -14.6290 C.3   132  ARG132      0.0489
    151  CD       -11.5980  -33.7840  -15.3590 C.3   132  ARG132      0.2205
    152  NE       -12.3160  -34.9890  -15.0460 N.pl3 132  ARG132     -0.0865
    153  CZ       -11.8490  -36.0160  -14.3500 C.cat 132  ARG132      0.5346
    154  NH1      -12.6380  -37.0490  -14.1220 N.pl3 132  ARG132      0.1354
    155  NH2      -10.6180  -36.0140  -13.8750 N.pl3 132  ARG132      0.1354
    156  N        -10.9690  -42.8890   -0.8790 N.3   220  ASP220     -0.1225
    157  CA       -12.0490  -42.2890   -1.6640 C.3   220  ASP220      0.1805
    158  C        -13.4120  -42.3720   -1.0080 C.2   220  ASP220      0.2598
    159  O        -14.0880  -43.4160   -1.0670 O.2   220  ASP220     -0.2718
    160  CB       -12.0950  -42.9090   -3.0690 C.3   220  ASP220      0.1424
    161  CG       -13.1110  -42.2310   -3.9640 C.2   220  ASP220      0.3668
    162  OD1      -13.6030  -41.1430   -3.5770 O.co2 220  ASP220     -0.2456
    163  OD2      -13.4290  -42.7890   -5.0410 O.co2 220  ASP220     -0.2456
    164  N        -13.8280  -41.2640   -0.4020 N.am  221  SER221     -0.1938
    165  CA       -15.1310  -41.1930    0.2400 C.3   221  SER221      0.2055
    166  C        -16.2590  -41.3120   -0.7870 C.2   221  SER221      0.2644
    167  O        -17.4030  -41.5070   -0.4190 O.2   221  SER221     -0.2714
    168  CB       -15.2770  -39.8920    1.0000 C.3   221  SER221      0.2130
    169  OG       -15.3420  -38.7950    0.1070 O.3   221  SER221     -0.2179
    170  N        -15.9270  -41.1530   -2.0670 N.am  222  GLY222     -0.1939
    171  CA       -16.9250  -41.2160   -3.1570 C.3   222  GLY222      0.2014
    172  C        -17.1130  -42.6050   -3.7520 C.2   222  GLY222      0.2640
    173  O        -17.8020  -42.7530   -4.7640 O.2   222  GLY222     -0.2714
    174  N        -16.5040  -43.6210   -3.1370 N.am  223  THR223     -0.1936
    175  CA       -16.6920  -45.0250   -3.5470 C.3   223  THR223      0.2028
    176  C        -17.2540  -45.8140   -2.3720 C.2   223  THR223      0.2642
    177  O        -16.7630  -45.6890   -1.2600 O.2   223  THR223     -0.2714
    178  CB       -15.3690  -45.6840   -4.0270 C.3   223  THR223      0.1808
    179  OG1      -14.8890  -45.0220   -5.2000 O.3   223  THR223     -0.2208
    180  CG2      -15.5580  -47.1650   -4.3490 C.3   223  THR223      0.0379
    181  N        -18.2840  -46.6210   -2.6130 N.am  224  THR224     -0.1950
    182  CA       -18.8890  -47.4300   -1.5450 C.3   224  THR224      0.1897
    183  C        -17.9660  -48.5670   -1.1180 C.2   224  THR224      0.2313
    184  O        -17.7240  -48.7870    0.0760 O.2   224  THR224     -0.2863
    185  CB       -20.2440  -48.0370   -1.9790 C.3   224  THR224      0.1794
    186  OG1      -21.1360  -46.9910   -2.3630 O.3   224  THR224     -0.2208
    187  CG2      -20.8780  -48.8330   -0.8410 C.3   224  THR224      0.0378
    188  N        -12.3160  -51.6530   -3.2780 N.3   227  ARG227     -0.1245
    189  CA       -12.0570  -52.1280   -4.6260 C.3   227  ARG227      0.1563
    190  C        -10.5820  -52.4840   -4.7930 C.2   227  ARG227      0.2260
    191  O         -9.7020  -51.7170   -4.4030 O.2   227  ARG227     -0.2867
    192  CB       -12.4810  -51.0820   -5.6520 C.3   227  ARG227      0.0307
    193  CG       -13.9400  -50.6430   -5.5190 C.3   227  ARG227      0.0489
    194  CD       -14.3320  -49.7190   -6.6580 C.3   227  ARG227      0.2205
    195  NE       -14.2780  -50.4020   -7.9440 N.pl3 227  ARG227     -0.0865
    196  CZ       -13.8650  -49.8440   -9.0770 C.cat 227  ARG227      0.5346
    197  NH1      -13.4640  -48.5810   -9.0970 N.pl3 227  ARG227      0.1354
    198  NH2      -13.8390  -50.5630  -10.1980 N.pl3 227  ARG227      0.1354
    199  N         -9.0850  -49.0600   -4.2770 N.3   308  VAL308     -0.1245
    200  CA        -9.8590  -47.9210   -3.8250 C.3   308  VAL308      0.1561
    201  C        -10.3690  -48.2420   -2.4320 C.2   308  VAL308      0.2260
    202  O        -11.2320  -49.1130   -2.2460 O.2   308  VAL308     -0.2867
    203  CB       -11.0860  -47.6120   -4.7450 C.3   308  VAL308      0.0252
    204  CG1      -11.8010  -46.3370   -4.2590 C.3   308  VAL308      0.0019
    205  CG2      -10.6880  -47.4620   -6.2020 C.3   308  VAL308      0.0019
@<TRIPOS>BOND
     1   111   110    1
     2   110   109    1
     3    63    64    1
     4    65    64    1
     5    65    66    2
     6    73    72    2
     7    64    67    1
     8    92    91    2
     9   109   108    1
    10    70    71    1
    11    91    90    1
    12   108   107    1
    13    72    71    1
    14    72    82   am
    15    89    90    1
    16    90    93    1
    17    71    74    1
    18   103   104    1
    19    67    69    1
    20    67    68    1
    21    83    82    1
    22    83    84    1
    23    83    86    1
    24    88    86    1
    25   151   152    1
    26   151   150    1
    27   149   146    1
    28   149   150    1
    29    84    85    2
    30   107   104    1
    31   152   153    2
    32    87    86    1
    33   147   146    1
    34   147   148    2
    35   146   145    1
    36   104   105    1
    37    74    75    1
    38    93    94    1
    39   153   154    1
    40   153   155    1
    41    77    75   ar
    42    77    79   ar
    43    99   101   ar
    44    99    96   ar
    45    75    76   ar
    46   101   102   ar
    47    79    80   ar
    48    94    96   ar
    49    94    95   ar
    50    96    98   ar
    51   105   112   am
    52   105   106    2
    53    76    78   ar
    54    80    78   ar
    55    80    81    1
    56   112   113    1
    57   102   100   ar
    58    95    97   ar
    59    98   100   ar
    60    98    97   ar
    61   116   113    1
    62   116   117    1
    63   113   114    1
    64   117   118   ar
    65   117   119   ar
    66   118   120   ar
    67   119   121   ar
    68   114   115    2
    69   120   122   ar
    70   198   196    1
    71   121   122   ar
    72   197   196    1
    73   196   195    2
    74    61    58    1
    75    61    62    1
    76   195   194    1
    77   143   141    1
    78    56    55    2
    79    58    59    1
    80    58    57    1
    81   136   135   ar
    82   136   134   ar
    83   144   142    1
    84   135   133   ar
    85    59    60    2
    86   194   193    1
    87   141   142    1
    88   141   138    1
    89    55    57   am
    90    55    54    1
    91   134   132   ar
    92   205   203    1
    93    52    50   ar
    94   137   138    1
    95   192   193    1
    96   192   189    1
    97   133   130   ar
    98   140   139    2
    99   138   139    1
   100   179   178    1
   101    54    53    1
   102   163   161   ar
   103   126   125    2
   104   132   130   ar
   105   132   131   ar
   106    50    51   ar
   107    50    49    1
   108   190   189    1
   109   190   191    2
   110   173   172    2
   111   203   204    1
   112   203   200    1
   113   130   128   ar
   114   189   188    1
   115    36    35    1
   116   180   178    1
   117   199   200    1
   118   125   124    1
   119   178   175    1
   120   161   162   ar
   121   161   160    1
   122    49    46    1
   123   131   129   ar
   124   200   201    1
   125   172   171    1
   126   172   174   am
   127   175   174    1
   128   175   176    1
   129    13    11   am
   130   128   129   ar
   131   128   127    1
   132   171   170    1
   133    48    47    2
   134    11    12    2
   135    11    10    1
   136    35    34    1
   137    35    37    1
   138   160   157    1
   139     4     3    2
   140    10     9    1
   141    34    31    1
   142   124   123    1
   143   124   127    1
   144   181   176   am
   145   181   182    1
   146    46    47    1
   147    46    45    1
   148   201   202    2
   149   176   177    2
   150   186   185    1
   151    33    32    2
   152     8     7    2
   153   170   166   am
   154     6     9    1
   155     6     7    1
   156     6     5    1
   157   185   182    1
   158   185   187    1
   159     3     5   am
   160     3     2    1
   161    30    31    1
   162   157   158    1
   163   157   156    1
   164    45    40   am
   165    31    32    1
   166     7    14   am
   167   182   183    1
   168    32    38   am
   169   183   184    2
   170   159   158    2
   171   158   164   am
   172     2     1    1
   173   166   167    2
   174   166   165    1
   175    40    41    2
   176    40    39    1
   177    14    15    1
   178   164   165    1
   179    38    39    1
   180    15    16    1
   181    39    42    1
   182   169   168    1
   183   165   168    1
   184    16    17    2
   185    16    18   am
   186    21    20    2
   187    18    19    1
   188    42    43    1
   189    42    44    1
   190    20    19    1
   191    19    22    1
   192    22    23    1
   193    25    23   ar
   194    25    27   ar
   195    23    24   ar
   196    27    28   ar
   197    24    26   ar
   198    28    26   ar
   199    28    29    1
