@<TRIPOS>MOLECULE
tmp/3vv8A00.pdb
 183 175 0 0 0
SMALL
GASTEIGER

@<TRIPOS>ATOM
      1  N         26.5870   45.1250    0.4540 N.3    13  GLY13      -0.1210
      2  CA        26.1210   45.3180   -0.9060 C.3    13  GLY13       0.1956
      3  C         26.1500   44.0590   -1.7600 C.2    13  GLY13       0.2612
      4  O         25.7210   44.0940   -2.9070 O.2    13  GLY13      -0.2717
      5  N         26.6430   42.9480   -1.2120 N.am   14  GLN14      -0.1965
      6  CA        26.7550   41.7020   -1.9810 C.3    14  GLN14       0.1733
      7  C         25.7440   40.6200   -1.5370 C.2    14  GLN14       0.2616
      8  O         25.7910   39.4870   -2.0190 O.2    14  GLN14      -0.2715
      9  CB        28.2010   41.1640   -1.9460 C.3    14  GLN14       0.0408
     10  CG        29.2630   42.2690   -2.0210 C.3    14  GLN14       0.0908
     11  CD        30.6650   41.7830   -2.4030 C.2    14  GLN14       0.2608
     12  OE1       31.1770   40.7970   -1.8520 O.2    14  GLN14      -0.2717
     13  NE2       31.3010   42.4980   -3.3340 N.am   14  GLN14      -0.0878
     14  N         24.8380   40.9770   -0.6250 N.am   15  GLY15      -0.1955
     15  CA        23.7290   40.1160   -0.2380 C.3    15  GLY15       0.1869
     16  C         24.0040   39.2540    0.9760 C.2    15  GLY15       0.2309
     17  O         25.1310   39.2090    1.4740 O.2    15  GLY15      -0.2863
     18  N         23.1970   32.5790   -1.5140 N.3    32  LEU32      -0.1245
     19  CA        22.5300   33.8410   -1.2790 C.3    32  LEU32       0.1561
     20  C         21.0340   33.6500   -1.0830 C.2    32  LEU32       0.2260
     21  O         20.3490   32.9850   -1.8640 O.2    32  LEU32      -0.2867
     22  CB        22.8150   34.7910   -2.4420 C.3    32  LEU32       0.0270
     23  CG        22.1750   36.1760   -2.4290 C.3    32  LEU32       0.0019
     24  CD1       23.0870   37.1890   -3.0700 C.3    32  LEU32       0.0001
     25  CD2       20.8260   36.1490   -3.1370 C.3    32  LEU32       0.0001
     26  N         17.4480   34.7170   -1.2820 N.3    34  ASP34      -0.1239
     27  CA        16.7270   35.6440   -2.1490 C.3    34  ASP34       0.1674
     28  C         15.1950   35.4770   -2.1000 C.2    34  ASP34       0.2266
     29  O         14.6410   34.6190   -2.7740 O.2    34  ASP34      -0.2867
     30  CB        17.2550   35.4840   -3.5740 C.3    34  ASP34       0.1410
     31  CG        16.5840   36.4170   -4.5690 C.2    34  ASP34       0.3668
     32  OD1       16.0600   37.4690   -4.1710 O.co2  34  ASP34      -0.2456
     33  OD2       16.5890   36.0880   -5.7720 O.co2  34  ASP34      -0.2456
     34  N         13.1690   37.2520   -3.4070 N.3    36  GLY36      -0.1210
     35  CA        12.6660   37.8420   -4.6320 C.3    36  GLY36       0.1956
     36  C         12.6400   36.8960   -5.8220 C.2    36  GLY36       0.2612
     37  O         12.2040   37.2850   -6.9020 O.2    36  GLY36      -0.2717
     38  N         13.1020   35.6610   -5.6410 N.am   37  SER37      -0.1952
     39  CA        13.0630   34.6780   -6.7200 C.3    37  SER37       0.1924
     40  C         12.7630   33.3110   -6.1420 C.2    37  SER37       0.2314
     41  O         12.6810   33.1730   -4.9410 O.2    37  SER37      -0.2863
     42  CB        14.3670   34.6760   -7.5450 C.3    37  SER37       0.2116
     43  OG        15.4290   33.9870   -6.9090 O.3    37  SER37      -0.2180
     44  N         17.7230   32.1660  -17.6140 N.3    71  VAL71      -0.1245
     45  CA        17.1550   33.1750  -16.7460 C.3    71  VAL71       0.1561
     46  C         17.7300   34.5590  -17.0260 C.2    71  VAL71       0.2260
     47  O         18.6330   35.0160  -16.3220 O.2    71  VAL71      -0.2867
     48  CB        17.3600   32.8040  -15.2780 C.3    71  VAL71       0.0252
     49  CG1       16.6280   33.7820  -14.3910 C.3    71  VAL71       0.0019
     50  CG2       16.8810   31.3730  -15.0340 C.3    71  VAL71       0.0019
     51  N         17.5820   38.4170  -16.6310 N.3    73  TYR73      -0.1227
     52  CA        16.9500   39.3810  -15.7630 C.3    73  TYR73       0.1736
     53  C         17.5680   40.7130  -16.1510 C.2    73  TYR73       0.2596
     54  O         18.2960   40.7890  -17.1470 O.2    73  TYR73      -0.2718
     55  CB        17.1460   39.0230  -14.2780 C.3    73  TYR73       0.0548
     56  CG        18.5870   38.8230  -13.8710 C.ar   73  TYR73      -0.0200
     57  CD1       19.2630   39.8020  -13.1550 C.ar   73  TYR73      -0.0009
     58  CD2       19.2690   37.6590  -14.2050 C.ar   73  TYR73      -0.0009
     59  CE1       20.5730   39.6320  -12.7850 C.ar   73  TYR73       0.0417
     60  CE2       20.5810   37.4780  -13.8420 C.ar   73  TYR73       0.0417
     61  CZ        21.2320   38.4700  -13.1310 C.ar   73  TYR73       0.1957
     62  OH        22.5530   38.3110  -12.7560 O.3    73  TYR73      -0.2866
     63  N         17.2780   41.7490  -15.3770 N.am   74  THR74      -0.1953
     64  CA        17.6500   43.1160  -15.7330 C.3    74  THR74       0.1897
     65  C         19.0360   43.2470  -16.3880 C.2    74  THR74       0.2313
     66  O         19.1930   43.9330  -17.4090 O.2    74  THR74      -0.2863
     67  CB        17.5440   44.0150  -14.5020 C.3    74  THR74       0.1794
     68  OG1       16.6210   43.4190  -13.5790 O.3    74  THR74      -0.2208
     69  CG2       17.0530   45.4080  -14.9000 C.3    74  THR74       0.0378
     70  N         21.6590   34.0510  -15.9960 N.3    78  TRP78      -0.1241
     71  CA        22.2830   32.7430  -15.7930 C.3    78  TRP78       0.1605
     72  C         21.5560   31.6170  -16.5610 C.2    78  TRP78       0.2264
     73  O         20.3790   31.7230  -16.8710 O.2    78  TRP78      -0.2867
     74  CB        22.4510   32.3990  -14.3030 C.3    78  TRP78       0.0550
     75  CG        21.1760   32.1290  -13.5220 C.ar   78  TRP78       0.0003
     76  CD1       20.5070   33.0080  -12.7060 C.ar   78  TRP78       0.0946
     77  CD2       20.4470   30.8960  -13.4590 C.ar   78  TRP78       0.0152
     78  NE1       19.4130   32.3990  -12.1470 N.ar   78  TRP78      -0.2442
     79  CE2       19.3490   31.1030  -12.5910 C.ar   78  TRP78       0.0810
     80  CE3       20.6110   29.6370  -14.0510 C.ar   78  TRP78       0.0012
     81  CZ2       18.4180   30.0980  -12.3040 C.ar   78  TRP78       0.0191
     82  CZ3       19.6850   28.6340  -13.7550 C.ar   78  TRP78       0.0001
     83  CH2       18.6030   28.8740  -12.8910 C.ar   78  TRP78       0.0015
     84  N         27.1910   38.7560  -15.4630 N.3   109  LYS109     -0.1231
     85  CA        26.8870   39.7900  -14.4800 C.3   109  LYS109      0.1693
     86  C         25.9990   39.2500  -13.3710 C.2   109  LYS109      0.2592
     87  O         25.2090   39.9740  -12.7750 O.2   109  LYS109     -0.2718
     88  CB        26.3010   41.0290  -15.1590 C.3   109  LYS109      0.0285
     89  CG        27.4060   41.9230  -15.7170 C.3   109  LYS109      0.0035
     90  CD        26.9530   42.9220  -16.7660 C.3   109  LYS109      0.0206
     91  CE        28.1600   43.7500  -17.2200 C.3   109  LYS109      0.1093
     92  NZ        27.8990   44.5570  -18.4310 N.3   109  LYS109     -0.1314
     93  N         26.1560   37.9580  -13.1050 N.am  110  PHE110     -0.1976
     94  CA        25.4690   37.2970  -12.0080 C.3   110  PHE110      0.1639
     95  C         26.3230   37.0600  -10.7520 C.2   110  PHE110      0.2290
     96  O         25.9630   37.4840   -9.6590 O.2   110  PHE110     -0.2864
     97  CB        24.9580   35.9340  -12.4540 C.3   110  PHE110      0.0560
     98  CG        24.1800   35.2200  -11.4020 C.ar  110  PHE110     -0.0200
     99  CD1       22.9780   35.7400  -10.9400 C.ar  110  PHE110     -0.0042
    100  CD2       24.6420   34.0430  -10.8680 C.ar  110  PHE110     -0.0042
    101  CE1       22.2520   35.0930   -9.9690 C.ar  110  PHE110     -0.0003
    102  CE2       23.9160   33.3830   -9.8930 C.ar  110  PHE110     -0.0003
    103  CZ        22.7140   33.9140   -9.4450 C.ar  110  PHE110     -0.0000
    104  N         29.4650   37.7220   -8.2890 N.3   112  ILE112     -0.1245
    105  CA        30.2190   38.9330   -7.9980 C.3   112  ILE112      0.1561
    106  C         31.7010   38.6840   -7.7580 C.2   112  ILE112      0.2260
    107  O         32.0900   37.8970   -6.8940 O.2   112  ILE112     -0.2867
    108  CB        29.6300   39.7160   -6.8230 C.3   112  ILE112      0.0252
    109  CG1       28.2230   40.1970   -7.1730 C.3   112  ILE112      0.0019
    110  CG2       30.5260   40.9040   -6.4850 C.3   112  ILE112      0.0019
    111  CD1       27.3720   40.5170   -5.9580 C.3   112  ILE112      0.0001
    112  N         29.8190   33.9230   -2.1510 N.3   117  TRP117     -0.1241
    113  CA        28.7440   32.9870   -2.4030 C.3   117  TRP117      0.1605
    114  C         28.8140   32.4600   -3.8310 C.2   117  TRP117      0.2264
    115  O         29.2620   33.1540   -4.7290 O.2   117  TRP117     -0.2867
    116  CB        27.3780   33.5810   -2.0660 C.3   117  TRP117      0.0550
    117  CG        27.0480   34.8750   -2.7230 C.ar  117  TRP117      0.0003
    118  CD1       27.1740   36.1090   -2.1800 C.ar  117  TRP117      0.0946
    119  CD2       26.5030   35.0690   -4.0330 C.ar  117  TRP117      0.0152
    120  NE1       26.7470   37.0580   -3.0600 N.ar  117  TRP117     -0.2442
    121  CE2       26.3280   36.4460   -4.2060 C.ar  117  TRP117      0.0810
    122  CE3       26.1490   34.2140   -5.0740 C.ar  117  TRP117      0.0012
    123  CZ2       25.8170   36.9900   -5.3820 C.ar  117  TRP117      0.0191
    124  CZ3       25.6350   34.7440   -6.2290 C.ar  117  TRP117      0.0001
    125  CH2       25.4760   36.1220   -6.3800 C.ar  117  TRP117      0.0015
    126  N         22.3840   30.6900   -5.4970 N.3   120  ILE120     -0.1245
    127  CA        21.2270   31.4340   -5.0340 C.3   120  ILE120      0.1561
    128  C         20.0880   30.5350   -4.5480 C.2   120  ILE120      0.2260
    129  O         19.7700   29.5190   -5.1590 O.2   120  ILE120     -0.2867
    130  CB        20.7220   32.4380   -6.0930 C.3   120  ILE120      0.0252
    131  CG1       19.4800   33.1460   -5.5830 C.3   120  ILE120      0.0019
    132  CG2       20.4090   31.7470   -7.4120 C.3   120  ILE120      0.0019
    133  CD1       19.1080   34.3490   -6.4090 C.3   120  ILE120      0.0001
    134  N         12.0090   41.9570   -0.5580 N.3   219  ASP219     -0.1225
    135  CA        13.0960   41.3280   -1.3080 C.3   219  ASP219      0.1805
    136  C         14.4640   41.3580   -0.6310 C.2   219  ASP219      0.2598
    137  O         15.1930   42.3330   -0.7440 O.2   219  ASP219     -0.2718
    138  CB        13.2130   41.9600   -2.6860 C.3   219  ASP219      0.1424
    139  CG        14.1420   41.1810   -3.5930 C.2   219  ASP219      0.3668
    140  OD1       14.5140   40.0460   -3.1980 O.co2 219  ASP219     -0.2456
    141  OD2       14.4920   41.6910   -4.6870 O.co2 219  ASP219     -0.2456
    142  N         14.8260   40.2730    0.0420 N.am  220  SER220     -0.1938
    143  CA        16.1390   40.1900    0.6600 C.3   220  SER220      0.2055
    144  C         17.2320   40.2280   -0.4170 C.2   220  SER220      0.2644
    145  O         18.4110   40.3920   -0.1230 O.2   220  SER220     -0.2714
    146  CB        16.2480   38.9140    1.4870 C.3   220  SER220      0.2130
    147  OG        16.1750   37.7770    0.6470 O.3   220  SER220     -0.2179
    148  N         16.8090   40.0670   -1.6660 N.am  221  GLY221     -0.1939
    149  CA        17.7050   40.0690   -2.8050 C.3   221  GLY221      0.2014
    150  C         18.0910   41.4610   -3.2740 C.2   221  GLY221      0.2640
    151  O         18.9770   41.6060   -4.1140 O.2   221  GLY221     -0.2714
    152  N         17.4380   42.4860   -2.7310 N.am  222  THR222     -0.1936
    153  CA        17.7130   43.8690   -3.1340 C.3   222  THR222      0.2028
    154  C         18.3110   44.6730   -1.9980 C.2   222  THR222      0.2642
    155  O         17.9570   44.4970   -0.8380 O.2   222  THR222     -0.2714
    156  CB        16.4410   44.5870   -3.6540 C.3   222  THR222      0.1808
    157  OG1       15.9980   43.9700   -4.8640 O.3   222  THR222     -0.2208
    158  CG2       16.7060   46.0650   -3.9260 C.3   222  THR222      0.0379
    159  N         19.2370   45.5540   -2.3310 N.am  223  THR223     -0.1950
    160  CA        19.8210   46.4260   -1.3360 C.3   223  THR223      0.1897
    161  C         18.9130   47.6200   -1.0700 C.2   223  THR223      0.2313
    162  O         18.7090   48.0130    0.0710 O.2   223  THR223     -0.2863
    163  CB        21.2060   46.9210   -1.7890 C.3   223  THR223      0.1794
    164  OG1       22.0580   45.7950   -2.0060 O.3   223  THR223     -0.2208
    165  CG2       21.8380   47.8460   -0.7540 C.3   223  THR223      0.0378
    166  N         13.2350   50.6090   -3.2150 N.3   226  ARG226     -0.1245
    167  CA        12.9860   51.0400   -4.5680 C.3   226  ARG226      0.1563
    168  C         11.5090   51.3980   -4.7350 C.2   226  ARG226      0.2260
    169  O         10.6270   50.5760   -4.4540 O.2   226  ARG226     -0.2867
    170  CB        13.3910   49.9280   -5.5430 C.3   226  ARG226      0.0307
    171  CG        14.8730   49.5580   -5.4540 C.3   226  ARG226      0.0489
    172  CD        15.2820   48.4660   -6.4450 C.3   226  ARG226      0.2205
    173  NE        15.1170   48.8480   -7.8490 N.pl3 226  ARG226     -0.0865
    174  CZ        14.6530   48.0250   -8.7880 C.cat 226  ARG226      0.5346
    175  NH1       14.3090   46.7870   -8.4680 N.pl3 226  ARG226      0.1354
    176  NH2       14.5300   48.4310  -10.0440 N.pl3 226  ARG226      0.1354
    177  N         10.1900   47.9840   -4.2010 N.3   305  VAL305     -0.1245
    178  CA        10.9600   46.8630   -3.6860 C.3   305  VAL305      0.1561
    179  C         11.4420   47.1920   -2.2910 C.2   305  VAL305      0.2260
    180  O         12.2170   48.1380   -2.0930 O.2   305  VAL305     -0.2867
    181  CB        12.1530   46.4730   -4.6070 C.3   305  VAL305      0.0252
    182  CG1       13.0510   45.4780   -3.9100 C.3   305  VAL305      0.0019
    183  CG2       11.6440   45.9040   -5.9230 C.3   305  VAL305      0.0019
@<TRIPOS>BOND
     1    92    91    1
     2    44    45    1
     3    66    65    2
     4    91    90    1
     5    54    53    2
     6    46    45    1
     7    46    47    2
     8    73    72    2
     9    90    89    1
    10    45    48    1
    11    51    52    1
    12    72    71    1
    13    65    64    1
    14    53    52    1
    15    53    63   am
    16    70    71    1
    17    71    74    1
    18    52    55    1
    19    64    63    1
    20    64    67    1
    21    89    88    1
    22    84    85    1
    23    48    50    1
    24    48    49    1
    25    88    85    1
    26    69    67    1
    27    67    68    1
    28    85    86    1
    29    74    75    1
    30    55    56    1
    31    58    56   ar
    32    58    60   ar
    33    80    82   ar
    34    80    77   ar
    35    56    57   ar
    36    60    61   ar
    37    82    83   ar
    38    75    77   ar
    39    75    76   ar
    40    77    79   ar
    41    86    93   am
    42    86    87    2
    43    57    59   ar
    44    61    59   ar
    45    61    62    1
    46    93    94    1
    47    83    81   ar
    48    76    78   ar
    49    79    81   ar
    50    79    78   ar
    51    97    94    1
    52    97    98    1
    53    94    95    1
    54    98    99   ar
    55    98   100   ar
    56    99   101   ar
    57   100   102   ar
    58    95    96    2
    59   176   174    1
    60   101   103   ar
    61   102   103   ar
    62   174   175    1
    63   174   173    2
    64   104   105    1
    65   105   106    1
    66   105   108    1
    67   173   172    1
    68   106   107    2
    69    42    43    1
    70    42    39    1
    71   132   130    1
    72   109   108    1
    73   109   111    1
    74    37    36    2
    75   108   110    1
    76    39    40    1
    77    39    38    1
    78   172   171    1
    79   133   131    1
    80   125   124   ar
    81   125   123   ar
    82   124   122   ar
    83    40    41    2
    84   130   131    1
    85   130   127    1
    86   183   181    1
    87    36    38   am
    88    36    35    1
    89    33    31   ar
    90   170   171    1
    91   170   167    1
    92   126   127    1
    93   123   121   ar
    94   129   128    2
    95   122   119   ar
    96   127   128    1
    97   157   156    1
    98   168   167    1
    99   168   169    2
   100   115   114    2
   101   141   139   ar
   102    35    34    1
   103   181   182    1
   104   181   178    1
   105    31    32   ar
   106    31    30    1
   107   167   166    1
   108   121   119   ar
   109   121   120   ar
   110   177   178    1
   111   151   150    2
   112   119   117   ar
   113   158   156    1
   114   114   113    1
   115   178   179    1
   116   156   153    1
   117   139   140   ar
   118   139   138    1
   119    30    27    1
   120    13    11   am
   121   150   149    1
   122   150   152   am
   123    25    23    1
   124   153   152    1
   125   153   154    1
   126    24    23    1
   127   120   118   ar
   128     4     3    2
   129   149   148    1
   130    29    28    2
   131   117   118   ar
   132   117   116    1
   133   138   135    1
   134    22    23    1
   135    22    19    1
   136    11    10    1
   137    11    12    2
   138   113   112    1
   139   113   116    1
   140   159   154   am
   141   159   160    1
   142   179   180    2
   143    27    28    1
   144    27    26    1
   145    10     9    1
   146     8     7    2
   147   164   163    1
   148   154   155    2
   149     6     9    1
   150     6     7    1
   151     6     5    1
   152    21    20    2
   153   163   160    1
   154   163   165    1
   155     3     5   am
   156     3     2    1
   157   148   144   am
   158     7    14   am
   159    18    19    1
   160   160   161    1
   161   135   136    1
   162   135   134    1
   163    19    20    1
   164   161   162    2
   165     2     1    1
   166   137   136    2
   167   136   142   am
   168    14    15    1
   169   144   145    2
   170   144   143    1
   171    15    16    1
   172   142   143    1
   173   147   146    1
   174   143   146    1
   175    16    17    2
