@<TRIPOS>MOLECULE
tmp/3vvdA00.pdb
 138 132 0 0 0
SMALL
GASTEIGER

@<TRIPOS>ATOM
      1  N          1.3510   23.7740  -13.4000 N.3    24  GLU24      -0.1245
      2  CA         1.5550   23.9510  -11.9760 C.3    24  GLU24       0.1567
      3  C          1.5440   22.6360  -11.2090 C.2    24  GLU24       0.2260
      4  O          2.4960   22.3240  -10.4890 O.2    24  GLU24      -0.2867
      5  CB         0.5270   24.9490  -11.3900 C.3    24  GLU24       0.0388
      6  CG         0.5440   25.0410   -9.8510 C.3    24  GLU24       0.1160
      7  CD        -0.4870   26.0330   -9.2660 C.2    24  GLU24       0.3649
      8  OE1       -1.4930   26.4050   -9.9600 O.co2  24  GLU24      -0.2457
      9  OE2       -0.2590   26.4670   -8.1050 O.co2  24  GLU24      -0.2457
     10  N         -3.4940   22.5440   -8.7540 N.3    27  PHE27      -0.1241
     11  CA        -4.7470   23.2660   -9.0160 C.3    27  PHE27       0.1605
     12  C         -5.8330   22.3040   -9.5300 C.2    27  PHE27       0.2264
     13  O         -6.3110   22.4380  -10.6660 O.2    27  PHE27      -0.2867
     14  CB        -4.4860   24.4150  -10.0150 C.3    27  PHE27       0.0534
     15  CG        -5.5000   25.5160   -9.9590 C.ar   27  PHE27      -0.0203
     16  CD1       -5.6700   26.2740   -8.7920 C.ar   27  PHE27      -0.0042
     17  CD2       -6.2610   25.8310  -11.0820 C.ar   27  PHE27      -0.0042
     18  CE1       -6.6040   27.3250   -8.7410 C.ar   27  PHE27      -0.0003
     19  CE2       -7.1690   26.8790  -11.0500 C.ar   27  PHE27      -0.0003
     20  CZ        -7.3580   27.6230   -9.8620 C.ar   27  PHE27      -0.0000
     21  N          3.3700   28.0810   -9.5300 N.3    65  PHE65      -0.1241
     22  CA         2.5930   28.9260  -10.4090 C.3    65  PHE65       0.1605
     23  C          3.2640   30.2660  -10.6950 C.2    65  PHE65       0.2264
     24  O          3.2800   30.7000  -11.8330 O.2    65  PHE65      -0.2867
     25  CB         1.2060   29.1740   -9.8100 C.3    65  PHE65       0.0534
     26  CG         0.3100   29.9850  -10.6840 C.ar   65  PHE65      -0.0203
     27  CD1       -0.2030   29.4500  -11.8640 C.ar   65  PHE65      -0.0042
     28  CD2       -0.0330   31.2900  -10.3250 C.ar   65  PHE65      -0.0042
     29  CE1       -1.0410   30.2050  -12.6740 C.ar   65  PHE65      -0.0003
     30  CE2       -0.8650   32.0480  -11.1240 C.ar   65  PHE65      -0.0003
     31  CZ        -1.3780   31.5100  -12.3050 C.ar   65  PHE65      -0.0000
     32  N         -1.9460   26.2150  -17.5910 N.3    82  ALA82      -0.1231
     33  CA        -1.9710   26.2090  -16.1440 C.3    82  ALA82       0.1694
     34  C         -3.0490   27.1390  -15.6250 C.2    82  ALA82       0.2593
     35  O         -2.8490   27.8510  -14.6070 O.2    82  ALA82      -0.2718
     36  CB        -0.5690   26.5890  -15.5850 C.3    82  ALA82       0.0304
     37  N         -4.1820   27.1380  -16.3270 N.am   83  SER83      -0.1938
     38  CA        -5.3910   27.8680  -15.9150 C.3    83  SER83       0.2055
     39  C         -5.2310   29.3960  -15.8570 C.2    83  SER83       0.2643
     40  O         -5.9430   30.0680  -15.1250 O.2    83  SER83      -0.2714
     41  CB        -5.9190   27.3370  -14.5860 C.3    83  SER83       0.2130
     42  OG        -6.5080   26.0480  -14.7450 O.3    83  SER83      -0.2179
     43  N         -4.3100   29.9390  -16.6580 N.am   84  HIS84      -0.1959
     44  CA        -4.1450   31.3870  -16.7060 C.3    84  HIS84       0.1787
     45  C         -5.2800   32.1220  -17.3740 C.2    84  HIS84       0.2620
     46  O         -5.5090   31.9480  -18.5840 O.2    84  HIS84      -0.2715
     47  CB        -2.8940   31.7500  -17.4630 C.3    84  HIS84       0.0785
     48  CG        -1.6390   31.5480  -16.6910 C.ar   84  HIS84       0.0821
     49  ND1       -0.8400   30.4430  -16.8570 N.ar   84  HIS84      -0.2267
     50  CD2       -1.0170   32.3370  -15.7890 C.ar   84  HIS84       0.1154
     51  CE1        0.2170   30.5480  -16.0760 C.ar   84  HIS84       0.1986
     52  NE2        0.1420   31.6990  -15.4280 N.ar   84  HIS84      -0.2212
     53  N         -5.9460   32.9840  -16.5980 N.am   85  GLY85      -0.1954
     54  CA        -6.8840   33.9390  -17.1600 C.3    85  GLY85       0.1869
     55  C         -6.1720   34.9670  -18.0320 C.2    85  GLY85       0.2309
     56  O         -5.0630   35.3900  -17.7290 O.2    85  GLY85      -0.2863
     57  N         -0.8210   40.4500  -18.0450 N.3    90  ARG90      -0.1245
     58  CA        -0.1120   39.2390  -18.4640 C.3    90  ARG90       0.1563
     59  C          0.2340   39.2780  -19.9370 C.2    90  ARG90       0.2260
     60  O          1.2890   38.8000  -20.3230 O.2    90  ARG90      -0.2867
     61  CB        -0.9240   37.9830  -18.1530 C.3    90  ARG90       0.0307
     62  CG        -0.8970   37.5980  -16.6600 C.3    90  ARG90       0.0489
     63  CD        -1.9820   36.5930  -16.3530 C.3    90  ARG90       0.2205
     64  NE        -1.9430   36.1600  -14.9660 N.pl3  90  ARG90      -0.0865
     65  CZ        -2.8600   35.3680  -14.4120 C.cat  90  ARG90       0.5346
     66  NH1       -3.8840   34.9340  -15.1330 N.pl3  90  ARG90       0.1354
     67  NH2       -2.7530   35.0200  -13.1360 N.pl3  90  ARG90       0.1354
     68  N        -10.9790   27.3610  -21.9160 N.3   101  TYR101     -0.1241
     69  CA       -12.2040   27.3530  -21.1260 C.3   101  TYR101      0.1605
     70  C        -12.5430   28.7120  -20.5790 C.2   101  TYR101      0.2264
     71  O        -11.7380   29.6290  -20.6650 O.2   101  TYR101     -0.2867
     72  CB       -12.2240   26.3050  -20.0130 C.3   101  TYR101      0.0534
     73  CG       -11.3410   26.5290  -18.7950 C.ar  101  TYR101     -0.0201
     74  CD1      -11.8600   27.0570  -17.6100 C.ar  101  TYR101     -0.0009
     75  CD2      -10.0160   26.1360  -18.8060 C.ar  101  TYR101     -0.0009
     76  CE1      -11.0430   27.2380  -16.4800 C.ar  101  TYR101      0.0417
     77  CE2       -9.1950   26.2820  -17.6700 C.ar  101  TYR101      0.0417
     78  CZ        -9.7110   26.8380  -16.5330 C.ar  101  TYR101      0.1957
     79  OH        -8.8810   26.9730  -15.4560 O.3   101  TYR101     -0.2866
     80  N         -4.2710   32.8980   -3.7300 N.3   128  GLN128     -0.1245
     81  CA        -2.9880   32.4040   -4.1980 C.3   128  GLN128      0.1566
     82  C         -2.2150   33.5290   -4.8810 C.2   128  GLN128      0.2260
     83  O         -2.7960   34.3480   -5.6040 O.2   128  GLN128     -0.2867
     84  CB        -3.1480   31.2120   -5.1590 C.3   128  GLN128      0.0367
     85  CG        -1.8000   30.7440   -5.7020 C.3   128  GLN128      0.0905
     86  CD        -1.9000   29.5900   -6.6580 C.2   128  GLN128      0.2608
     87  OE1       -2.9590   29.3310   -7.2340 O.2   128  GLN128     -0.2717
     88  NE2       -0.7850   28.8800   -6.8390 N.am  128  GLN128     -0.0878
     89  N         -2.2470   35.4630   -8.8300 N.3   131  THR131     -0.1203
     90  CA        -3.4700   35.1030   -9.4950 C.3   131  THR131      0.1994
     91  C         -4.4120   36.2850   -9.7300 C.2   131  THR131      0.2619
     92  O         -4.3110   37.3360   -9.0850 O.2   131  THR131     -0.2717
     93  CB        -4.2430   34.0320   -8.7240 C.3   131  THR131      0.1784
     94  OG1       -4.6160   34.5460   -7.4340 O.3   131  THR131     -0.2211
     95  CG2       -3.4030   32.7380   -8.5720 C.3   131  THR131      0.0376
     96  N         -5.3740   36.0690  -10.6200 N.am  132  THR132     -0.1938
     97  CA        -6.4390   37.0350  -10.8310 C.3   132  THR132      0.2028
     98  C         -7.2950   37.1710   -9.5440 C.2   132  THR132      0.2642
     99  O         -7.9230   38.2100   -9.3460 O.2   132  THR132     -0.2714
    100  CB        -7.2810   36.6640  -12.0670 C.3   132  THR132      0.1808
    101  OG1       -7.7310   35.3110  -11.9560 O.3   132  THR132     -0.2208
    102  CG2       -6.4160   36.7870  -13.3440 C.3   132  THR132      0.0379
    103  N         -7.3180   36.1300   -8.6890 N.am  133  TYR133     -0.1973
    104  CA        -7.9930   36.2130   -7.3650 C.3   133  TYR133      0.1639
    105  C         -7.2830   37.2260   -6.4840 C.2   133  TYR133      0.2290
    106  O         -7.9190   38.1260   -5.8960 O.2   133  TYR133     -0.2864
    107  CB        -8.1110   34.8210   -6.6580 C.3   133  TYR133      0.0560
    108  CG        -8.4270   33.7330   -7.6670 C.ar  133  TYR133     -0.0198
    109  CD1       -9.5510   33.8380   -8.4880 C.ar  133  TYR133     -0.0009
    110  CD2       -7.5540   32.6640   -7.8740 C.ar  133  TYR133     -0.0009
    111  CE1       -9.8210   32.8990   -9.4560 C.ar  133  TYR133      0.0417
    112  CE2       -7.8280   31.6920   -8.8350 C.ar  133  TYR133      0.0417
    113  CZ        -8.9530   31.8300   -9.6330 C.ar  133  TYR133      0.1957
    114  OH        -9.2370   30.9290  -10.6310 O.3   133  TYR133     -0.2866
    115  N        -11.1000   29.7890   -8.1860 N.3   170  ASP170     -0.1239
    116  CA       -11.8710   29.4270   -9.3810 C.3   170  ASP170      0.1674
    117  C        -13.1840   28.7240   -8.9880 C.2   170  ASP170      0.2266
    118  O        -13.1860   27.8770   -8.0760 O.2   170  ASP170     -0.2867
    119  CB       -11.0370   28.4930  -10.2550 C.3   170  ASP170      0.1410
    120  CG       -11.7750   28.0550  -11.4790 C.2   170  ASP170      0.3668
    121  OD1      -11.8210   28.8390  -12.4550 O.co2 170  ASP170     -0.2456
    122  OD2      -12.3630   26.9560  -11.4460 O.co2 170  ASP170     -0.2456
    123  N        -13.6870   35.1610  -16.4230 N.3   196  GLU196     -0.1245
    124  CA       -12.4310   35.1490  -17.1470 C.3   196  GLU196      0.1567
    125  C        -12.3440   34.0660  -18.2140 C.2   196  GLU196      0.2260
    126  O        -12.9300   32.9940  -18.0860 O.2   196  GLU196     -0.2867
    127  CB       -11.2110   35.1240  -16.1880 C.3   196  GLU196      0.0388
    128  CG       -10.8910   33.7930  -15.5490 C.3   196  GLU196      0.1160
    129  CD        -9.7170   33.8380  -14.5330 C.2   196  GLU196      0.3649
    130  OE1       -9.0020   34.8660  -14.4130 O.co2 196  GLU196     -0.2457
    131  OE2       -9.5180   32.8060  -13.8500 O.co2 196  GLU196     -0.2457
    132  N         -9.7180   31.6480  -20.0300 N.3   198  VAL198     -0.1245
    133  CA        -8.4720   31.0010  -19.6070 C.3   198  VAL198      0.1561
    134  C         -7.7850   30.3830  -20.8140 C.2   198  VAL198      0.2260
    135  O         -8.4420   29.7200  -21.6200 O.2   198  VAL198     -0.2867
    136  CB        -8.7640   29.9040  -18.5430 C.3   198  VAL198      0.0252
    137  CG1       -7.5670   29.0390  -18.3390 C.3   198  VAL198      0.0019
    138  CG2       -9.2180   30.5230  -17.2300 C.3   198  VAL198      0.0019
@<TRIPOS>BOND
     1    68    69    1
     2   135   134    2
     3    69    70    1
     4    69    72    1
     5   134   133    1
     6    71    70    2
     7    60    59    2
     8   132   133    1
     9    72    73    1
    10    59    58    1
    11   133   136    1
    12    75    73   ar
    13    75    77   ar
    14    73    74   ar
    15    46    45    2
    16   136   137    1
    17   136   138    1
    18    58    61    1
    19    58    57    1
    20   125   126    2
    21   125   124    1
    22    61    62    1
    23    55    56    2
    24    55    54    1
    25    77    78   ar
    26    74    76   ar
    27    32    33    1
    28    47    44    1
    29    47    48    1
    30    45    44    1
    31    45    53   am
    32    54    53    1
    33   124   123    1
    34   124   127    1
    35    49    48   ar
    36    49    51   ar
    37    44    43    1
    38    48    50   ar
    39    62    63    1
    40    43    39   am
    41    78    76   ar
    42    78    79    1
    43    63    64    1
    44    37    38    1
    45    37    34   am
    46   127   128    1
    47    33    34    1
    48    33    36    1
    49    51    52   ar
    50    38    39    1
    51    38    41    1
    52    39    40    2
    53    50    52   ar
    54    34    35    2
    55   128   129    1
    56    66    65    1
    57    64    65    2
    58    42    41    1
    59   129   130   ar
    60   129   131   ar
    61    65    67    1
    62     1     2    1
    63   102   100    1
    64    29    31   ar
    65    29    27   ar
    66   121   120   ar
    67    31    30   ar
    68   100   101    1
    69   100    97    1
    70     2     5    1
    71     2     3    1
    72    27    26   ar
    73    24    23    2
    74   120   122   ar
    75   120   119    1
    76     5     6    1
    77     3     4    2
    78    30    28   ar
    79    17    19   ar
    80    17    15   ar
    81    19    20   ar
    82    97    96    1
    83    97    98    1
    84    23    22    1
    85    26    28   ar
    86    26    25    1
    87    13    12    2
    88   114   113    1
    89    96    91   am
    90    22    25    1
    91    22    21    1
    92   119   116    1
    93    14    15    1
    94    14    11    1
    95     8     7   ar
    96    15    16   ar
    97    20    18   ar
    98     6     7    1
    99    91    90    1
   100    91    92    2
   101   113   111   ar
   102   113   112   ar
   103    98    99    2
   104    98   103   am
   105    12    11    1
   106    90    89    1
   107    90    93    1
   108   111   109   ar
   109   116   117    1
   110   116   115    1
   111     7     9   ar
   112    11    10    1
   113   117   118    2
   114   112   110   ar
   115    16    18   ar
   116    93    95    1
   117    93    94    1
   118   103   104    1
   119   109   108   ar
   120   110   108   ar
   121   108   107    1
   122   104   107    1
   123   104   105    1
   124    87    86    2
   125    88    86   am
   126    86    85    1
   127   105   106    2
   128    85    84    1
   129    83    82    2
   130    84    81    1
   131    82    81    1
   132    81    80    1
