@<TRIPOS>MOLECULE
tmp/3vveB00.pdb
 146 139 0 0 0
SMALL
GASTEIGER

@<TRIPOS>ATOM
      1  N         -1.3030   11.8220  -13.5100 N.3    24  GLU24      -0.1245
      2  CA        -1.4950   11.6380  -12.0940 C.3    24  GLU24       0.1567
      3  C         -1.4990   12.9370  -11.2960 C.2    24  GLU24       0.2260
      4  O         -2.3650   13.1450  -10.4510 O.2    24  GLU24      -0.2867
      5  CB        -0.4610   10.6280  -11.5300 C.3    24  GLU24       0.0388
      6  CG        -0.5580   10.4770  -10.0350 C.3    24  GLU24       0.1160
      7  CD         0.4980    9.5250   -9.4610 C.2    24  GLU24       0.3649
      8  OE1        1.4690    9.1750  -10.1680 O.co2  24  GLU24      -0.2457
      9  OE2        0.3210    9.1240   -8.3070 O.co2  24  GLU24      -0.2457
     10  N          3.6140   13.1140   -8.8740 N.3    27  PHE27      -0.1241
     11  CA         4.8710   12.4110   -9.1150 C.3    27  PHE27       0.1605
     12  C          5.9170   13.4110   -9.6490 C.2    27  PHE27       0.2264
     13  O          6.4030   13.2450  -10.7580 O.2    27  PHE27      -0.2867
     14  CB         4.6660   11.2750  -10.1300 C.3    27  PHE27       0.0534
     15  CG         5.6570   10.1400  -10.0090 C.ar   27  PHE27      -0.0203
     16  CD1        5.8380    9.4790   -8.7970 C.ar   27  PHE27      -0.0042
     17  CD2        6.3450    9.6880  -11.1260 C.ar   27  PHE27      -0.0042
     18  CE1        6.7070    8.3910   -8.6940 C.ar   27  PHE27      -0.0003
     19  CE2        7.1990    8.5930  -11.0380 C.ar   27  PHE27      -0.0003
     20  CZ         7.3840    7.9570   -9.8110 C.ar   27  PHE27      -0.0000
     21  N         -3.4160    7.5030   -9.5170 N.3    65  PHE65      -0.1241
     22  CA        -2.6360    6.6130  -10.3750 C.3    65  PHE65       0.1605
     23  C         -3.3330    5.2750  -10.6780 C.2    65  PHE65       0.2264
     24  O         -3.3410    4.8140  -11.8270 O.2    65  PHE65      -0.2867
     25  CB        -1.2480    6.3550   -9.7660 C.3    65  PHE65       0.0534
     26  CG        -0.3650    5.4860  -10.6240 C.ar   65  PHE65      -0.0203
     27  CD1        0.2210    5.9890  -11.7790 C.ar   65  PHE65      -0.0042
     28  CD2       -0.1020    4.1710  -10.2610 C.ar   65  PHE65      -0.0042
     29  CE1        1.0190    5.1960  -12.5810 C.ar   65  PHE65      -0.0003
     30  CE2        0.6770    3.3640  -11.0800 C.ar   65  PHE65      -0.0003
     31  CZ         1.2480    3.8740  -12.2140 C.ar   65  PHE65      -0.0000
     32  N          2.0510    9.4440  -17.6680 N.3    82  ALA82      -0.1231
     33  CA         2.0210    9.4060  -16.2020 C.3    82  ALA82       0.1694
     34  C          3.0540    8.4070  -15.7280 C.2    82  ALA82       0.2593
     35  O          2.8360    7.6330  -14.7460 O.2    82  ALA82      -0.2718
     36  CB         0.5960    9.0030  -15.7270 C.3    82  ALA82       0.0304
     37  N          4.1860    8.3900  -16.4210 N.am   83  SER83      -0.1938
     38  CA         5.3370    7.5740  -15.9490 C.3    83  SER83       0.2055
     39  C          5.2090    6.0430  -15.9320 C.2    83  SER83       0.2643
     40  O          5.9600    5.3630  -15.2100 O.2    83  SER83      -0.2714
     41  CB         5.8000    8.0730  -14.5730 C.3    83  SER83       0.2130
     42  OG         6.4430    9.3450  -14.7360 O.3    83  SER83      -0.2179
     43  N          4.3130    5.4770  -16.7520 N.am   84  HIS84      -0.1959
     44  CA         4.1370    3.9970  -16.7630 C.3    84  HIS84       0.1787
     45  C          5.3010    3.2710  -17.3910 C.2    84  HIS84       0.2620
     46  O          5.5630    3.4310  -18.5760 O.2    84  HIS84      -0.2715
     47  CB         2.8660    3.6190  -17.4950 C.3    84  HIS84       0.0785
     48  CG         1.5880    3.9970  -16.7570 C.ar   84  HIS84       0.0821
     49  ND1        0.8810    5.1280  -17.0390 N.ar   84  HIS84      -0.2267
     50  CD2        0.8950    3.3310  -15.7510 C.ar   84  HIS84       0.1154
     51  CE1       -0.2120    5.1650  -16.2560 C.ar   84  HIS84       0.1986
     52  NE2       -0.1990    4.0480  -15.4660 N.ar   84  HIS84      -0.2212
     53  N          6.0250    2.4860  -16.6030 N.am   85  GLY85      -0.1954
     54  CA         6.9700    1.5200  -17.1760 C.3    85  GLY85       0.1869
     55  C          6.2140    0.4990  -18.0180 C.2    85  GLY85       0.2309
     56  O          5.1090    0.0970  -17.6780 O.2    85  GLY85      -0.2863
     57  N          0.8390   -5.0580  -18.0800 N.3    90  ARG90      -0.1245
     58  CA         0.1350   -3.8250  -18.5080 C.3    90  ARG90       0.1563
     59  C         -0.2490   -3.8340  -19.9680 C.2    90  ARG90       0.2260
     60  O         -1.2880   -3.3110  -20.3280 O.2    90  ARG90      -0.2867
     61  CB         0.9420   -2.5550  -18.1870 C.3    90  ARG90       0.0307
     62  CG         0.9150   -2.1830  -16.6930 C.3    90  ARG90       0.0489
     63  CD         1.8570   -1.0310  -16.4040 C.3    90  ARG90       0.2205
     64  NE         1.8160   -0.6780  -14.9920 N.pl3  90  ARG90      -0.0865
     65  CZ         2.7320    0.0940  -14.4090 C.cat  90  ARG90       0.5346
     66  NH1        3.7640    0.5700  -15.1240 N.pl3  90  ARG90       0.1354
     67  NH2        2.6190    0.3830  -13.1280 N.pl3  90  ARG90       0.1354
     68  N         10.9890    8.1660  -21.8640 N.3   101  TYR101     -0.1241
     69  CA        12.2190    8.2290  -21.0880 C.3   101  TYR101      0.1605
     70  C         12.5910    6.8670  -20.5790 C.2   101  TYR101      0.2264
     71  O         11.8040    5.9320  -20.6840 O.2   101  TYR101     -0.2867
     72  CB        12.1690    9.2930  -19.9720 C.3   101  TYR101      0.0534
     73  CG        11.2600    9.0650  -18.7690 C.ar  101  TYR101     -0.0201
     74  CD1       11.7700    8.5310  -17.5850 C.ar  101  TYR101     -0.0009
     75  CD2        9.9360    9.4880  -18.7820 C.ar  101  TYR101     -0.0009
     76  CE1       10.9620    8.3500  -16.4740 C.ar  101  TYR101      0.0417
     77  CE2        9.0990    9.3240  -17.6710 C.ar  101  TYR101      0.0417
     78  CZ         9.6250    8.7580  -16.5160 C.ar  101  TYR101      0.1957
     79  OH         8.8270    8.6260  -15.4100 O.3   101  TYR101     -0.2866
     80  N          4.0110    2.5450   -3.7570 N.3   128  GLN128     -0.1245
     81  CA         2.6890    3.0640   -4.1760 C.3   128  GLN128      0.1566
     82  C          1.9810    1.9280   -4.8720 C.2   128  GLN128      0.2260
     83  O          2.6010    1.1450   -5.6270 O.2   128  GLN128     -0.2867
     84  CB         2.7770    4.2520   -5.1400 C.3   128  GLN128      0.0367
     85  CG         1.4380    4.9530   -5.4510 C.3   128  GLN128      0.0905
     86  CD         1.5650    6.0380   -6.5070 C.2   128  GLN128      0.2608
     87  OE1        2.6090    6.1680   -7.1430 O.2   128  GLN128     -0.2717
     88  NE2        0.4920    6.8180   -6.7070 N.am  128  GLN128     -0.0878
     89  N          2.1180    0.0450   -8.8330 N.3   131  THR131     -0.1203
     90  CA         3.3690    0.4340   -9.4970 C.3   131  THR131      0.1994
     91  C          4.2990   -0.7390   -9.7640 C.2   131  THR131      0.2619
     92  O          4.1410   -1.7980   -9.1700 O.2   131  THR131     -0.2717
     93  CB         4.1540    1.4830   -8.6730 C.3   131  THR131      0.1784
     94  OG1        4.5810    0.9170   -7.4200 O.3   131  THR131     -0.2211
     95  CG2        3.2730    2.6790   -8.3830 C.3   131  THR131      0.0376
     96  N          5.2840   -0.5380  -10.6280 N.am  132  THR132     -0.1938
     97  CA         6.3680   -1.5210  -10.7560 C.3   132  THR132      0.2028
     98  C          7.2150   -1.6670   -9.4680 C.2   132  THR132      0.2642
     99  O          7.7930   -2.7170   -9.2530 O.2   132  THR132     -0.2714
    100  CB         7.2280   -1.2500  -11.9920 C.3   132  THR132      0.1808
    101  OG1        7.7030    0.0960  -11.9390 O.3   132  THR132     -0.2208
    102  CG2        6.3990   -1.4410  -13.2500 C.3   132  THR132      0.0379
    103  N          7.2670   -0.6250   -8.6140 N.am  133  TYR133     -0.1973
    104  CA         7.9230   -0.7090   -7.3070 C.3   133  TYR133      0.1639
    105  C          7.2030   -1.7110   -6.4330 C.2   133  TYR133      0.2290
    106  O          7.8330   -2.5020   -5.7300 O.2   133  TYR133     -0.2864
    107  CB         7.9900    0.6650   -6.6100 C.3   133  TYR133      0.0560
    108  CG         8.3260    1.7430   -7.6180 C.ar  133  TYR133     -0.0198
    109  CD1        9.4370    1.5940   -8.4500 C.ar  133  TYR133     -0.0009
    110  CD2        7.4990    2.8540   -7.7970 C.ar  133  TYR133     -0.0009
    111  CE1        9.7380    2.5430   -9.4240 C.ar  133  TYR133      0.0417
    112  CE2        7.8020    3.8270   -8.7580 C.ar  133  TYR133      0.0417
    113  CZ         8.9190    3.6590   -9.5750 C.ar  133  TYR133      0.1957
    114  OH         9.2390    4.5970  -10.5640 O.3   133  TYR133     -0.2866
    115  N          2.5270    8.1890   -3.8120 N.3   152  ASP152     -0.1239
    116  CA         3.9670    7.9740   -3.5750 C.3   152  ASP152      0.1674
    117  C          4.5730    8.9200   -2.5240 C.2   152  ASP152      0.2266
    118  O          5.4550    8.4930   -1.7810 O.2   152  ASP152     -0.2867
    119  CB         4.7630    8.0330   -4.8630 C.3   152  ASP152      0.1410
    120  CG         6.1610    7.4110   -4.7240 C.2   152  ASP152      0.3668
    121  OD1        6.3190    6.3240   -4.1380 O.co2 152  ASP152     -0.2456
    122  OD2        7.1040    8.0300   -5.2090 O.co2 152  ASP152     -0.2456
    123  N         10.9760    5.7960   -8.1520 N.3   170  ASP170     -0.1239
    124  CA        11.7880    6.1610   -9.3070 C.3   170  ASP170      0.1674
    125  C         13.0810    6.9000   -8.8860 C.2   170  ASP170      0.2266
    126  O         13.0480    7.7490   -7.9770 O.2   170  ASP170     -0.2867
    127  CB        10.9520    7.0410  -10.2110 C.3   170  ASP170      0.1410
    128  CG        11.7050    7.4920  -11.4460 C.2   170  ASP170      0.3668
    129  OD1       12.3740    8.5090  -11.3500 O.co2 170  ASP170     -0.2456
    130  OD2       11.6360    6.8170  -12.5000 O.co2 170  ASP170     -0.2456
    131  N         13.5130    0.3620  -16.2950 N.3   196  GLU196     -0.1245
    132  CA        12.3390    0.2940  -17.1150 C.3   196  GLU196      0.1567
    133  C         12.3250    1.3830  -18.1800 C.2   196  GLU196      0.2260
    134  O         12.9430    2.4470  -18.0370 O.2   196  GLU196     -0.2867
    135  CB        11.0600    0.3090  -16.2400 C.3   196  GLU196      0.0388
    136  CG        11.0080    1.4860  -15.2780 C.3   196  GLU196      0.1160
    137  CD         9.7130    1.5900  -14.4780 C.2   196  GLU196      0.3649
    138  OE1        9.4760    2.6710  -13.9360 O.co2 196  GLU196     -0.2457
    139  OE2        8.9600    0.6040  -14.3560 O.co2 196  GLU196     -0.2457
    140  N          9.7600    3.8390  -20.0690 N.3   198  VAL198     -0.1245
    141  CA         8.5120    4.4610  -19.6170 C.3   198  VAL198      0.1561
    142  C          7.8520    5.1220  -20.8190 C.2   198  VAL198      0.2260
    143  O          8.5240    5.8530  -21.5650 O.2   198  VAL198     -0.2867
    144  CB         8.7640    5.5120  -18.5130 C.3   198  VAL198      0.0252
    145  CG1        7.5290    6.3840  -18.3010 C.3   198  VAL198      0.0019
    146  CG2        9.1640    4.8500  -17.1980 C.3   198  VAL198      0.0019
@<TRIPOS>BOND
     1    68    69    1
     2   143   142    2
     3    69    70    1
     4    69    72    1
     5   142   141    1
     6    71    70    2
     7    60    59    2
     8   140   141    1
     9    72    73    1
    10    59    58    1
    11   141   144    1
    12    75    73   ar
    13    75    77   ar
    14    73    74   ar
    15    46    45    2
    16   144   145    1
    17   144   146    1
    18    58    61    1
    19    58    57    1
    20    61    62    1
    21   133   134    2
    22   133   132    1
    23    55    56    2
    24    55    54    1
    25    77    78   ar
    26    32    33    1
    27    74    76   ar
    28    47    44    1
    29    47    48    1
    30    45    44    1
    31    45    53   am
    32    54    53    1
    33   132   131    1
    34   132   135    1
    35    49    48   ar
    36    49    51   ar
    37    44    43    1
    38    48    50   ar
    39    43    39   am
    40    62    63    1
    41    78    76   ar
    42    78    79    1
    43    37    38    1
    44    37    34   am
    45    63    64    1
    46    51    52   ar
    47   135   136    1
    48    33    34    1
    49    33    36    1
    50    38    39    1
    51    38    41    1
    52    39    40    2
    53    50    52   ar
    54    34    35    2
    55   136   137    1
    56    66    65    1
    57    64    65    2
    58    42    41    1
    59   137   139   ar
    60   137   138   ar
    61    65    67    1
    62     1     2    1
    63   102   100    1
    64    29    31   ar
    65    29    27   ar
    66   130   128   ar
    67    31    30   ar
    68     2     5    1
    69     2     3    1
    70   100   101    1
    71   100    97    1
    72    24    23    2
    73    27    26   ar
    74     5     6    1
    75   128   129   ar
    76   128   127    1
    77     3     4    2
    78    17    19   ar
    79    17    15   ar
    80    30    28   ar
    81    19    20   ar
    82    13    12    2
    83    97    96    1
    84    97    98    1
    85    23    22    1
    86    96    91   am
    87    26    28   ar
    88    26    25    1
    89   114   113    1
    90    22    25    1
    91    22    21    1
    92   127   124    1
    93     8     7   ar
    94    14    15    1
    95    14    11    1
    96     6     7    1
    97    15    16   ar
    98    20    18   ar
    99    91    90    1
   100    91    92    2
   101    12    11    1
   102   113   111   ar
   103   113   112   ar
   104    90    89    1
   105    90    93    1
   106    98    99    2
   107    98   103   am
   108     7     9   ar
   109   111   109   ar
   110   124   125    1
   111   124   123    1
   112    11    10    1
   113   125   126    2
   114    16    18   ar
   115   112   110   ar
   116    93    95    1
   117    93    94    1
   118   103   104    1
   119   109   108   ar
   120   110   108   ar
   121   108   107    1
   122   104   107    1
   123   104   105    1
   124    87    86    2
   125    88    86   am
   126    86    85    1
   127   105   106    2
   128    83    82    2
   129    85    84    1
   130   122   120   ar
   131    84    81    1
   132    82    81    1
   133   119   120    1
   134   119   116    1
   135   120   121   ar
   136    81    80    1
   137   115   116    1
   138   116   117    1
   139   117   118    2
