@<TRIPOS>MOLECULE
tmp/3vvfB00.pdb
 151 144 0 0 0
SMALL
GASTEIGER

@<TRIPOS>ATOM
      1  N         17.5890  -32.2030    1.2890 N.3    24  GLU24      -0.1245
      2  CA        17.3530  -30.8770    1.8870 C.3    24  GLU24       0.1567
      3  C         17.6130  -29.7230    0.9090 C.2    24  GLU24       0.2260
      4  O         16.7240  -28.9130    0.6180 O.2    24  GLU24      -0.2867
      5  CB        18.2240  -30.6880    3.1120 C.3    24  GLU24       0.0388
      6  CG        18.0110  -29.3140    3.7670 C.3    24  GLU24       0.1160
      7  CD        19.2370  -28.8760    4.5310 C.2    24  GLU24       0.3649
      8  OE1       20.3620  -29.1000    4.0330 O.co2  24  GLU24      -0.2457
      9  OE2       19.0910  -28.2560    5.5990 O.co2  24  GLU24      -0.2457
     10  N         20.3530  -27.5460    1.3470 N.3    26  ALA26      -0.1231
     11  CA        21.0220  -26.4140    2.0310 C.3    26  ALA26       0.1694
     12  C         22.3160  -26.8360    2.7280 C.2    26  ALA26       0.2592
     13  O         22.6560  -26.3160    3.8020 O.2    26  ALA26      -0.2718
     14  CB        20.0760  -25.7480    3.0250 C.3    26  ALA26       0.0304
     15  N         23.0420  -27.7720    2.1200 N.am   27  PHE27      -0.1976
     16  CA        24.2160  -28.3740    2.7560 C.3    27  PHE27       0.1639
     17  C         25.3160  -28.5650    1.6920 C.2    27  PHE27       0.2290
     18  O         25.6980  -29.7090    1.3490 O.2    27  PHE27      -0.2864
     19  CB        23.8090  -29.7010    3.4330 C.3    27  PHE27       0.0560
     20  CG        24.7090  -30.1280    4.5560 C.ar   27  PHE27      -0.0200
     21  CD1       24.8890  -29.3100    5.6880 C.ar   27  PHE27      -0.0042
     22  CD2       25.3460  -31.3720    4.5210 C.ar   27  PHE27      -0.0042
     23  CE1       25.6950  -29.7580    6.7450 C.ar   27  PHE27      -0.0003
     24  CE2       26.1510  -31.8000    5.5620 C.ar   27  PHE27      -0.0003
     25  CZ        26.3180  -31.0030    6.6750 C.ar   27  PHE27      -0.0000
     26  N         24.4270  -31.5050   -0.8300 N.3    31  ASN31      -0.1240
     27  CA        23.1040  -31.3190   -1.4560 C.3    31  ASN31       0.1653
     28  C         22.7190  -29.8640   -1.2620 C.2    31  ASN31       0.2266
     29  O         22.7100  -29.3650   -0.1380 O.2    31  ASN31      -0.2867
     30  CB        22.0540  -32.3100   -0.8850 C.3    31  ASN31       0.1155
     31  CG        21.8640  -32.2020    0.6340 C.2    31  ASN31       0.2627
     32  OD1       20.9480  -31.5210    1.0980 O.2    31  ASN31      -0.2716
     33  ND2       22.6940  -32.9120    1.4130 N.am   31  ASN31      -0.0877
     34  N         15.4690  -30.1720    6.6170 N.3    65  PHE65      -0.1241
     35  CA        16.2400  -31.3210    7.0690 C.3    65  PHE65       0.1605
     36  C         15.5290  -32.0470    8.1980 C.2    65  PHE65       0.2264
     37  O         15.4390  -33.2700    8.1880 O.2    65  PHE65      -0.2867
     38  CB        17.6620  -30.9030    7.4970 C.3    65  PHE65       0.0534
     39  CG        18.4430  -32.0290    8.1280 C.ar   65  PHE65      -0.0203
     40  CD1       18.9780  -33.0440    7.3360 C.ar   65  PHE65      -0.0042
     41  CD2       18.5570  -32.1260    9.5040 C.ar   65  PHE65      -0.0042
     42  CE1       19.6420  -34.1210    7.9020 C.ar   65  PHE65      -0.0003
     43  CE2       19.2370  -33.1980   10.0770 C.ar   65  PHE65      -0.0003
     44  CZ        19.7890  -34.1880    9.2760 C.ar   65  PHE65      -0.0000
     45  N         20.7100  -37.2170    2.1640 N.3    82  ALA82      -0.1231
     46  CA        20.8430  -35.8710    2.6940 C.3    82  ALA82       0.1694
     47  C         21.8120  -35.8350    3.8600 C.2    82  ALA82       0.2593
     48  O         21.6180  -35.0650    4.7840 O.2    82  ALA82      -0.2718
     49  CB        19.4760  -35.3360    3.1350 C.3    82  ALA82       0.0304
     50  N         22.8790  -36.6400    3.7820 N.am   83  SER83      -0.1938
     51  CA        24.0270  -36.5710    4.7030 C.3    83  SER83       0.2055
     52  C         23.7660  -37.0290    6.1590 C.2    83  SER83       0.2643
     53  O         24.4690  -36.6070    7.0940 O.2    83  SER83      -0.2714
     54  CB        24.6820  -35.1740    4.6790 C.3    83  SER83       0.2130
     55  OG        25.3180  -34.9330    3.4400 O.3    83  SER83      -0.2179
     56  N         22.7960  -37.9270    6.3280 N.am   84  HIS84      -0.1959
     57  CA        22.5200  -38.5450    7.6240 C.3    84  HIS84       0.1787
     58  C         23.6000  -39.5100    8.0750 C.2    84  HIS84       0.2620
     59  O         23.7470  -40.5790    7.4940 O.2    84  HIS84      -0.2715
     60  CB        21.2070  -39.3100    7.5440 C.3    84  HIS84       0.0785
     61  CG        19.9900  -38.4230    7.5250 C.ar   84  HIS84       0.0821
     62  ND1       19.3330  -38.1130    6.3760 N.ar   84  HIS84      -0.2267
     63  CD2       19.3270  -37.7610    8.5530 C.ar   84  HIS84       0.1154
     64  CE1       18.2840  -37.2880    6.6750 C.ar   84  HIS84       0.1986
     65  NE2       18.2850  -37.0840    8.0010 N.ar   84  HIS84      -0.2212
     66  N         24.3250  -39.1490    9.1430 N.am   85  GLY85      -0.1954
     67  CA        25.1870  -40.0730    9.8640 C.3    85  GLY85       0.1869
     68  C         24.3490  -41.1850   10.4800 C.2    85  GLY85       0.2309
     69  O         23.1880  -40.9660   10.8390 O.2    85  GLY85      -0.2863
     70  N         18.5530  -42.9730   15.1600 N.3    90  ARG90      -0.1245
     71  CA        17.9240  -42.8690   13.8290 C.3    90  ARG90       0.1563
     72  C         17.4960  -44.2190   13.2690 C.2    90  ARG90       0.2260
     73  O         16.4610  -44.3120   12.5990 O.2    90  ARG90      -0.2867
     74  CB        18.8450  -42.1470   12.8490 C.3    90  ARG90       0.0307
     75  CG        18.8710  -40.6460   13.0730 C.3    90  ARG90       0.0489
     76  CD        19.9140  -40.0030   12.1930 C.3    90  ARG90       0.2205
     77  NE        20.0110  -38.5610   12.4250 N.pl3  90  ARG90      -0.0865
     78  CZ        21.0530  -37.8300   12.0520 C.cat  90  ARG90       0.5346
     79  NH1       22.0760  -38.4110   11.4350 N.pl3  90  ARG90       0.1354
     80  NH2       21.0640  -36.5110   12.2730 N.pl3  90  ARG90       0.1354
     81  N         29.4340  -42.3410    2.2800 N.3   101  TYR101     -0.1241
     82  CA        30.7190  -41.6690    2.5690 C.3   101  TYR101      0.1605
     83  C         30.9960  -41.6510    4.0680 C.2   101  TYR101      0.2264
     84  O         30.1070  -41.9400    4.8820 O.2   101  TYR101     -0.2867
     85  CB        30.8610  -40.2480    1.9800 C.3   101  TYR101      0.0534
     86  CG        29.9780  -39.1560    2.5960 C.ar  101  TYR101     -0.0201
     87  CD1       30.4730  -38.3050    3.5890 C.ar  101  TYR101     -0.0009
     88  CD2       28.6710  -38.9320    2.1280 C.ar  101  TYR101     -0.0009
     89  CE1       29.6860  -37.2900    4.1300 C.ar  101  TYR101      0.0417
     90  CE2       27.8760  -37.9100    2.6650 C.ar  101  TYR101      0.0417
     91  CZ        28.3940  -37.0990    3.6750 C.ar  101  TYR101      0.1957
     92  OH        27.6330  -36.0750    4.2340 O.3   101  TYR101     -0.2866
     93  N         23.1650  -27.0630   13.6240 N.3   128  GLN128     -0.1245
     94  CA        21.9050  -27.2040   12.9070 C.3   128  GLN128      0.1566
     95  C         20.9710  -28.1390   13.6770 C.2   128  GLN128      0.2260
     96  O         21.4410  -29.1220   14.2540 O.2   128  GLN128     -0.2867
     97  CB        22.1160  -27.7650   11.4890 C.3   128  GLN128      0.0367
     98  CG        20.7660  -27.9820   10.8020 C.3   128  GLN128      0.0905
     99  CD        20.8410  -28.5180    9.3820 C.2   128  GLN128      0.2608
    100  OE1       21.8560  -29.1130    8.9600 O.2   128  GLN128     -0.2717
    101  NE2       19.7580  -28.3110    8.6300 N.am  128  GLN128     -0.0878
    102  N         20.7690  -32.5370   14.1530 N.3   131  THR131     -0.1203
    103  CA        22.0390  -33.0740   13.6400 C.3   131  THR131      0.1994
    104  C         22.8640  -33.7840   14.6880 C.2   131  THR131      0.2619
    105  O         22.6880  -33.5730   15.8920 O.2   131  THR131     -0.2717
    106  CB        22.9280  -31.9950   12.9860 C.3   131  THR131      0.1784
    107  OG1       23.3180  -30.9930   13.9410 O.3   131  THR131     -0.2211
    108  CG2       22.2000  -31.3330   11.8040 C.3   131  THR131      0.0376
    109  N         23.7850  -34.6200   14.2270 N.am  132  THR132     -0.1938
    110  CA        24.7710  -35.2020   15.1180 C.3   132  THR132      0.2028
    111  C         25.6640  -34.1200   15.7810 C.2   132  THR132      0.2642
    112  O         26.2050  -34.3600   16.8700 O.2   132  THR132     -0.2714
    113  CB        25.6000  -36.2910   14.4000 C.3   132  THR132      0.1808
    114  OG1       26.1620  -35.7520   13.1970 O.3   132  THR132     -0.2208
    115  CG2       24.7040  -37.4780   14.0450 C.3   132  THR132      0.0379
    116  N         25.8030  -32.9450   15.1430 N.am  133  TYR133     -0.1973
    117  CA        26.5930  -31.8120   15.7050 C.3   133  TYR133      0.1639
    118  C         25.8730  -31.2380   16.9300 C.2   133  TYR133      0.2290
    119  O         26.5130  -30.9370   17.9420 O.2   133  TYR133     -0.2864
    120  CB        26.8730  -30.6890   14.6690 C.3   133  TYR133      0.0560
    121  CG        27.2170  -31.2200   13.3060 C.ar  133  TYR133     -0.0198
    122  CD1       28.2500  -32.1510   13.1490 C.ar  133  TYR133     -0.0009
    123  CD2       26.4800  -30.8400   12.1800 C.ar  133  TYR133     -0.0009
    124  CE1       28.5320  -32.7000   11.9140 C.ar  133  TYR133      0.0417
    125  CE2       26.7510  -31.3910   10.9330 C.ar  133  TYR133      0.0417
    126  CZ        27.7800  -32.3130   10.8030 C.ar  133  TYR133      0.1957
    127  OH        28.0640  -32.8860    9.5830 O.3   133  TYR133     -0.2866
    128  N         30.0990  -30.3990    9.3690 N.3   170  ASP170     -0.1239
    129  CA        30.8630  -31.4180    8.6240 C.3   170  ASP170      0.1674
    130  C         32.2220  -30.8830    8.2010 C.2   170  ASP170      0.2266
    131  O         32.3210  -29.7540    7.7690 O.2   170  ASP170     -0.2867
    132  CB        30.0830  -31.7840    7.3550 C.3   170  ASP170      0.1410
    133  CG        30.7760  -32.8490    6.5430 C.2   170  ASP170      0.3668
    134  OD1       30.5920  -34.0250    6.8780 O.co2 170  ASP170     -0.2456
    135  OD2       31.5200  -32.5060    5.5970 O.co2 170  ASP170     -0.2456
    136  N         31.7830  -40.0850   11.7390 N.3   196  GLU196     -0.1245
    137  CA        30.5220  -40.7890   11.4280 C.3   196  GLU196      0.1567
    138  C         30.5240  -41.3700   10.0180 C.2   196  GLU196      0.2260
    139  O         31.2380  -40.8960    9.1250 O.2   196  GLU196     -0.2867
    140  CB        29.2920  -39.8620   11.5940 C.3   196  GLU196      0.0388
    141  CG        29.3150  -38.6420   10.6690 C.3   196  GLU196      0.1160
    142  CD        28.1570  -37.6760   10.8980 C.2   196  GLU196      0.3649
    143  OE1       27.3410  -37.9040   11.8180 O.co2 196  GLU196     -0.2457
    144  OE2       28.0790  -36.6700   10.1650 O.co2 196  GLU196     -0.2457
    145  N         28.0580  -41.9640    6.8600 N.3   198  VAL198     -0.1245
    146  CA        26.8330  -41.3530    6.3440 C.3   198  VAL198      0.1561
    147  C         26.1580  -42.2770    5.3110 C.2   198  VAL198      0.2260
    148  O         26.8340  -42.8660    4.4620 O.2   198  VAL198     -0.2867
    149  CB        27.1570  -39.9720    5.7370 C.3   198  VAL198      0.0252
    150  CG1       25.9320  -39.3340    5.0820 C.3   198  VAL198      0.0019
    151  CG2       27.7130  -39.0590    6.8180 C.3   198  VAL198      0.0019
@<TRIPOS>BOND
     1    27    28    1
     2    27    30    1
     3    27    26    1
     4    28    29    2
     5    30    31    1
     6     4     3    2
     7    31    32    2
     8    31    33   am
     9     3     2    1
    10     1     2    1
    11    10    11    1
    12    18    17    2
    13    17    16    1
    14     2     5    1
    15    85    82    1
    16    85    86    1
    17    11    12    1
    18    11    14    1
    19    15    12   am
    20    15    16    1
    21    88    86   ar
    22    88    90   ar
    23    45    46    1
    24    81    82    1
    25    82    83    1
    26    86    87   ar
    27    90    91   ar
    28    46    49    1
    29    46    47    1
    30    12    13    2
    31    16    19    1
    32     5     6    1
    33    19    20    1
    34    55    54    1
    35    87    89   ar
    36    91    89   ar
    37    91    92    1
    38     6     7    1
    39    50    47   am
    40    50    51    1
    41    47    48    2
    42     8     7   ar
    43    83    84    2
    44   148   147    2
    45    22    20   ar
    46    22    24   ar
    47     7     9   ar
    48    20    21   ar
    49    54    51    1
    50    51    52    1
    51   150   149    1
    52   147   146    1
    53    24    25   ar
    54   135   133   ar
    55    21    23   ar
    56   149   146    1
    57   149   151    1
    58    52    56   am
    59    52    53    2
    60    56    57    1
    61   146   145    1
    62    62    64   ar
    63    62    61   ar
    64   133   134   ar
    65   133   132    1
    66    34    35    1
    67    25    23   ar
    68    64    65   ar
    69    35    38    1
    70    35    36    1
    71    40    42   ar
    72    40    39   ar
    73   132   129    1
    74    59    58    2
    75    38    39    1
    76    61    60    1
    77    61    63   ar
    78    60    57    1
    79    57    58    1
    80   131   130    2
    81    42    44   ar
    82    65    63   ar
    83    58    66   am
    84    39    41   ar
    85    37    36    2
    86   130   129    1
    87   129   128    1
    88   101    99   am
    89   100    99    2
    90   139   138    2
    91    66    67    1
    92    44    43   ar
    93    99    98    1
    94    41    43   ar
    95   127   126    1
    96    67    68    1
    97   138   137    1
    98   144   142   ar
    99    68    69    2
   100   141   142    1
   101   141   140    1
   102    98    97    1
   103   126   125   ar
   104   126   124   ar
   105   142   143   ar
   106   125   123   ar
   107   137   140    1
   108   137   136    1
   109    79    78    1
   110    97    94    1
   111   108   106    1
   112   124   122   ar
   113    78    80    1
   114    78    77    2
   115   123   121   ar
   116    76    77    1
   117    76    75    1
   118    73    72    2
   119    74    75    1
   120    74    71    1
   121    94    93    1
   122    94    95    1
   123   106   103    1
   124   106   107    1
   125   122   121   ar
   126   114   113    1
   127    72    71    1
   128   121   120    1
   129   103   102    1
   130   103   104    1
   131    95    96    2
   132    71    70    1
   133   115   113    1
   134   109   104   am
   135   109   110    1
   136   113   110    1
   137   120   117    1
   138   104   105    2
   139   110   111    1
   140   116   117    1
   141   116   111   am
   142   117   118    1
   143   111   112    2
   144   118   119    2
