@<TRIPOS>MOLECULE
tmp/3vvgA00.pdb
 130 131 0 0 0
SMALL
GASTEIGER

@<TRIPOS>ATOM
      1  N         21.4490   -3.7520   41.4820 N.3   168  GLU168     -0.1245
      2  CA        21.9530   -5.0860   41.1360 C.3   168  GLU168      0.1567
      3  C         22.1120   -5.3910   39.6490 C.2   168  GLU168      0.2260
      4  O         21.4260   -6.3050   39.1100 O.2   168  GLU168     -0.2867
      5  CB        21.1040   -6.1910   41.8690 C.3   168  GLU168      0.0388
      6  CG        21.0820   -5.9420   43.3130 C.3   168  GLU168      0.1160
      7  CD        20.4260   -7.0360   44.1420 C.2   168  GLU168      0.3649
      8  OE1       20.6680   -7.0890   45.3880 O.co2 168  GLU168     -0.2457
      9  OE2       19.7240   -7.8540   43.5030 O.co2 168  GLU168     -0.2457
     10  N         27.5010   -8.8110   38.8570 N.3   222  GLN222     -0.1231
     11  CA        27.7150  -10.1920   39.3280 C.3   222  GLN222      0.1698
     12  C         29.0300  -10.8100   38.8830 C.2   222  GLN222      0.2592
     13  O         29.8000  -11.4390   39.6360 O.2   222  GLN222     -0.2718
     14  CB        26.5010  -11.0600   38.7770 C.3   222  GLN222      0.0381
     15  CG        26.5030  -12.3750   39.3930 C.3   222  GLN222      0.0905
     16  CD        25.4670  -13.3080   38.7830 C.2   222  GLN222      0.2608
     17  OE1       24.6030  -12.8550   38.0140 O.2   222  GLN222     -0.2717
     18  NE2       25.4350  -14.5690   39.2820 N.am  222  GLN222     -0.0878
     19  N         29.2740  -10.6860   37.5620 N.am  223  PHE223     -0.1976
     20  CA        30.5250  -11.0590   37.0060 C.3   223  PHE223      0.1639
     21  C         31.0860   -9.7900   36.3570 C.2   223  PHE223      0.2290
     22  O         30.3170   -8.9110   36.0340 O.2   223  PHE223     -0.2864
     23  CB        30.1950  -12.0930   35.8520 C.3   223  PHE223      0.0560
     24  CG        29.5260  -13.3730   36.3690 C.ar  223  PHE223     -0.0200
     25  CD1       30.0910  -14.0820   37.3890 C.ar  223  PHE223     -0.0042
     26  CD2       28.2820  -13.7430   35.8900 C.ar  223  PHE223     -0.0042
     27  CE1       29.4580  -15.2590   37.9070 C.ar  223  PHE223     -0.0003
     28  CE2       27.6290  -14.9070   36.4010 C.ar  223  PHE223     -0.0003
     29  CZ        28.2700  -15.6520   37.4030 C.ar  223  PHE223     -0.0000
     30  N         33.4300  -16.3000   41.0170 N.3   236  TYR236     -0.1227
     31  CA        32.2330  -16.5160   40.3130 C.3   236  TYR236      0.1736
     32  C         31.0820  -16.6950   41.2900 C.2   236  TYR236      0.2595
     33  O         29.9710  -17.0670   40.8910 O.2   236  TYR236     -0.2718
     34  CB        32.3580  -17.8240   39.5080 C.3   236  TYR236      0.0548
     35  CG        33.3700  -17.6510   38.4260 C.ar  236  TYR236     -0.0200
     36  CD1       33.0880  -16.9090   37.3210 C.ar  236  TYR236     -0.0009
     37  CD2       34.6200  -18.1710   38.5770 C.ar  236  TYR236     -0.0009
     38  CE1       34.0730  -16.7340   36.2930 C.ar  236  TYR236      0.0417
     39  CE2       35.5600  -18.0360   37.5950 C.ar  236  TYR236      0.0417
     40  CZ        35.2880  -17.3030   36.4880 C.ar  236  TYR236      0.1957
     41  OH        36.2860  -17.2290   35.5670 O.3   236  TYR236     -0.2866
     42  N         31.3430  -16.4120   42.5540 N.am  237  ASN237     -0.1960
     43  CA        30.2880  -16.6000   43.5920 C.3   237  ASN237      0.1819
     44  C         29.9730  -15.3200   44.3830 C.2   237  ASN237      0.2621
     45  O         29.6440  -15.4210   45.5590 O.2   237  ASN237     -0.2715
     46  CB        30.7370  -17.7160   44.5370 C.3   237  ASN237      0.1195
     47  CG        30.5370  -19.0870   43.8830 C.2   237  ASN237      0.2630
     48  OD1       31.4000  -19.5520   43.1610 O.2   237  ASN237     -0.2716
     49  ND2       29.3390  -19.6510   44.0440 N.am  237  ASN237     -0.0877
     50  N         30.0830  -14.1360   43.7430 N.am  238  ALA238     -0.1963
     51  CA        29.5950  -12.8660   44.3610 C.3   238  ALA238      0.1728
     52  C         28.1350  -12.6530   44.0150 C.2   238  ALA238      0.2616
     53  O         27.6030  -13.1610   42.9890 O.2   238  ALA238     -0.2715
     54  CB        30.5190  -11.6390   43.8050 C.3   238  ALA238      0.0334
     55  N         27.4630  -11.8740   44.8560 N.am  239  TRP239     -0.1960
     56  CA        26.0810  -11.5700   44.7590 C.3   239  TRP239      0.1771
     57  C         25.8560  -10.6500   43.6090 C.2   239  TRP239      0.2619
     58  O         26.7680   -9.9380   43.1830 O.2   239  TRP239     -0.2715
     59  CB        25.6710  -10.8950   46.1170 C.3   239  TRP239      0.0590
     60  CG        26.0010  -11.8150   47.2480 C.ar  239  TRP239      0.0006
     61  CD1       27.1030  -11.8200   47.9960 C.ar  239  TRP239      0.0946
     62  CD2       25.2250  -12.9920   47.6290 C.ar  239  TRP239      0.0152
     63  NE1       27.1090  -12.9350   48.8840 N.ar  239  TRP239     -0.2442
     64  CE2       25.9380  -13.6520   48.6440 C.ar  239  TRP239      0.0810
     65  CE3       23.9980  -13.5660   47.1390 C.ar  239  TRP239      0.0012
     66  CZ2       25.4660  -14.9200   49.2560 C.ar  239  TRP239      0.0191
     67  CZ3       23.5000  -14.8310   47.7830 C.ar  239  TRP239      0.0001
     68  CH2       24.2560  -15.4430   48.8220 C.ar  239  TRP239      0.0015
     69  N         24.6130  -10.6160   43.1830 N.am  240  TRP240     -0.1974
     70  CA        24.1300   -9.5420   42.3320 C.3   240  TRP240      0.1640
     71  C         24.3970   -8.1860   43.0160 C.2   240  TRP240      0.2290
     72  O         24.1300   -8.0440   44.2180 O.2   240  TRP240     -0.2864
     73  CB        22.6460   -9.5800   42.0890 C.3   240  TRP240      0.0576
     74  CG        22.1260  -10.8580   41.3560 C.ar  240  TRP240      0.0006
     75  CD1       22.8330  -11.9750   41.0240 C.ar  240  TRP240      0.0946
     76  CD2       20.7840  -11.0690   40.9470 C.ar  240  TRP240      0.0152
     77  NE1       21.9750  -12.9010   40.3800 N.ar  240  TRP240     -0.2442
     78  CE2       20.7200  -12.3600   40.3390 C.ar  240  TRP240      0.0810
     79  CE3       19.6120  -10.3060   41.0540 C.ar  240  TRP240      0.0012
     80  CZ2       19.5270  -12.8670   39.7970 C.ar  240  TRP240      0.0191
     81  CZ3       18.4240  -10.8060   40.5030 C.ar  240  TRP240      0.0001
     82  CH2       18.4070  -12.0640   39.8720 C.ar  240  TRP240      0.0015
     83  N         25.0200  -11.0630   51.0640 N.3   266  TYR266     -0.1241
     84  CA        23.8700  -11.8460   51.5940 C.3   266  TYR266      0.1605
     85  C         24.3320  -13.1800   52.1710 C.2   266  TYR266      0.2264
     86  O         25.4880  -13.5990   51.9600 O.2   266  TYR266     -0.2867
     87  CB        22.8640  -12.0740   50.4520 C.3   266  TYR266      0.0534
     88  CG        21.9580  -10.8780   50.2510 C.ar  266  TYR266     -0.0201
     89  CD1       21.1040  -10.5380   51.2690 C.ar  266  TYR266     -0.0009
     90  CD2       21.9450  -10.1580   49.1120 C.ar  266  TYR266     -0.0009
     91  CE1       20.2170   -9.4980   51.1900 C.ar  266  TYR266      0.0417
     92  CE2       21.0310   -9.0480   48.9690 C.ar  266  TYR266      0.0417
     93  CZ        20.1830   -8.7640   50.0490 C.ar  266  TYR266      0.1957
     94  OH        19.2290   -7.7590   50.0730 O.3   266  TYR266     -0.2866
     95  N         19.6420  -16.4450   51.0610 N.3   270  VAL270     -0.1231
     96  CA        19.4730  -15.9330   49.6690 C.3   270  VAL270      0.1692
     97  C         20.0200  -17.0060   48.7010 C.2   270  VAL270      0.2592
     98  O         19.4160  -17.2920   47.6950 O.2   270  VAL270     -0.2718
     99  CB        20.2180  -14.5550   49.4950 C.3   270  VAL270      0.0266
    100  CG1       19.9180  -14.0010   48.1010 C.3   270  VAL270      0.0020
    101  CG2       19.5910  -13.5450   50.5790 C.3   270  VAL270      0.0020
    102  N         21.1380  -17.6110   49.0490 N.am  271  TYR271     -0.1976
    103  CA        21.7090  -18.6400   48.2350 C.3   271  TYR271      0.1639
    104  C         22.6680  -19.4580   49.0340 C.2   271  TYR271      0.2290
    105  O         23.4850  -18.9550   49.7650 O.2   271  TYR271     -0.2864
    106  CB        22.3700  -18.0640   46.9210 C.3   271  TYR271      0.0560
    107  CG        22.7820  -19.2100   46.0070 C.ar  271  TYR271     -0.0198
    108  CD1       21.8690  -19.8250   45.1340 C.ar  271  TYR271     -0.0009
    109  CD2       24.0540  -19.6940   46.0660 C.ar  271  TYR271     -0.0009
    110  CE1       22.2710  -20.9090   44.3120 C.ar  271  TYR271      0.0417
    111  CE2       24.4780  -20.7510   45.2440 C.ar  271  TYR271      0.0417
    112  CZ        23.5960  -21.3650   44.3960 C.ar  271  TYR271      0.1957
    113  OH        24.1220  -22.4350   43.6610 O.3   271  TYR271     -0.2866
    114  N         25.5400  -20.6810   49.1680 N.3   273  GLN273     -0.1245
    115  CA        26.9120  -20.6560   48.6460 C.3   273  GLN273      0.1566
    116  C         27.7840  -21.7630   49.1950 C.2   273  GLN273      0.2260
    117  O         27.7560  -22.0990   50.3920 O.2   273  GLN273     -0.2867
    118  CB        27.6090  -19.2820   48.9640 C.3   273  GLN273      0.0367
    119  CG        26.8550  -18.0850   48.4070 C.3   273  GLN273      0.0905
    120  CD        27.0700  -17.8950   46.8950 C.2   273  GLN273      0.2608
    121  OE1       27.7920  -18.6780   46.2780 O.2   273  GLN273     -0.2717
    122  NE2       26.4400  -16.8780   46.2940 N.am  273  GLN273     -0.0878
    123  N         13.0110  -14.2010   50.7240 N.3   352  ASP352     -0.1239
    124  CA        14.1870  -14.9650   51.1750 C.3   352  ASP352      0.1674
    125  C         14.9830  -14.3920   52.3300 C.2   352  ASP352      0.2266
    126  O         15.9990  -15.0080   52.7350 O.2   352  ASP352     -0.2867
    127  CB        15.1640  -15.2110   50.0330 C.3   352  ASP352      0.1410
    128  CG        15.4540  -13.9310   49.2090 C.2   352  ASP352      0.3668
    129  OD1       16.2100  -14.0430   48.2110 O.co2 352  ASP352     -0.2456
    130  OD2       14.9000  -12.8450   49.5560 O.co2 352  ASP352     -0.2456
@<TRIPOS>BOND
     1    41    40    1
     2    23    24    1
     3    23    20    1
     4    26    24   ar
     5    26    28   ar
     6    22    21    2
     7    38    40   ar
     8    38    36   ar
     9    21    20    1
    10    24    25   ar
    11    28    29   ar
    12    40    39   ar
    13    20    19    1
    14    36    35   ar
    15    25    27   ar
    16    29    27   ar
    17    19    12   am
    18    39    37   ar
    19    17    16    2
    20    35    37   ar
    21    35    34    1
    22    14    11    1
    23    14    15    1
    24    16    18   am
    25    16    15    1
    26    10    11    1
    27    12    11    1
    28    12    13    2
    29     4     3    2
    30    34    31    1
    31     3     2    1
    32    80    82   ar
    33    80    78   ar
    34    82    81   ar
    35    31    30    1
    36    31    32    1
    37    78    77   ar
    38    78    76   ar
    39    77    75   ar
    40    81    79   ar
    41    33    32    2
    42    76    79   ar
    43    76    74   ar
    44    75    74   ar
    45     2     1    1
    46     2     5    1
    47    32    42   am
    48    74    73    1
    49     5     6    1
    50    73    70    1
    51    70    71    1
    52    70    69    1
    53    42    43    1
    54    53    52    2
    55    71    72    2
    56    48    47    2
    57    58    57    2
    58    69    57   am
    59     6     7    1
    60     9     7   ar
    61    43    44    1
    62    43    46    1
    63    57    56    1
    64   113   112    1
    65    50    51    1
    66    50    44   am
    67    54    51    1
    68    47    49   am
    69    47    46    1
    70    52    51    1
    71    52    55   am
    72     7     8   ar
    73   110   112   ar
    74   110   108   ar
    75    44    45    2
    76   112   111   ar
    77    56    55    1
    78    56    59    1
    79   108   107   ar
    80   111   109   ar
    81   107   109   ar
    82   107   106    1
    83    59    60    1
    84   121   120    2
    85   122   120   am
    86   120   119    1
    87   106   103    1
    88    65    62   ar
    89    65    67   ar
    90    60    62   ar
    91    60    61   ar
    92    62    64   ar
    93    98    97    2
    94    67    68   ar
    95    61    63   ar
    96   100    99    1
    97   129   128   ar
    98   103   104    1
    99   103   102    1
   100   119   118    1
   101    64    63   ar
   102    64    66   ar
   103   115   118    1
   104   115   114    1
   105   115   116    1
   106    97   102   am
   107    97    96    1
   108    68    66   ar
   109    92    90   ar
   110    92    93   ar
   111   104   105    2
   112    90    88   ar
   113   116   117    2
   114   128   130   ar
   115   128   127    1
   116    99    96    1
   117    99   101    1
   118    96    95    1
   119   127   124    1
   120    93    94    1
   121    93    91   ar
   122    88    87    1
   123    88    89   ar
   124    87    84    1
   125   123   124    1
   126    83    84    1
   127   124   125    1
   128    91    89   ar
   129    84    85    1
   130    86    85    2
   131   125   126    2
