@<TRIPOS>MOLECULE
tmp/3vvhA01.pdb
 173 162 0 0 0
SMALL
GASTEIGER

@<TRIPOS>ATOM
      1  N         40.5290  114.6170   13.2170 N.3    17  GLY17      -0.1210
      2  CA        41.6910  113.9760   13.8220 C.3    17  GLY17       0.1956
      3  C         41.3240  113.5180   15.2150 C.2    17  GLY17       0.2612
      4  O         40.1390  113.3350   15.5160 O.2    17  GLY17      -0.2717
      5  N         42.3300  113.3370   16.0640 N.am   18  ASN18      -0.1960
      6  CA        42.1010  112.8940   17.4390 C.3    18  ASN18       0.1819
      7  C         41.2720  113.8660   18.2730 C.2    18  ASN18       0.2622
      8  O         40.3670  113.4480   18.9880 O.2    18  ASN18      -0.2715
      9  CB        43.4250  112.5670   18.1420 C.3    18  ASN18       0.1195
     10  CG        44.2150  111.4960   17.4160 C.2    18  ASN18       0.2630
     11  OD1       43.6590  110.4960   16.9550 O.2    18  ASN18      -0.2716
     12  ND2       45.5200  111.7080   17.2950 N.am   18  ASN18      -0.0877
     13  N         41.5660  115.1580   18.1700 N.am   19  GLY19      -0.1940
     14  CA        40.8870  116.1600   18.9950 C.3    19  GLY19       0.2014
     15  C         40.4090  117.3980   18.2580 C.2    19  GLY19       0.2639
     16  O         40.1730  118.4430   18.8740 O.2    19  GLY19      -0.2714
     17  N         40.2580  117.2760   16.9420 N.am   20  GLY20      -0.1954
     18  CA        39.7790  118.3690   16.1040 C.3    20  GLY20       0.1869
     19  C         38.9220  117.8830   14.9490 C.2    20  GLY20       0.2309
     20  O         38.9780  116.7150   14.5480 O.2    20  GLY20      -0.2863
     21  N         39.3150  124.7560   11.3420 N.3    37  LYS37      -0.1245
     22  CA        39.5960  123.7000   12.3220 C.3    37  LYS37       0.1561
     23  C         39.1000  124.1550   13.6810 C.2    37  LYS37       0.2260
     24  O         39.3830  125.2620   14.1170 O.2    37  LYS37      -0.2867
     25  CB        41.0980  123.3910   12.3860 C.3    37  LYS37       0.0271
     26  CG        41.4860  122.3940   13.4670 C.3    37  LYS37       0.0035
     27  CD        42.9780  122.1030   13.4680 C.3    37  LYS37       0.0206
     28  CE        43.3480  121.1280   12.3620 C.3    37  LYS37       0.1093
     29  NZ        44.7270  120.6120   12.5830 N.3    37  LYS37      -0.1314
     30  N         39.1150  123.1380   17.6150 N.3    39  ILE39      -0.1245
     31  CA        39.7580  122.3380   18.6510 C.3    39  ILE39       0.1561
     32  C         39.0240  122.5530   19.9730 C.2    39  ILE39       0.2260
     33  O         39.0570  123.6460   20.5410 O.2    39  ILE39      -0.2867
     34  CB        41.2560  122.6840   18.7930 C.3    39  ILE39       0.0252
     35  CG1       41.9640  122.4870   17.4430 C.3    39  ILE39       0.0019
     36  CG2       41.9020  121.8400   19.8980 C.3    39  ILE39       0.0019
     37  CD1       43.3440  123.1100   17.3480 C.3    39  ILE39       0.0001
     38  N         49.0780  132.1980   18.2690 N.3    55  LEU55      -0.1245
     39  CA        48.6900  131.9140   16.8820 C.3    55  LEU55       0.1561
     40  C         48.8090  133.1190   15.9270 C.2    55  LEU55       0.2260
     41  O         48.8720  132.9440   14.7050 O.2    55  LEU55      -0.2867
     42  CB        47.2710  131.3010   16.8080 C.3    55  LEU55       0.0270
     43  CG        47.0170  129.8930   17.3780 C.3    55  LEU55       0.0019
     44  CD1       45.5380  129.5260   17.3560 C.3    55  LEU55       0.0001
     45  CD2       47.8260  128.8320   16.6420 C.3    55  LEU55       0.0001
     46  N         51.1100  133.3570   12.8780 N.3    58  LEU58      -0.1245
     47  CA        50.7100  132.7320   11.6110 C.3    58  LEU58       0.1561
     48  C         50.2910  133.7390   10.5410 C.2    58  LEU58       0.2260
     49  O         50.3690  133.4310    9.3510 O.2    58  LEU58      -0.2867
     50  CB        49.6050  131.6880   11.8260 C.3    58  LEU58       0.0270
     51  CG        49.9530  130.3720   12.5390 C.3    58  LEU58       0.0019
     52  CD1       48.6920  129.6470   12.9960 C.3    58  LEU58       0.0001
     53  CD2       50.7680  129.4690   11.6350 C.3    58  LEU58       0.0001
     54  N         50.5940  126.1130    4.2550 N.3    67  VAL67      -0.1231
     55  CA        49.1720  126.4670    4.1540 C.3    67  VAL67       0.1692
     56  C         48.8990  127.8820    4.7060 C.2    67  VAL67       0.2593
     57  O         49.3690  128.2220    5.7800 O.2    67  VAL67      -0.2718
     58  CB        48.2740  125.4300    4.8660 C.3    67  VAL67       0.0266
     59  CG1       46.8100  125.8520    4.7830 C.3    67  VAL67       0.0020
     60  CG2       48.4480  124.0570    4.2230 C.3    67  VAL67       0.0020
     61  N         48.1640  128.7010    3.9530 N.am   68  GLY68      -0.1942
     62  CA        47.8650  130.0790    4.3670 C.3    68  GLY68       0.2014
     63  C         46.9490  130.0900    5.5800 C.2    68  GLY68       0.2638
     64  O         46.1330  129.1850    5.7600 O.2    68  GLY68      -0.2714
     65  N         47.1050  131.1110    6.4150 N.am   69  PHE69      -0.1973
     66  CA        46.3240  131.2870    7.6370 C.3    69  PHE69       0.1639
     67  C         45.5240  132.5640    7.4740 C.2    69  PHE69       0.2290
     68  O         46.0470  133.5660    6.9840 O.2    69  PHE69      -0.2864
     69  CB        47.3020  131.4020    8.8050 C.3    69  PHE69       0.0560
     70  CG        46.7030  131.8480   10.1220 C.ar   69  PHE69      -0.0200
     71  CD1       46.0160  130.9490   10.9440 C.ar   69  PHE69      -0.0042
     72  CD2       46.9230  133.1480   10.5960 C.ar   69  PHE69      -0.0042
     73  CE1       45.5270  131.3480   12.1770 C.ar   69  PHE69      -0.0003
     74  CE2       46.4450  133.5440   11.8290 C.ar   69  PHE69      -0.0003
     75  CZ        45.7530  132.6430   12.6240 C.ar   69  PHE69      -0.0000
     76  N         40.7990  127.6290   14.1140 N.3    81  ILE81      -0.1245
     77  CA        41.9010  128.0420   13.2580 C.3    81  ILE81       0.1561
     78  C         41.3890  128.0260   11.8150 C.2    81  ILE81       0.2260
     79  O         41.0690  126.9610   11.2720 O.2    81  ILE81      -0.2867
     80  CB        43.1450  127.1230   13.4240 C.3    81  ILE81       0.0252
     81  CG1       43.6710  127.2010   14.8630 C.3    81  ILE81       0.0019
     82  CG2       44.2360  127.4820   12.4190 C.3    81  ILE81       0.0019
     83  CD1       44.8300  126.2750   15.2000 C.3    81  ILE81       0.0001
     84  N         42.0210  128.5380    7.8980 N.3    83  MET83      -0.1245
     85  CA        43.1470  128.4540    7.0010 C.3    83  MET83       0.1570
     86  C         42.6940  128.2740    5.5620 C.2    83  MET83       0.2261
     87  O         41.4950  128.1000    5.2720 O.2    83  MET83      -0.2867
     88  CB        44.0960  127.3340    7.4640 C.3    83  MET83       0.0387
     89  CG        43.5760  125.9290    7.2430 C.3    83  MET83       0.0595
     90  SD        44.4820  124.6660    8.1680 S.3    83  MET83      -0.1393
     91  CE        43.2550  124.2710    9.4050 C.3    83  MET83       0.0692
     92  N         55.3690  117.9870   13.8910 N.3   130  ASP130     -0.1239
     93  CA        54.3000  117.0340   13.5630 C.3   130  ASP130      0.1674
     94  C         54.2380  116.7610   12.0640 C.2   130  ASP130      0.2266
     95  O         53.1680  116.8370   11.4540 O.2   130  ASP130     -0.2867
     96  CB        52.9420  117.5310   14.1110 C.3   130  ASP130      0.1410
     97  CG        51.9480  116.3980   14.3470 C.2   130  ASP130      0.3668
     98  OD1       52.3520  115.2140   14.3820 O.co2 130  ASP130     -0.2456
     99  OD2       50.7500  116.6860   14.4950 O.co2 130  ASP130     -0.2456
    100  N         49.4650  115.8690    7.5640 N.3   135  ASN135     -0.1240
    101  CA        49.8130  117.2870    7.7490 C.3   135  ASN135      0.1653
    102  C         50.5590  117.8760    6.5430 C.2   135  ASN135      0.2266
    103  O         51.1370  118.9720    6.5980 O.2   135  ASN135     -0.2867
    104  CB        50.5830  117.4860    9.0600 C.3   135  ASN135      0.1155
    105  CG        49.6980  117.3220   10.2770 C.2   135  ASN135      0.2627
    106  OD1       48.4760  117.3640   10.1520 O.2   135  ASN135     -0.2716
    107  ND2       50.2980  117.1270   11.4540 N.am  135  ASN135     -0.0877
    108  N         51.0820  122.0050    7.1180 N.3   147  CYS147     -0.1221
    109  CA        50.1710  122.5830    8.0610 C.3   147  CYS147      0.1808
    110  C         50.4260  121.9710    9.4360 C.2   147  CYS147      0.2601
    111  O         51.2520  121.0490    9.5780 O.2   147  CYS147     -0.2717
    112  CB        48.7070  122.4320    7.6200 C.3   147  CYS147      0.0970
    113  SG        48.0380  120.7810    7.8700 S.3   147  CYS147     -0.0800
    114  N         49.7430  122.5080   10.4510 N.am  148  ASP148     -0.1959
    115  CA        49.7080  121.9350   11.7930 C.3   148  ASP148      0.1840
    116  C         51.0770  121.9110   12.4830 C.2   148  ASP148      0.2622
    117  O         51.3670  121.0120   13.2550 O.2   148  ASP148     -0.2715
    118  CB        49.0420  120.5410   11.7750 C.3   148  ASP148      0.1450
    119  CG        47.5410  120.6180   11.4750 C.2   148  ASP148      0.3671
    120  OD1       47.0030  121.7470   11.4070 O.co2 148  ASP148     -0.2456
    121  OD2       46.8940  119.5610   11.3060 O.co2 148  ASP148     -0.2456
    122  N         51.9060  122.9110   12.1970 N.am  149  PHE149     -0.1960
    123  CA        53.1970  123.0530   12.8810 C.3   149  PHE149      0.1771
    124  C         53.0060  123.7610   14.2260 C.2   149  PHE149      0.2620
    125  O         52.0130  124.4680   14.4340 O.2   149  PHE149     -0.2715
    126  CB        54.2290  123.7780   12.0000 C.3   149  PHE149      0.0574
    127  CG        53.6520  124.8930   11.1680 C.ar  149  PHE149     -0.0200
    128  CD1       53.7170  126.2180   11.6040 C.ar  149  PHE149     -0.0042
    129  CD2       53.0550  124.6230    9.9400 C.ar  149  PHE149     -0.0042
    130  CE1       53.1910  127.2450   10.8330 C.ar  149  PHE149     -0.0003
    131  CE2       52.5170  125.6410    9.1740 C.ar  149  PHE149     -0.0003
    132  CZ        52.5810  126.9560    9.6230 C.ar  149  PHE149     -0.0000
    133  N         53.9700  123.5740   15.1280 N.am  150  GLY150     -0.1940
    134  CA        53.8400  124.0350   16.5080 C.3   150  GLY150      0.2014
    135  C         54.2050  125.4900   16.7420 C.2   150  GLY150      0.2639
    136  O         55.2150  125.7720   17.3780 O.2   150  GLY150     -0.2714
    137  N         53.3860  126.4190   16.2370 N.am  151  VAL151     -0.1963
    138  CA        53.5980  127.8460   16.5260 C.3   151  VAL151      0.1727
    139  C         53.2550  128.2100   17.9700 C.2   151  VAL151      0.2616
    140  O         53.8380  129.1300   18.5380 O.2   151  VAL151     -0.2715
    141  CB        52.8190  128.7870   15.5790 C.3   151  VAL151      0.0290
    142  CG1       53.4590  128.8090   14.2050 C.3   151  VAL151      0.0023
    143  CG2       51.3480  128.4070   15.4950 C.3   151  VAL151      0.0023
    144  N         52.3140  127.4780   18.5600 N.am  152  SER152     -0.1950
    145  CA        51.8380  127.7880   19.9050 C.3   152  SER152      0.1924
    146  C         52.1410  126.6630   20.8890 C.2   152  SER152      0.2314
    147  O         51.5200  125.5950   20.8430 O.2   152  SER152     -0.2863
    148  CB        50.3400  128.1400   19.8690 C.3   152  SER152      0.2116
    149  OG        49.7470  128.1070   21.1580 O.3   152  SER152     -0.2180
    150  N         49.0610  125.8270   22.9640 N.3   155  LEU155     -0.1231
    151  CA        48.1040  124.9690   22.2670 C.3   155  LEU155      0.1693
    152  C         48.5740  123.5120   22.3070 C.2   155  LEU155      0.2591
    153  O         47.7670  122.6000   22.5230 O.2   155  LEU155     -0.2718
    154  CB        47.8620  125.4410   20.8330 C.3   155  LEU155      0.0284
    155  CG        46.8320  124.6550   20.0110 C.3   155  LEU155      0.0019
    156  CD1       45.4380  124.6430   20.6470 C.3   155  LEU155      0.0001
    157  CD2       46.7870  125.2100   18.5950 C.3   155  LEU155      0.0001
    158  N         49.8800  123.3110   22.1260 N.am  156  ILE156     -0.1980
    159  CA        50.5020  121.9890   22.2640 C.3   156  ILE156      0.1595
    160  C         50.1800  121.3800   23.6420 C.2   156  ILE156      0.2287
    161  O         49.6500  120.2610   23.7260 O.2   156  ILE156     -0.2864
    162  CB        52.0330  122.0470   21.9910 C.3   156  ILE156      0.0276
    163  CG1       52.3040  122.3820   20.5130 C.3   156  ILE156      0.0022
    164  CG2       52.7190  120.7340   22.3710 C.3   156  ILE156      0.0022
    165  CD1       53.6580  123.0060   20.2380 C.3   156  ILE156      0.0001
    166  N         46.4610  120.4320   24.3940 N.3   159  MET159     -0.1245
    167  CA        46.0110  119.2470   23.6560 C.3   159  MET159      0.1570
    168  C         46.6390  117.9390   24.1580 C.2   159  MET159      0.2261
    169  O         46.0340  116.8750   24.0210 O.2   159  MET159     -0.2867
    170  CB        46.2530  119.4100   22.1480 C.3   159  MET159      0.0387
    171  CG        45.4630  120.5370   21.4880 C.3   159  MET159      0.0595
    172  SD        45.8710  120.7060   19.7350 S.3   159  MET159     -0.1393
    173  CE        44.9780  119.3020   19.0790 C.3   159  MET159      0.0692
@<TRIPOS>BOND
     1    61    62    1
     2    61    56   am
     3    55    54    1
     4    55    56    1
     5    55    58    1
     6    60    58    1
     7    62    63    1
     8    56    57    2
     9    59    58    1
    10    87    86    2
    11    86    85    1
    12    63    64    2
    13    63    65   am
    14    65    66    1
    15   102   103    2
    16   102   101    1
    17    68    67    2
    18    85    88    1
    19    85    84    1
    20   108   109    1
    21    89    88    1
    22    89    90    1
    23    67    66    1
    24   100   101    1
    25   112   113    1
    26   112   109    1
    27    66    69    1
    28   101   104    1
    29   109   110    1
    30    90    91    1
    31    69    70    1
    32   104   105    1
    33   131   132   ar
    34   131   129   ar
    35    49    48    2
    36   110   111    2
    37   110   114   am
    38   132   130   ar
    39   129   127   ar
    40    70    72   ar
    41    70    71   ar
    42   106   105    2
    43   105   107   am
    44   114   115    1
    45    48    47    1
    46    72    74   ar
    47   130   128   ar
    48    71    73   ar
    49   127   128   ar
    50   127   126    1
    51    79    78    2
    52   121   119   ar
    53    21    22    1
    54   120   119   ar
    55    95    94    2
    56   119   118    1
    57    47    50    1
    58    47    46    1
    59    53    51    1
    60   118   115    1
    61   115   116    1
    62    78    77    1
    63    50    51    1
    64    74    75   ar
    65   126   123    1
    66    94    93    1
    67    73    75   ar
    68   122   116   am
    69   122   123    1
    70    22    25    1
    71    22    23    1
    72    28    29    1
    73    28    27    1
    74    25    26    1
    75    82    80    1
    76   116   117    2
    77    51    52    1
    78   123   124    1
    79     1     2    1
    80    77    80    1
    81    77    76    1
    82    80    81    1
    83    26    27    1
    84    93    92    1
    85    93    96    1
    86    23    24    2
    87     2     3    1
    88    96    97    1
    89   142   141    1
    90   124   125    2
    91   124   133   am
    92    97    98   ar
    93    97    99   ar
    94    20    19    2
    95    41    40    2
    96    81    83    1
    97    19    18    1
    98   133   134    1
    99     3     4    2
   100     3     5   am
   101   143   141    1
   102   141   138    1
   103    40    39    1
   104     5     6    1
   105    18    17    1
   106   137   138    1
   107   137   135   am
   108   134   135    1
   109   138   139    1
   110    45    43    1
   111   135   136    2
   112    42    39    1
   113    42    43    1
   114    39    38    1
   115    17    15   am
   116    11    10    2
   117    12    10   am
   118    37    35    1
   119    44    43    1
   120    10     9    1
   121     6     9    1
   122     6     7    1
   123    35    34    1
   124    30    31    1
   125   139   140    2
   126   139   144   am
   127    13     7   am
   128    13    14    1
   129    15    16    2
   130    15    14    1
   131     7     8    2
   132   144   145    1
   133   157   155    1
   134    31    34    1
   135    31    32    1
   136    34    36    1
   137   173   172    1
   138   172   171    1
   139   148   145    1
   140   148   149    1
   141   145   146    1
   142    32    33    2
   143   155   156    1
   144   155   154    1
   145   165   163    1
   146   163   162    1
   147   154   151    1
   148   147   146    2
   149   171   170    1
   150   162   159    1
   151   162   164    1
   152   158   159    1
   153   158   152   am
   154   170   167    1
   155   159   160    1
   156   151   152    1
   157   151   150    1
   158   152   153    2
   159   160   161    2
   160   167   168    1
   161   167   166    1
   162   169   168    2
