@<TRIPOS>MOLECULE
tmp/3vvkC03.pdb
 123 116 0 0 0
SMALL
GASTEIGER

@<TRIPOS>ATOM
      1  N         12.7740  -25.7470   17.6240 N.3     2  VAL2       -0.1231
      2  CA        11.5320  -25.1200   17.1880 C.3     2  VAL2        0.1692
      3  C         11.8430  -24.1180   16.0790 C.2     2  VAL2        0.2593
      4  O         12.8590  -23.4230   16.1280 O.2     2  VAL2       -0.2718
      5  CB        10.8220  -24.3770   18.3540 C.3     2  VAL2        0.0266
      6  CG1       10.6490  -25.3120   19.5400 C.3     2  VAL2        0.0020
      7  CG2       11.6150  -23.1510   18.7600 C.3     2  VAL2        0.0020
      8  N         10.9740  -24.0580   15.0740 N.am    3  THR3       -0.1939
      9  CA        11.1610  -23.1290   13.9640 C.3     3  THR3        0.2028
     10  C         10.3670  -21.8440   14.1740 C.2     3  THR3        0.2642
     11  O          9.4800  -21.7600   15.0240 O.2     3  THR3       -0.2714
     12  CB        10.7030  -23.7320   12.6110 C.3     3  THR3        0.1808
     13  OG1        9.2860  -23.9580   12.6430 O.3     3  THR3       -0.2208
     14  CG2       11.4340  -25.0460   12.3250 C.3     3  THR3        0.0379
     15  N         10.7020  -20.8420   13.3770 N.am    4  GLN4       -0.1976
     16  CA        10.0290  -19.5590   13.4290 C.3     4  GLN4        0.1601
     17  C          8.5780  -19.8060   13.0010 C.2     4  GLN4        0.2287
     18  O          7.6350  -19.2350   13.5570 O.2     4  GLN4       -0.2864
     19  CB        10.7160  -18.6060   12.4570 C.3     4  GLN4        0.0394
     20  CG        10.4420  -17.1410   12.6790 C.3     4  GLN4        0.0908
     21  CD        11.1550  -16.2830   11.6520 C.2     4  GLN4        0.2608
     22  OE1       10.6310  -16.0270   10.5670 O.2     4  GLN4       -0.2717
     23  NE2       12.3690  -15.8560   11.9790 N.am    4  GLN4       -0.0878
     24  N          6.2410  -21.1410   15.6670 N.3     7  LEU7       -0.1245
     25  CA         5.9350  -20.0970   16.6340 C.3     7  LEU7        0.1561
     26  C          4.8780  -19.2110   15.9790 C.2     7  LEU7        0.2260
     27  O          3.9040  -18.8050   16.6150 O.2     7  LEU7       -0.2867
     28  CB         7.2010  -19.2940   16.9680 C.3     7  LEU7        0.0270
     29  CG         8.2600  -20.0320   17.8000 C.3     7  LEU7        0.0019
     30  CD1        9.5570  -19.2330   17.8370 C.3     7  LEU7        0.0001
     31  CD2        7.7260  -20.2720   19.2170 C.3     7  LEU7        0.0001
     32  N          7.9660    2.2990   15.7460 N.3    60  VAL60      -0.1245
     33  CA         8.7300    1.2820   16.4500 C.3    60  VAL60       0.1561
     34  C          7.7810    0.1410   16.8080 C.2    60  VAL60       0.2260
     35  O          8.0860   -1.0290   16.5800 O.2    60  VAL60      -0.2867
     36  CB         9.3490    1.8360   17.7610 C.3    60  VAL60       0.0252
     37  CG1        9.8910    0.6800   18.6130 C.3    60  VAL60       0.0019
     38  CG2       10.4700    2.8250   17.4360 C.3    60  VAL60       0.0019
     39  N          6.6510   -2.1550   13.7320 N.3    63  ALA63      -0.1231
     40  CA         7.7500   -2.9740   13.2530 C.3    63  ALA63       0.1694
     41  C          8.0590   -4.0820   14.2580 C.2    63  ALA63       0.2592
     42  O          8.2690   -5.2370   13.8860 O.2    63  ALA63      -0.2718
     43  CB         8.9810   -2.1090   13.0340 C.3    63  ALA63       0.0304
     44  N          8.0750   -3.7240   15.5400 N.am   64  SER64      -0.1952
     45  CA         8.3780   -4.6890   16.5820 C.3    64  SER64       0.1924
     46  C          7.2710   -5.7280   16.7650 C.2    64  SER64       0.2314
     47  O          7.5600   -6.9170   16.9010 O.2    64  SER64      -0.2863
     48  CB         8.6500   -3.9640   17.9020 C.3    64  SER64       0.2116
     49  OG         9.3780   -4.7990   18.7880 O.3    64  SER64      -0.2180
     50  N          7.4370   -8.1880   14.5290 N.3    67  GLY67      -0.1225
     51  CA         8.5460   -9.0640   14.8630 C.3    67  GLY67       0.1811
     52  C          8.0370  -10.2350   15.6800 C.2    67  GLY67       0.2280
     53  O          8.3850  -11.3890   15.4280 O.2    67  GLY67      -0.2866
     54  N          7.1510  -14.4320   14.7050 N.3    71  GLY71      -0.1210
     55  CA         7.9330  -15.4670   15.3610 C.3    71  GLY71       0.1956
     56  C          9.4220  -15.1680   15.4290 C.2    71  GLY71       0.2612
     57  O         10.1490  -15.7580   16.2320 O.2    71  GLY71      -0.2717
     58  N          9.8800  -14.2460   14.5900 N.am   72  LEU72      -0.1965
     59  CA        11.2890  -13.8810   14.5660 C.3    72  LEU72       0.1728
     60  C         11.8240  -13.4820   15.9470 C.2    72  LEU72       0.2617
     61  O         12.9220  -13.8730   16.3200 O.2    72  LEU72      -0.2715
     62  CB        11.5200  -12.7320   13.5820 C.3    72  LEU72       0.0311
     63  CG        12.9560  -12.2070   13.4930 C.3    72  LEU72       0.0022
     64  CD1       13.8430  -13.2960   12.9170 C.3    72  LEU72       0.0001
     65  CD2       13.0090  -10.9380   12.6260 C.3    72  LEU72       0.0001
     66  N         11.0500  -12.7180   16.7110 N.am   73  THR73      -0.1937
     67  CA        11.5260  -12.2840   18.0240 C.3    73  THR73       0.2028
     68  C         10.8530  -12.9610   19.2090 C.2    73  THR73       0.2642
     69  O         10.5820  -12.3320   20.2360 O.2    73  THR73      -0.2714
     70  CB        11.4070  -10.7550   18.1690 C.3    73  THR73       0.1808
     71  OG1       10.0290  -10.3690   18.1070 O.3    73  THR73      -0.2208
     72  CG2       12.1770  -10.0680   17.0310 C.3    73  THR73       0.0379
     73  N         10.5810  -14.2510   19.0480 N.am   74  ILE74      -0.1963
     74  CA         9.9810  -15.0610   20.0960 C.3    74  ILE74       0.1727
     75  C         10.8530  -16.3040   20.2530 C.2    74  ILE74       0.2617
     76  O         11.4910  -16.7550   19.2970 O.2    74  ILE74      -0.2715
     77  CB         8.5460  -15.5110   19.7210 C.3    74  ILE74       0.0290
     78  CG1        7.6320  -14.2900   19.5920 C.3    74  ILE74       0.0022
     79  CG2        7.9980  -16.4740   20.7820 C.3    74  ILE74       0.0023
     80  CD1        6.2150  -14.6390   19.2180 C.3    74  ILE74       0.0001
     81  N         10.8920  -16.8540   21.4570 N.am   75  SER75      -0.1936
     82  CA        11.6820  -18.0540   21.7000 C.3    75  SER75       0.2055
     83  C         11.0310  -18.9290   22.7470 C.2    75  SER75       0.2642
     84  O         10.1410  -18.4960   23.4800 O.2    75  SER75      -0.2714
     85  CB        13.0930  -17.7000   22.1820 C.3    75  SER75       0.2130
     86  OG        13.8390  -17.0550   21.1710 O.3    75  SER75      -0.2179
     87  N         11.4800  -20.1730   22.8030 N.am   76  VAL76      -0.1977
     88  CA        10.9830  -21.0900   23.8000 C.3    76  VAL76       0.1596
     89  C         12.0840  -21.1920   24.8370 C.2    76  VAL76       0.2287
     90  O         13.2070  -21.5750   24.5200 O.2    76  VAL76      -0.2864
     91  CB        10.7010  -22.4780   23.2120 C.3    76  VAL76       0.0276
     92  CG1       10.3800  -23.4600   24.3430 C.3    76  VAL76       0.0022
     93  CG2        9.5250  -22.3890   22.2330 C.3    76  VAL76       0.0022
     94  N         10.3130  -12.2230   23.9290 N.3   104  TRP104     -0.1241
     95  CA        11.4310  -11.3340   24.1870 C.3   104  TRP104      0.1605
     96  C         11.4480  -10.1280   23.2610 C.2   104  TRP104      0.2264
     97  O         12.0830   -9.1210   23.5610 O.2   104  TRP104     -0.2867
     98  CB        12.7700  -12.0840   24.1280 C.3   104  TRP104      0.0550
     99  CG        13.1600  -12.6770   22.8070 C.ar  104  TRP104      0.0003
    100  CD1       13.0360  -13.9810   22.4320 C.ar  104  TRP104      0.0946
    101  CD2       13.8360  -12.0110   21.7300 C.ar  104  TRP104      0.0152
    102  NE1       13.6040  -14.1750   21.1960 N.ar  104  TRP104     -0.2442
    103  CE2       14.1010  -12.9810   20.7410 C.ar  104  TRP104      0.0810
    104  CE3       14.2500  -10.6880   21.5090 C.ar  104  TRP104      0.0012
    105  CZ2       14.7670  -12.6730   19.5420 C.ar  104  TRP104      0.0191
    106  CZ3       14.9140  -10.3790   20.3140 C.ar  104  TRP104      0.0001
    107  CH2       15.1640  -11.3700   19.3480 C.ar  104  TRP104      0.0015
    108  N         12.3660   -5.1470   22.7890 N.3   108  LEU108     -0.1245
    109  CA        12.9710   -4.4230   21.6790 C.3   108  LEU108      0.1561
    110  C         12.0520   -3.2750   21.3360 C.2   108  LEU108      0.2260
    111  O         12.4740   -2.2630   20.7760 O.2   108  LEU108     -0.2867
    112  CB        13.1510   -5.3310   20.4620 C.3   108  LEU108      0.0270
    113  CG        14.4940   -6.0580   20.3630 C.3   108  LEU108      0.0019
    114  CD1       14.7400   -6.8890   21.6170 C.3   108  LEU108      0.0001
    115  CD2       14.4870   -6.9350   19.1300 C.3   108  LEU108      0.0001
    116  N         13.4780    0.6790   22.0340 N.3   112  LEU112     -0.1245
    117  CA        13.5020    1.5950   20.8920 C.3   112  LEU112      0.1561
    118  C         12.4140    2.6720   20.9170 C.2   112  LEU112      0.2260
    119  O         12.6070    3.7550   20.3760 O.2   112  LEU112     -0.2867
    120  CB        13.3870    0.8000   19.5960 C.3   112  LEU112      0.0270
    121  CG        14.4470   -0.2850   19.3760 C.3   112  LEU112      0.0019
    122  CD1       14.0990   -1.0900   18.1260 C.3   112  LEU112      0.0001
    123  CD2       15.8290    0.3520   19.2390 C.3   112  LEU112      0.0001
@<TRIPOS>BOND
     1    22    21    2
     2    21    23   am
     3    21    20    1
     4    14    12    1
     5    19    20    1
     6    19    16    1
     7    12    13    1
     8    12     9    1
     9    65    63    1
    10    64    63    1
    11    17    16    1
    12    17    18    2
    13    43    40    1
    14    40    39    1
    15    40    41    1
    16    15    16    1
    17    15    10   am
    18    63    62    1
    19    62    59    1
    20    42    41    2
    21     9    10    1
    22     9     8    1
    23    10    11    2
    24    41    44   am
    25    50    51    1
    26    59    58    1
    27    59    60    1
    28    58    56   am
    29    54    55    1
    30    51    52    1
    31     8     3   am
    32    55    56    1
    33    53    52    2
    34    56    57    2
    35    44    45    1
    36    24    25    1
    37    32    33    1
    38    60    61    2
    39    60    66   am
    40    26    27    2
    41    26    25    1
    42     3     4    2
    43     3     2    1
    44    33    34    1
    45    33    36    1
    46    35    34    2
    47    45    46    1
    48    45    48    1
    49    25    28    1
    50    66    67    1
    51    46    47    2
    52    28    29    1
    53    72    70    1
    54     2     1    1
    55     2     5    1
    56    38    36    1
    57    36    37    1
    58    29    30    1
    59    29    31    1
    60    48    49    1
    61    67    70    1
    62    67    68    1
    63    71    70    1
    64   122   121    1
    65     5     7    1
    66     5     6    1
    67    73    68   am
    68    73    74    1
    69   115   113    1
    70    68    69    2
    71    80    78    1
    72   123   121    1
    73    76    75    2
    74   107   105   ar
    75   107   106   ar
    76   121   120    1
    77   105   103   ar
    78    78    77    1
    79   120   117    1
    80    77    74    1
    81    77    79    1
    82    74    75    1
    83    75    81   am
    84   106   104   ar
    85   113   112    1
    86   113   114    1
    87   119   118    2
    88   112   109    1
    89   103   102   ar
    90   103   101   ar
    91   111   110    2
    92   117   118    1
    93   117   116    1
    94    86    85    1
    95   102   100   ar
    96   110   109    1
    97    81    82    1
    98   104   101   ar
    99   109   108    1
   100    82    85    1
   101    82    83    1
   102   101    99   ar
   103    93    91    1
   104   100    99   ar
   105    83    87   am
   106    83    84    2
   107    87    88    1
   108    99    98    1
   109    91    88    1
   110    91    92    1
   111    96    97    2
   112    96    95    1
   113    88    89    1
   114    94    95    1
   115    98    95    1
   116    90    89    2
