@<TRIPOS>MOLECULE
tmp/3vvnA05.pdb
 138 130 0 0 0
SMALL
GASTEIGER

@<TRIPOS>ATOM
      1  N        -45.8570   11.3470  -16.0670 N.3    95  VAL95      -0.1245
      2  CA       -46.1230   12.4700  -16.9600 C.3    95  VAL95       0.1561
      3  C        -44.9050   13.4000  -17.0870 C.2    95  VAL95       0.2260
      4  O        -44.6220   13.9010  -18.1770 O.2    95  VAL95      -0.2867
      5  CB       -47.4030   13.2510  -16.5520 C.3    95  VAL95       0.0252
      6  CG1      -47.4180   13.5130  -15.0700 C.3    95  VAL95       0.0019
      7  CG2      -47.5270   14.5510  -17.3370 C.3    95  VAL95       0.0019
      8  N        -42.6010   11.7650  -19.6740 N.3    98  LEU98      -0.1231
      9  CA       -43.0510   11.8750  -21.0530 C.3    98  LEU98       0.1693
     10  C        -42.7430   13.2530  -21.6260 C.2    98  LEU98       0.2591
     11  O        -42.3050   13.3700  -22.7700 O.2    98  LEU98      -0.2718
     12  CB       -44.5410   11.5600  -21.1460 C.3    98  LEU98       0.0284
     13  CG       -44.8630   10.1030  -20.8100 C.3    98  LEU98       0.0019
     14  CD1      -46.3520    9.9180  -20.5800 C.3    98  LEU98       0.0001
     15  CD2      -44.3670    9.1870  -21.9230 C.3    98  LEU98       0.0001
     16  N        -42.9640   14.2890  -20.8220 N.am   99  ILE99      -0.1980
     17  CA       -42.6330   15.6540  -21.2110 C.3    99  ILE99       0.1595
     18  C        -41.1280   15.8000  -21.4180 C.2    99  ILE99       0.2287
     19  O        -40.6820   16.4150  -22.3840 O.2    99  ILE99      -0.2864
     20  CB       -43.1090   16.6610  -20.1510 C.3    99  ILE99       0.0276
     21  CG1      -44.6360   16.6320  -20.0460 C.3    99  ILE99       0.0022
     22  CG2      -42.6290   18.0570  -20.4850 C.3    99  ILE99       0.0022
     23  CD1      -45.1820   17.4830  -18.9230 C.3    99  ILE99       0.0001
     24  N        -39.2370   13.4390  -22.2960 N.3   101  SER101     -0.1202
     25  CA       -38.9240   12.6890  -23.5100 C.3   101  SER101      0.2020
     26  C        -39.0690   13.5810  -24.7400 C.2   101  SER101      0.2618
     27  O        -38.2710   13.5000  -25.6710 O.2   101  SER101     -0.2717
     28  CB       -39.8190   11.4550  -23.6500 C.3   101  SER101      0.2103
     29  OG       -40.9940   11.7650  -24.3800 O.3   101  SER101     -0.2182
     30  N        -40.0880   14.4360  -24.7310 N.am  102  LEU102     -0.1979
     31  CA       -40.3030   15.3960  -25.8100 C.3   102  LEU102      0.1596
     32  C        -39.1850   16.4320  -25.8400 C.2   102  LEU102      0.2287
     33  O        -38.6430   16.7540  -26.8950 O.2   102  LEU102     -0.2864
     34  CB       -41.6540   16.0950  -25.6340 C.3   102  LEU102      0.0297
     35  CG       -42.0290   17.1690  -26.6570 C.3   102  LEU102      0.0022
     36  CD1      -42.3620   16.5410  -28.0020 C.3   102  LEU102      0.0001
     37  CD2      -43.1890   18.0150  -26.1500 C.3   102  LEU102      0.0001
     38  N        -36.8320   11.8250  -31.1170 N.3   143  PHE143     -0.1227
     39  CA       -37.9380   11.8830  -30.1640 C.3   143  PHE143      0.1736
     40  C        -38.6390   10.5280  -30.0350 C.2   143  PHE143      0.2595
     41  O        -38.9860   10.1000  -28.9340 O.2   143  PHE143     -0.2718
     42  CB       -38.9460   12.9720  -30.5480 C.3   143  PHE143      0.0547
     43  CG       -40.3350   12.7230  -30.0220 C.ar  143  PHE143     -0.0202
     44  CD1      -40.6090   12.8090  -28.6640 C.ar  143  PHE143     -0.0042
     45  CD2      -41.3660   12.3980  -30.8880 C.ar  143  PHE143     -0.0042
     46  CE1      -41.8940   12.5720  -28.1780 C.ar  143  PHE143     -0.0003
     47  CE2      -42.6500   12.1640  -30.4130 C.ar  143  PHE143     -0.0003
     48  CZ       -42.9140   12.2510  -29.0560 C.ar  143  PHE143     -0.0000
     49  N        -38.8470    9.8580  -31.1620 N.am  144  ILE144     -0.1980
     50  CA       -39.4350    8.5230  -31.1550 C.3   144  ILE144      0.1595
     51  C        -38.6020    7.5560  -30.3090 C.2   144  ILE144      0.2287
     52  O        -39.1400    6.8070  -29.4930 O.2   144  ILE144     -0.2864
     53  CB       -39.5870    7.9630  -32.5830 C.3   144  ILE144      0.0276
     54  CG1      -40.4580    8.8960  -33.4350 C.3   144  ILE144      0.0022
     55  CG2      -40.1770    6.5710  -32.5410 C.3   144  ILE144      0.0022
     56  CD1      -41.8860    9.0630  -32.9170 C.3   144  ILE144      0.0001
     57  N        -38.9500    8.5870  -26.5580 N.3   147  PHE147     -0.1241
     58  CA       -40.3010    8.2740  -26.1090 C.3   147  PHE147      0.1605
     59  C        -40.4640    6.7710  -25.8750 C.2   147  PHE147      0.2264
     60  O        -41.0120    6.3510  -24.8550 O.2   147  PHE147     -0.2867
     61  CB       -41.3290    8.7830  -27.1230 C.3   147  PHE147      0.0534
     62  CG       -42.7280    8.3010  -26.8680 C.ar  147  PHE147     -0.0203
     63  CD1      -43.5460    8.9420  -25.9500 C.ar  147  PHE147     -0.0042
     64  CD2      -43.2350    7.2160  -27.5660 C.ar  147  PHE147     -0.0042
     65  CE1      -44.8430    8.4970  -25.7250 C.ar  147  PHE147     -0.0003
     66  CE2      -44.5240    6.7670  -27.3490 C.ar  147  PHE147     -0.0003
     67  CZ       -45.3310    7.4050  -26.4270 C.ar  147  PHE147     -0.0000
     68  N        -41.4090    3.9050  -35.0990 N.3   202  VAL202     -0.1245
     69  CA       -42.7200    4.5370  -35.1780 C.3   202  VAL202      0.1561
     70  C        -43.8400    3.5790  -34.7840 C.2   202  VAL202      0.2260
     71  O        -44.6470    3.8970  -33.9120 O.2   202  VAL202     -0.2867
     72  CB       -42.9930    5.1180  -36.5840 C.3   202  VAL202      0.0252
     73  CG1      -44.4570    5.4990  -36.7290 C.3   202  VAL202      0.0019
     74  CG2      -42.0970    6.3160  -36.8390 C.3   202  VAL202      0.0019
     75  N        -43.9290    3.0860  -31.2070 N.3   205  SER205     -0.1202
     76  CA       -44.5480    4.2460  -30.5630 C.3   205  SER205      0.2020
     77  C        -46.0670    4.1570  -30.5700 C.2   205  SER205      0.2618
     78  O        -46.7210    4.4700  -29.5760 O.2   205  SER205     -0.2717
     79  CB       -44.1170    5.5440  -31.2540 C.3   205  SER205      0.2103
     80  OG       -42.7690    5.8480  -30.9550 O.3   205  SER205     -0.2182
     81  N        -46.6160    3.7310  -31.7020 N.am  206  LEU206     -0.1979
     82  CA       -48.0570    3.6260  -31.8660 C.3   206  LEU206      0.1596
     83  C        -48.6560    2.6590  -30.8540 C.2   206  LEU206      0.2287
     84  O        -49.7130    2.9220  -30.2890 O.2   206  LEU206     -0.2864
     85  CB       -48.4060    3.1970  -33.2920 C.3   206  LEU206      0.0297
     86  CG       -47.9110    4.1460  -34.3850 C.3   206  LEU206      0.0022
     87  CD1      -48.3850    3.6910  -35.7610 C.3   206  LEU206      0.0001
     88  CD2      -48.3650    5.5720  -34.0950 C.3   206  LEU206      0.0001
     89  N        -48.1330    4.4140  -27.2510 N.3   209  ALA209     -0.1245
     90  CA       -49.1180    5.4840  -27.1290 C.3   209  ALA209      0.1562
     91  C        -50.5370    4.9360  -26.9800 C.2   209  ALA209      0.2260
     92  O        -51.3530    5.5030  -26.2570 O.2   209  ALA209     -0.2867
     93  CB       -49.0310    6.4280  -28.3200 C.3   209  ALA209      0.0290
     94  N        -52.2140    6.1880  -23.7370 N.3   213  PHE213     -0.1241
     95  CA       -53.1320    7.3030  -23.9600 C.3   213  PHE213      0.1605
     96  C        -54.5370    6.9080  -24.4080 C.2   213  PHE213      0.2264
     97  O        -55.4710    7.6960  -24.2750 O.2   213  PHE213     -0.2867
     98  CB       -52.5350    8.2710  -24.9810 C.3   213  PHE213      0.0534
     99  CG       -51.1620    8.7540  -24.6250 C.ar  213  PHE213     -0.0203
    100  CD1      -50.8990    9.2830  -23.3700 C.ar  213  PHE213     -0.0042
    101  CD2      -50.1280    8.6740  -25.5440 C.ar  213  PHE213     -0.0042
    102  CE1      -49.6260    9.7350  -23.0410 C.ar  213  PHE213     -0.0003
    103  CE2      -48.8520    9.1220  -25.2200 C.ar  213  PHE213     -0.0003
    104  CZ       -48.6030    9.6530  -23.9660 C.ar  213  PHE213     -0.0000
    105  N        -55.3440    3.3070  -21.6920 N.3   216  ARG216     -0.1245
    106  CA       -55.0840    3.8350  -20.3530 C.3   216  ARG216      0.1563
    107  C        -55.2160    2.7620  -19.2770 C.2   216  ARG216      0.2260
    108  O        -55.7790    3.0050  -18.2090 O.2   216  ARG216     -0.2867
    109  CB       -56.0060    5.0160  -20.0370 C.3   216  ARG216      0.0307
    110  CG       -55.8440    6.2010  -20.9740 C.3   216  ARG216      0.0489
    111  CD       -56.6010    7.4130  -20.4640 C.3   216  ARG216      0.2205
    112  NE       -56.4330    8.5740  -21.3320 N.pl3 216  ARG216     -0.0865
    113  CZ       -55.3440    9.3370  -21.3630 C.cat 216  ARG216      0.5346
    114  NH1      -54.3150    9.0610  -20.5750 N.pl3 216  ARG216      0.1354
    115  NH2      -55.2820   10.3740  -22.1880 N.pl3 216  ARG216      0.1354
    116  N        -51.9310    8.8600  -16.5630 N.3   222  ILE222     -0.1231
    117  CA       -51.1900    9.8670  -17.3060 C.3   222  ILE222      0.1692
    118  C        -52.1270   10.9420  -17.8480 C.2   222  ILE222      0.2593
    119  O        -52.8360   10.7330  -18.8320 O.2   222  ILE222     -0.2718
    120  CB       -50.3780    9.2310  -18.4460 C.3   222  ILE222      0.0266
    121  CG1      -49.3430    8.2640  -17.8700 C.3   222  ILE222      0.0019
    122  CG2      -49.6930   10.3040  -19.2750 C.3   222  ILE222      0.0020
    123  CD1      -49.1040    7.0340  -18.7190 C.3   222  ILE222      0.0001
    124  N        -52.1260   12.0950  -17.1890 N.am  223  THR223     -0.1939
    125  CA       -53.0170   13.1930  -17.5430 C.3   223  THR223      0.2028
    126  C        -52.4290   14.5240  -17.0990 C.2   223  THR223      0.2642
    127  O        -51.7540   14.6030  -16.0720 O.2   223  THR223     -0.2714
    128  CB       -54.4090   13.0170  -16.9010 C.3   223  THR223      0.1808
    129  OG1      -55.1310   14.2520  -16.9690 O.3   223  THR223     -0.2208
    130  CG2      -54.2770   12.6050  -15.4450 C.3   223  THR223      0.0379
    131  N        -52.6900   15.5720  -17.8750 N.am  224  LEU224     -0.1977
    132  CA       -52.1580   16.8960  -17.5730 C.3   224  LEU224      0.1596
    133  C        -52.8270   17.5070  -16.3430 C.2   224  LEU224      0.2287
    134  O        -52.3300   18.4820  -15.7800 O.2   224  LEU224     -0.2864
    135  CB       -52.2960   17.8210  -18.7840 C.3   224  LEU224      0.0297
    136  CG       -51.0710   18.6790  -19.1080 C.3   224  LEU224      0.0022
    137  CD1      -49.8070   17.8330  -19.0840 C.3   224  LEU224      0.0001
    138  CD2      -51.2400   19.3480  -20.4630 C.3   224  LEU224      0.0001
@<TRIPOS>BOND
     1    74    72    1
     2    73    72    1
     3    72    69    1
     4    87    86    1
     5    69    68    1
     6    69    70    1
     7    70    71    2
     8    86    88    1
     9    86    85    1
    10    54    56    1
    11    54    53    1
    12    85    82    1
    13    53    55    1
    14    53    50    1
    15    82    81    1
    16    82    83    1
    17    81    77   am
    18    79    80    1
    19    79    76    1
    20    75    76    1
    21    49    50    1
    22    49    40   am
    23    50    51    1
    24    38    39    1
    25    45    47   ar
    26    45    43   ar
    27    83    84    2
    28    77    76    1
    29    77    78    2
    30    42    39    1
    31    42    43    1
    32    47    48   ar
    33    51    52    2
    34    39    40    1
    35    40    41    2
    36    43    44   ar
    37    48    46   ar
    38    44    46   ar
    39    93    90    1
    40    36    35    1
    41    64    66   ar
    42    64    62   ar
    43    66    67   ar
    44    89    90    1
    45    90    91    1
    46    61    62    1
    47    61    58    1
    48    91    92    2
    49    33    32    2
    50    62    63   ar
    51    35    37    1
    52    35    34    1
    53    57    58    1
    54    67    65   ar
    55    58    59    1
    56    63    65   ar
    57    59    60    2
    58    32    31    1
    59    31    34    1
    60    31    30    1
    61    27    26    2
    62   101   103   ar
    63   101    99   ar
    64   103   104   ar
    65    98    99    1
    66    98    95    1
    67    26    30   am
    68    26    25    1
    69    99   100   ar
    70    96    97    2
    71    96    95    1
    72    29    28    1
    73   104   102   ar
    74    95    94    1
    75    28    25    1
    76    25    24    1
    77   100   102   ar
    78    11    10    2
    79    19    18    2
    80   115   113    1
    81    15    13    1
    82   105   106    1
    83    10     9    1
    84    10    16   am
    85    18    17    1
    86   113   112    2
    87   113   114    1
    88   112   111    1
    89    17    16    1
    90    17    20    1
    91    12     9    1
    92    12    13    1
    93     9     8    1
    94   110   111    1
    95   110   109    1
    96    13    14    1
    97    22    20    1
    98   138   136    1
    99   106   109    1
   100   106   107    1
   101    20    21    1
   102    21    23    1
   103   107   108    2
   104   122   120    1
   105   136   137    1
   106   136   135    1
   107   119   118    2
   108   135   132    1
   109   123   121    1
   110   120   121    1
   111   120   117    1
   112     4     3    2
   113   131   132    1
   114   131   126   am
   115   118   117    1
   116   118   124   am
   117   132   133    1
   118   125   124    1
   119   125   126    1
   120   125   128    1
   121     7     5    1
   122   117   116    1
   123   126   127    2
   124     3     2    1
   125   129   128    1
   126     2     5    1
   127     2     1    1
   128   128   130    1
   129     5     6    1
   130   133   134    2
