@<TRIPOS>MOLECULE
tmp/3vvnA02.pdb
 96 90 0 0 0
SMALL
GASTEIGER

@<TRIPOS>ATOM
      1  N        -22.3460    5.5200  -35.9840 N.3    57  PHE57      -0.1228
      2  CA       -22.5170    4.6820  -34.8010 C.3    57  PHE57       0.1721
      3  C        -22.2820    5.3880  -33.4490 C.2    57  PHE57       0.2437
      4  O        -23.0700    5.1940  -32.5210 O.2    57  PHE57      -0.2733
      5  CB       -21.6790    3.4010  -34.9190 C.3    57  PHE57       0.0547
      6  CG       -22.0980    2.3170  -33.9710 C.ar   57  PHE57      -0.0202
      7  CD1      -23.3180    1.6810  -34.1260 C.ar   57  PHE57      -0.0042
      8  CD2      -21.2740    1.9340  -32.9240 C.ar   57  PHE57      -0.0042
      9  CE1      -23.7150    0.6820  -33.2520 C.ar   57  PHE57      -0.0003
     10  CE2      -21.6600    0.9360  -32.0460 C.ar   57  PHE57      -0.0003
     11  CZ       -22.8850    0.3070  -32.2110 C.ar   57  PHE57      -0.0000
     12  N        -21.2110    6.2030  -33.3280 N.am   58  PRO58      -0.2729
     13  CA       -21.0280    6.9210  -32.0570 C.3    58  PRO58       0.1401
     14  C        -22.1600    7.8920  -31.7330 C.2    58  PRO58       0.2269
     15  O        -22.5380    8.0150  -30.5700 O.2    58  PRO58      -0.2865
     16  CB       -19.7280    7.7010  -32.2770 C.3    58  PRO58       0.0296
     17  CG       -18.9880    6.9160  -33.2960 C.3    58  PRO58       0.0237
     18  CD       -20.0410    6.3700  -34.2130 C.3    58  PRO58       0.0939
     19  N        -25.2680    5.7470  -30.8390 N.3    61  MET61      -0.1230
     20  CA       -25.1120    5.2310  -29.4820 C.3    61  MET61       0.1702
     21  C        -25.2400    6.3420  -28.4440 C.2    61  MET61       0.2592
     22  O        -25.6080    6.0900  -27.2990 O.2    61  MET61      -0.2718
     23  CB       -23.7800    4.4950  -29.3110 C.3    61  MET61       0.0401
     24  CG       -23.6990    3.1610  -30.0340 C.3    61  MET61       0.0596
     25  SD       -25.0350    2.0280  -29.5950 S.3    61  MET61      -0.1393
     26  CE       -24.8290    1.9090  -27.8180 C.3    61  MET61       0.0692
     27  N        -24.9320    7.5700  -28.8500 N.am   62  GLY62      -0.1957
     28  CA       -25.1260    8.7220  -27.9900 C.3    62  GLY62       0.1869
     29  C        -26.5990    8.9370  -27.7070 C.2    62  GLY62       0.2309
     30  O        -27.0010    9.1370  -26.5630 O.2    62  GLY62      -0.2863
     31  N        -27.8210    6.1800  -25.4640 N.3    65  ALA65      -0.1231
     32  CA       -27.3420    6.4410  -24.1100 C.3    65  ALA65       0.1694
     33  C        -28.2700    7.3950  -23.3620 C.2    65  ALA65       0.2591
     34  O        -28.6530    7.1440  -22.2180 O.2    65  ALA65      -0.2718
     35  CB       -25.9350    7.0080  -24.1530 C.3    65  ALA65       0.0304
     36  N        -28.6340    8.4870  -24.0240 N.am   66  LEU66      -0.1980
     37  CA       -29.4960    9.4990  -23.4260 C.3    66  LEU66       0.1596
     38  C        -30.9200    8.9900  -23.2350 C.2    66  LEU66       0.2287
     39  O        -31.5090    9.1580  -22.1670 O.2    66  LEU66      -0.2864
     40  CB       -29.4930   10.7650  -24.2840 C.3    66  LEU66       0.0297
     41  CG       -28.1380   11.4750  -24.3210 C.3    66  LEU66       0.0022
     42  CD1      -28.0950   12.5160  -25.4320 C.3    66  LEU66       0.0001
     43  CD2      -27.8410   12.1090  -22.9660 C.3    66  LEU66       0.0001
     44  N        -28.9990   10.8810  -15.8450 N.3   242  LEU242     -0.1245
     45  CA       -27.7570   11.4750  -16.3370 C.3   242  LEU242      0.1561
     46  C        -26.5010   10.6330  -16.0700 C.2   242  LEU242      0.2260
     47  O        -25.7000   10.4420  -16.9850 O.2   242  LEU242     -0.2867
     48  CB       -27.5860   12.9210  -15.8420 C.3   242  LEU242      0.0270
     49  CG       -26.2980   13.6450  -16.2480 C.3   242  LEU242      0.0019
     50  CD1      -26.1630   13.7260  -17.7640 C.3   242  LEU242      0.0001
     51  CD2      -26.2510   15.0340  -15.6330 C.3   242  LEU242      0.0001
     52  N        -26.4070    7.6960  -18.5430 N.3   245  SER245     -0.1202
     53  CA       -25.9120    8.0440  -19.8730 C.3   245  SER245      0.2020
     54  C        -24.3940    8.1890  -19.8750 C.2   245  SER245      0.2618
     55  O        -23.7160    7.7430  -20.7950 O.2   245  SER245     -0.2717
     56  CB       -26.5530    9.3470  -20.3600 C.3   245  SER245      0.2103
     57  OG       -27.9560    9.2060  -20.4840 O.3   245  SER245     -0.2182
     58  N        -23.8670    8.8190  -18.8330 N.am  246  LEU246     -0.1979
     59  CA       -22.4340    9.0480  -18.7220 C.3   246  LEU246      0.1596
     60  C        -21.6600    7.7410  -18.5570 C.2   246  LEU246      0.2287
     61  O        -20.4630    7.6850  -18.8270 O.2   246  LEU246     -0.2864
     62  CB       -22.1340   10.0110  -17.5680 C.3   246  LEU246      0.0297
     63  CG       -22.4490   11.4880  -17.8410 C.3   246  LEU246      0.0022
     64  CD1      -22.6350   12.2650  -16.5510 C.3   246  LEU246      0.0001
     65  CD2      -21.3480   12.1210  -18.6750 C.3   246  LEU246      0.0001
     66  N        -22.3550    4.9730  -20.2830 N.3   248  GLN248     -0.1231
     67  CA       -22.1700    4.4730  -21.6400 C.3   248  GLN248      0.1698
     68  C        -21.0400    5.2290  -22.3190 C.2   248  GLN248      0.2592
     69  O        -20.3150    4.6710  -23.1380 O.2   248  GLN248     -0.2718
     70  CB       -23.4560    4.6220  -22.4540 C.3   248  GLN248      0.0381
     71  CG       -24.7170    4.2630  -21.6950 C.3   248  GLN248      0.0905
     72  CD       -24.7730    2.8010  -21.3030 C.2   248  GLN248      0.2608
     73  OE1      -24.3960    1.9210  -22.0790 O.2   248  GLN248     -0.2717
     74  NE2      -25.2460    2.5330  -20.0910 N.am  248  GLN248     -0.0878
     75  N        -20.9100    6.5080  -21.9810 N.am  249  LEU249     -0.1980
     76  CA       -19.7950    7.3260  -22.4440 C.3   249  LEU249      0.1596
     77  C        -18.4780    6.7320  -21.9710 C.2   249  LEU249      0.2287
     78  O        -17.5050    6.6680  -22.7200 O.2   249  LEU249     -0.2864
     79  CB       -19.9280    8.7540  -21.9120 C.3   249  LEU249      0.0297
     80  CG       -18.7340    9.6830  -22.1470 C.3   249  LEU249      0.0022
     81  CD1      -18.6970   10.1560  -23.5920 C.3   249  LEU249      0.0001
     82  CD2      -18.7560   10.8640  -21.1830 C.3   249  LEU249      0.0001
     83  N        -17.6480    3.6640  -24.0140 N.3   252  SER252     -0.1217
     84  CA       -17.1880    4.0140  -25.3520 C.3   252  SER252      0.1889
     85  C        -15.7490    4.5060  -25.3280 C.2   252  SER252      0.2288
     86  O        -14.9550    4.1910  -26.2140 O.2   252  SER252     -0.2866
     87  CB       -18.0850    5.0950  -25.9490 C.3   252  SER252      0.2089
     88  OG       -19.4500    4.7660  -25.7690 O.3   252  SER252     -0.2183
     89  N        -13.6340    1.6230  -24.6410 N.3   255  MET255     -0.1245
     90  CA       -13.5690    0.8720  -25.8890 C.3   255  MET255      0.1570
     91  C        -12.5490    1.4780  -26.8510 C.2   255  MET255      0.2261
     92  O        -11.8680    0.7580  -27.5820 O.2   255  MET255     -0.2867
     93  CB       -14.9470    0.8170  -26.5500 C.3   255  MET255      0.0387
     94  CG       -15.3430   -0.5500  -27.0900 C.3   255  MET255      0.0595
     95  SD       -15.8080   -1.7130  -25.7910 S.3   255  MET255     -0.1393
     96  CE       -14.2520   -2.5370  -25.4740 C.3   255  MET255      0.0692
@<TRIPOS>BOND
     1     1     2    1
     2     5     2    1
     3     5     6    1
     4     2     3    1
     5    18    12    1
     6    18    17    1
     7     7     6   ar
     8     7     9   ar
     9     6     8   ar
    10     3    12   am
    11     3     4    2
    12    12    13    1
    13    17    16    1
    14     9    11   ar
    15     8    10   ar
    16    16    13    1
    17    11    10   ar
    18    13    14    1
    19    14    15    2
    20    19    20    1
    21    24    25    1
    22    24    23    1
    23    25    26    1
    24    20    23    1
    25    20    21    1
    26    27    21   am
    27    27    28    1
    28    21    22    2
    29    28    29    1
    30    29    30    2
    31    92    91    2
    32    94    93    1
    33    94    95    1
    34    91    90    1
    35    93    90    1
    36    86    85    2
    37    87    88    1
    38    87    84    1
    39    90    89    1
    40    95    96    1
    41    31    32    1
    42    42    41    1
    43    84    85    1
    44    84    83    1
    45    41    40    1
    46    41    43    1
    47    40    37    1
    48    35    32    1
    49    32    33    1
    50    36    37    1
    51    36    33   am
    52    81    80    1
    53    37    38    1
    54    33    34    2
    55    38    39    2
    56    69    68    2
    57    78    77    2
    58    70    71    1
    59    70    67    1
    60    76    75    1
    61    76    77    1
    62    76    79    1
    63    68    75   am
    64    68    67    1
    65    80    79    1
    66    80    82    1
    67    73    72    2
    68    71    72    1
    69    67    66    1
    70    72    74   am
    71    55    54    2
    72    57    56    1
    73    56    53    1
    74    54    53    1
    75    54    58   am
    76    53    52    1
    77    58    59    1
    78    61    60    2
    79    59    60    1
    80    59    62    1
    81    65    63    1
    82    63    62    1
    83    63    64    1
    84    50    49    1
    85    47    46    2
    86    45    46    1
    87    45    44    1
    88    45    48    1
    89    49    48    1
    90    49    51    1
