@<TRIPOS>MOLECULE
tmp/3vvnA07.pdb
 187 169 0 0 0
SMALL
GASTEIGER

@<TRIPOS>ATOM
      1  N        -32.0380    5.8490  -23.1110 N.3    68  ALA68      -0.1245
      2  CA       -32.0920    4.7550  -22.1490 C.3    68  ALA68       0.1562
      3  C        -31.8390    5.2470  -20.7240 C.2    68  ALA68       0.2260
      4  O        -32.3790    4.6950  -19.7640 O.2    68  ALA68      -0.2867
      5  CB       -31.1000    3.6650  -22.5240 C.3    68  ALA68       0.0290
      6  N        -34.2790    4.5570  -17.5580 N.3    72  VAL72      -0.1245
      7  CA       -33.9910    3.9010  -16.2850 C.3    72  VAL72       0.1561
      8  C        -34.2610    4.8190  -15.0900 C.2    72  VAL72       0.2260
      9  O        -34.6770    4.3550  -14.0280 O.2    72  VAL72      -0.2867
     10  CB       -32.5470    3.3260  -16.2320 C.3    72  VAL72       0.0252
     11  CG1      -31.5210    4.4270  -16.3770 C.3    72  VAL72       0.0019
     12  CG2      -32.3200    2.5440  -14.9440 C.3    72  VAL72       0.0019
     13  N        -41.7870   -0.8510  -16.9960 N.3   156  ARG156     -0.1245
     14  CA       -40.8920   -1.5420  -16.0660 C.3   156  ARG156      0.1563
     15  C        -41.0630   -1.0530  -14.6300 C.2   156  ARG156      0.2260
     16  O        -41.0080   -1.8400  -13.6880 O.2   156  ARG156     -0.2867
     17  CB       -39.4310   -1.3770  -16.5010 C.3   156  ARG156      0.0307
     18  CG       -39.0060   -2.2810  -17.6430 C.3   156  ARG156      0.0489
     19  CD       -37.8150   -1.7060  -18.3950 C.3   156  ARG156      0.2205
     20  NE       -36.7290   -1.3040  -17.5050 N.pl3 156  ARG156     -0.0865
     21  CZ       -36.0480   -0.1670  -17.6190 C.cat 156  ARG156      0.5346
     22  NH1      -35.0760    0.1120  -16.7610 N.pl3 156  ARG156      0.1354
     23  NH2      -36.3390    0.6880  -18.5870 N.pl3 156  ARG156      0.1354
     24  N        -26.4590    7.5070  -15.7170 N.3   244  SER244     -0.1217
     25  CA       -26.6550    6.3220  -16.5500 C.3   244  SER244      0.1889
     26  C        -26.1120    6.5350  -17.9630 C.2   244  SER244      0.2288
     27  O        -25.4340    5.6680  -18.5130 O.2   244  SER244     -0.2866
     28  CB       -28.1360    5.9410  -16.6020 C.3   244  SER244      0.2089
     29  OG       -28.3570    4.8550  -17.4810 O.3   244  SER244     -0.2183
     30  N        -22.3510    6.6910  -18.1210 N.3   247  SER247     -0.1202
     31  CA       -21.7280    5.3790  -17.9730 C.3   247  SER247      0.2020
     32  C        -21.4620    4.7370  -19.3270 C.2   247  SER247      0.2618
     33  O        -20.4660    4.0390  -19.4990 O.2   247  SER247     -0.2717
     34  CB       -22.5880    4.4520  -17.1130 C.3   247  SER247      0.2103
     35  OG       -22.4910    4.7960  -15.7430 O.3   247  SER247     -0.2182
     36  N        -22.3550    4.9730  -20.2830 N.am  248  GLN248     -0.1979
     37  CA       -22.1700    4.4730  -21.6400 C.3   248  GLN248      0.1601
     38  C        -21.0400    5.2290  -22.3190 C.2   248  GLN248      0.2287
     39  O        -20.3150    4.6710  -23.1380 O.2   248  GLN248     -0.2864
     40  CB       -23.4560    4.6220  -22.4540 C.3   248  GLN248      0.0394
     41  CG       -24.7170    4.2630  -21.6950 C.3   248  GLN248      0.0908
     42  CD       -24.7730    2.8010  -21.3030 C.2   248  GLN248      0.2608
     43  OE1      -24.3960    1.9210  -22.0790 O.2   248  GLN248     -0.2717
     44  NE2      -25.2460    2.5330  -20.0910 N.am  248  GLN248     -0.0878
     45  N        -17.9270    3.6010  -21.1880 N.3   251  MET251     -0.1245
     46  CA       -17.7220    2.3740  -21.9580 C.3   251  MET251      0.1570
     47  C        -17.1150    2.6570  -23.3300 C.2   251  MET251      0.2261
     48  O        -16.1880    1.9750  -23.7590 O.2   251  MET251     -0.2867
     49  CB       -19.0390    1.6080  -22.1290 C.3   251  MET251      0.0387
     50  CG       -19.2650    0.4840  -21.1250 C.3   251  MET251      0.0595
     51  SD       -18.9520   -1.1670  -21.7930 S.3   251  MET251     -0.1393
     52  CE       -17.1790   -1.3140  -21.5740 C.3   251  MET251      0.0692
     53  N        -14.7480   -9.6450  -28.3360 N.3   278  TRP278     -0.1241
     54  CA       -15.5590   -8.7760  -27.4890 C.3   278  TRP278      0.1605
     55  C        -17.0370   -8.9260  -27.8390 C.2   278  TRP278      0.2264
     56  O        -17.8790   -9.1180  -26.9630 O.2   278  TRP278     -0.2867
     57  CB       -15.1150   -7.3160  -27.6250 C.3   278  TRP278      0.0550
     58  CG       -15.8230   -6.3810  -26.6850 C.ar  278  TRP278      0.0003
     59  CD1      -16.9170   -5.6110  -26.9610 C.ar  278  TRP278      0.0946
     60  CD2      -15.4850   -6.1200  -25.3160 C.ar  278  TRP278      0.0152
     61  NE1      -17.2800   -4.8870  -25.8510 N.ar  278  TRP278     -0.2442
     62  CE2      -16.4180   -5.1820  -24.8250 C.ar  278  TRP278      0.0810
     63  CE3      -14.4860   -6.5880  -24.4550 C.ar  278  TRP278      0.0012
     64  CZ2      -16.3810   -4.7030  -23.5140 C.ar  278  TRP278      0.0191
     65  CZ3      -14.4490   -6.1110  -23.1530 C.ar  278  TRP278      0.0001
     66  CH2      -15.3900   -5.1790  -22.6960 C.ar  278  TRP278      0.0015
     67  N        -19.9250  -10.2900  -25.3700 N.3   282  MET282     -0.1245
     68  CA       -21.0160   -9.3930  -24.9840 C.3   282  MET282      0.1570
     69  C        -22.4040   -9.9950  -25.1920 C.2   282  MET282      0.2261
     70  O        -23.4020   -9.4060  -24.7860 O.2   282  MET282     -0.2867
     71  CB       -20.9160   -8.0460  -25.7050 C.3   282  MET282      0.0387
     72  CG       -19.7280   -7.2040  -25.2800 C.3   282  MET282      0.0595
     73  SD       -19.5900   -7.0150  -23.4920 S.3   282  MET282     -0.1393
     74  CE       -19.8970   -5.2640  -23.3230 C.3   282  MET282      0.0692
     75  N        -23.6340  -10.8810  -21.9300 N.3   285  ILE285     -0.1245
     76  CA       -23.9730   -9.6980  -21.1470 C.3   285  ILE285      0.1561
     77  C        -25.4920   -9.5020  -21.1080 C.2   285  ILE285      0.2260
     78  O        -26.0460   -8.9870  -20.1320 O.2   285  ILE285     -0.2867
     79  CB       -23.2420   -8.4480  -21.7050 C.3   285  ILE285      0.0252
     80  CG1      -21.8630   -8.3190  -21.0560 C.3   285  ILE285      0.0019
     81  CG2      -24.0390   -7.1730  -21.4800 C.3   285  ILE285      0.0019
     82  CD1      -21.9180   -8.0540  -19.5680 C.3   285  ILE285      0.0001
     83  N        -27.9490   -7.7750  -18.2080 N.3   289  LEU289     -0.1245
     84  CA       -28.7150   -6.5480  -18.4120 C.3   289  LEU289      0.1561
     85  C        -30.2010   -6.7640  -18.1370 C.2   289  LEU289      0.2260
     86  O        -30.8830   -5.8650  -17.6500 O.2   289  LEU289     -0.2867
     87  CB       -28.5140   -6.0060  -19.8300 C.3   289  LEU289      0.0270
     88  CG       -27.0980   -5.5500  -20.1860 C.3   289  LEU289      0.0019
     89  CD1      -27.0550   -4.9910  -21.6010 C.3   289  LEU289      0.0001
     90  CD2      -26.6020   -4.5230  -19.1770 C.3   289  LEU289      0.0001
     91  N        -30.4610   -6.8570  -14.4270 N.3   292  ALA292     -0.1231
     92  CA       -30.2230   -5.5180  -13.9030 C.3   292  ALA292      0.1694
     93  C        -31.4930   -4.6790  -13.9340 C.2   292  ALA292      0.2591
     94  O        -31.8230   -4.0020  -12.9600 O.2   292  ALA292     -0.2718
     95  CB       -29.1210   -4.8300  -14.6890 C.3   292  ALA292      0.0304
     96  N        -32.1990   -4.7290  -15.0590 N.am  293  ALA293     -0.1980
     97  CA       -33.4480   -3.9930  -15.2190 C.3   293  ALA293      0.1597
     98  C        -34.4480   -4.3970  -14.1420 C.2   293  ALA293      0.2287
     99  O        -35.0640   -3.5420  -13.5030 O.2   293  ALA293     -0.2864
    100  CB       -34.0350   -4.2260  -16.6080 C.3   293  ALA293      0.0319
    101  N        -14.3700  -13.2860  -17.2600 N.3   363  PHE363     -0.1241
    102  CA       -14.8530  -12.2500  -16.3510 C.3   363  PHE363      0.1605
    103  C        -16.3800  -12.1730  -16.2620 C.2   363  PHE363      0.2264
    104  O        -16.9170  -11.5360  -15.3540 O.2   363  PHE363     -0.2867
    105  CB       -14.2570  -10.8760  -16.7000 C.3   363  PHE363      0.0534
    106  CG       -14.8540  -10.2370  -17.9280 C.ar  363  PHE363     -0.0203
    107  CD1      -16.0210   -9.4920  -17.8460 C.ar  363  PHE363     -0.0042
    108  CD2      -14.2350  -10.3600  -19.1580 C.ar  363  PHE363     -0.0042
    109  CE1      -16.5670   -8.9030  -18.9700 C.ar  363  PHE363     -0.0003
    110  CE2      -14.7750   -9.7710  -20.2890 C.ar  363  PHE363     -0.0003
    111  CZ       -15.9440   -9.0410  -20.1930 C.ar  363  PHE363     -0.0000
    112  N        -18.9310  -10.6260  -13.3500 N.3   367  THR367     -0.1218
    113  CA       -19.7070   -9.4600  -13.7770 C.3   367  THR367      0.1862
    114  C        -21.0190   -9.2000  -12.9980 C.2   367  THR367      0.2287
    115  O        -21.3040   -8.0490  -12.6590 O.2   367  THR367     -0.2866
    116  CB       -19.9890   -9.4830  -15.3010 C.3   367  THR367      0.1770
    117  OG1      -18.7540   -9.5650  -16.0230 O.3   367  THR367     -0.2211
    118  CG2      -20.7250   -8.2240  -15.7250 C.3   367  THR367      0.0375
    119  N        -22.5320   -5.4360  -11.3950 N.3   371  MET371     -0.1245
    120  CA       -23.5840   -4.7710  -12.1570 C.3   371  MET371      0.1570
    121  C        -24.9460   -4.8240  -11.4600 C.2   371  MET371      0.2261
    122  O        -25.7760   -3.9330  -11.6480 O.2   371  MET371     -0.2867
    123  CB       -23.6640   -5.3160  -13.5870 C.3   371  MET371      0.0387
    124  CG       -22.3890   -5.0810  -14.3950 C.3   371  MET371      0.0595
    125  SD       -22.6310   -5.2460  -16.1740 S.3   371  MET371     -0.1393
    126  CE       -24.0560   -4.1930  -16.4250 C.3   371  MET371      0.0692
    127  N        -24.6370   -1.9140   -9.2000 N.3   374  SER374     -0.1202
    128  CA       -24.9970   -0.7190   -9.9530 C.3   374  SER374      0.2020
    129  C        -26.5080   -0.6370  -10.1330 C.2   374  SER374      0.2618
    130  O        -27.1130    0.4160   -9.9340 O.2   374  SER374     -0.2717
    131  CB       -24.3150   -0.7230  -11.3220 C.3   374  SER374      0.2103
    132  OG       -23.3540    0.3120  -11.4120 O.3   374  SER374     -0.2182
    133  N        -27.1070   -1.7640  -10.5020 N.am  375  ALA375     -0.1979
    134  CA       -28.5460   -1.8470  -10.7280 C.3   375  ALA375      0.1597
    135  C        -29.3420   -1.4140   -9.5030 C.2   375  ALA375      0.2287
    136  O        -30.3180   -0.6740   -9.6120 O.2   375  ALA375     -0.2864
    137  CB       -28.9350   -3.2610  -11.1380 C.3   375  ALA375      0.0319
    138  N        -29.0650    2.2530   -8.6550 N.3   378  GLN378     -0.1245
    139  CA       -30.0610    2.9680   -9.4440 C.3   378  GLN378      0.1566
    140  C        -31.4510    2.8520   -8.8200 C.2   378  GLN378      0.2260
    141  O        -32.2020    3.8280   -8.7660 O.2   378  GLN378     -0.2867
    142  CB       -30.0710    2.4400  -10.8840 C.3   378  GLN378      0.0367
    143  CG       -28.8000    2.7590  -11.6490 C.3   378  GLN378      0.0905
    144  CD       -28.6800    2.0100  -12.9620 C.2   378  GLN378      0.2608
    145  OE1      -28.1030    2.5170  -13.9240 O.2   378  GLN378     -0.2717
    146  NE2      -29.2140    0.7960  -13.0060 N.am  378  GLN378     -0.0878
    147  N        -23.3740    4.4210   -9.2540 N.3   386  SER386     -0.1217
    148  CA       -23.3320    3.4970  -10.3800 C.3   386  SER386      0.1889
    149  C        -22.3360    3.9760  -11.4320 C.2   386  SER386      0.2288
    150  O        -21.6060    3.1790  -12.0180 O.2   386  SER386     -0.2866
    151  CB       -24.7240    3.3310  -10.9960 C.3   386  SER386      0.2089
    152  OG       -24.7000    2.3960  -12.0610 O.3   386  SER386     -0.2183
    153  N        -18.8300    2.2340  -12.5650 N.3   390  THR390     -0.1218
    154  CA       -18.6160    1.9840  -13.9880 C.3   390  THR390      0.1862
    155  C        -17.2970    2.5800  -14.4760 C.2   390  THR390      0.2287
    156  O        -16.5400    1.9270  -15.1940 O.2   390  THR390     -0.2866
    157  CB       -19.7700    2.5490  -14.8400 C.3   390  THR390      0.1770
    158  OG1      -20.9920    1.8910  -14.4850 O.3   390  THR390     -0.2211
    159  CG2      -19.4980    2.3310  -16.3180 C.3   390  THR390      0.0375
    160  N        -14.5070    0.5480  -13.1890 N.3   393  ARG393     -0.1245
    161  CA       -14.4320   -0.7400  -13.8680 C.3   393  ARG393      0.1563
    162  C        -13.9120   -0.6290  -15.3030 C.2   393  ARG393      0.2260
    163  O        -12.9450   -1.2940  -15.6720 O.2   393  ARG393     -0.2867
    164  CB       -15.8070   -1.4180  -13.8610 C.3   393  ARG393      0.0307
    165  CG       -15.8410   -2.7740  -14.5510 C.3   393  ARG393      0.0489
    166  CD       -17.2350   -3.3880  -14.5400 C.3   393  ARG393      0.2205
    167  NE       -17.9150   -3.2290  -15.8220 N.pl3 393  ARG393     -0.0865
    168  CZ       -18.9670   -2.4420  -16.0240 C.cat 393  ARG393      0.5346
    169  NH1      -19.5140   -2.3610  -17.2280 N.pl3 393  ARG393      0.1354
    170  NH2      -19.4750   -1.7400  -15.0220 N.pl3 393  ARG393      0.1354
    171  N        -10.0810   -1.9740  -16.4130 N.3   398  GLN398     -0.1245
    172  CA        -9.9800   -2.6480  -17.7090 C.3   398  GLN398      0.1566
    173  C         -8.7590   -2.1880  -18.4940 C.2   398  GLN398      0.2260
    174  O         -7.9230   -2.9950  -18.8990 O.2   398  GLN398     -0.2867
    175  CB       -11.2250   -2.3800  -18.5550 C.3   398  GLN398      0.0367
    176  CG       -12.2660   -3.4830  -18.5630 C.3   398  GLN398      0.0905
    177  CD       -13.3860   -3.2100  -19.5550 C.2   398  GLN398      0.2608
    178  OE1      -14.1500   -4.1080  -19.9120 O.2   398  GLN398     -0.2717
    179  NE2      -13.4860   -1.9630  -20.0040 N.am  398  GLN398     -0.0878
    180  N        -11.7250   -6.4630  -14.6290 N.3   424  ASN424     -0.1240
    181  CA       -13.1590   -6.6600  -14.4330 C.3   424  ASN424      0.1653
    182  C        -13.4630   -7.3680  -13.1200 C.2   424  ASN424      0.2266
    183  O        -14.4270   -7.0390  -12.4280 O.2   424  ASN424     -0.2867
    184  CB       -13.7600   -7.4540  -15.5940 C.3   424  ASN424      0.1155
    185  CG       -14.2330   -6.5670  -16.7240 C.2   424  ASN424      0.2627
    186  OD1      -15.3530   -6.0560  -16.6990 O.2   424  ASN424     -0.2716
    187  ND2      -13.3850   -6.3830  -17.7280 N.am  424  ASN424     -0.0877
@<TRIPOS>BOND
     1    53    54    1
     2    55    54    1
     3    55    56    2
     4    57    54    1
     5    57    58    1
     6    59    58   ar
     7    59    61   ar
     8    58    60   ar
     9    61    62   ar
    10    71    72    1
    11    71    68    1
    12    67    68    1
    13    60    62   ar
    14    60    63   ar
    15    72    73    1
    16    69    68    1
    17    69    70    2
    18    62    64   ar
    19    63    65   ar
    20    48    47    2
    21    64    66   ar
    22    73    74    1
    23    47    46    1
    24    65    66   ar
    25    39    38    2
    26     1     2    1
    27     5     2    1
    28    40    41    1
    29    40    37    1
    30    38    37    1
    31     2     3    1
    32    49    46    1
    33    49    50    1
    34    43    42    2
    35    46    45    1
    36    75    76    1
    37    51    52    1
    38    51    50    1
    39    79    81    1
    40    79    76    1
    41    79    80    1
    42    41    42    1
    43    37    36    1
    44    89    88    1
    45    42    44   am
    46    76    77    1
    47    77    78    2
    48    80    82    1
    49     3     4    2
    50   110   111   ar
    51   110   108   ar
    52    36    32   am
    53   111   109   ar
    54    88    87    1
    55    88    90    1
    56   179   177   am
    57   178   177    2
    58    87    84    1
    59   177   176    1
    60    33    32    2
    61    32    31    1
    62   108   106   ar
    63   109   107   ar
    64   174   173    2
    65    23    21    1
    66   176   175    1
    67   175   172    1
    68    27    26    2
    69   173   172    1
    70    84    83    1
    71    84    85    1
    72    19    18    1
    73    19    20    1
    74    85    86    2
    75    30    31    1
    76    31    34    1
    77    26    25    1
    78   106   107   ar
    79   106   105    1
    80   187   185   am
    81   172   171    1
    82    18    17    1
    83    21    20    2
    84    21    22    1
    85     6     7    1
    86    29    28    1
    87   101   102    1
    88   169   168    1
    89    34    35    1
    90    13    14    1
    91   185   186    2
    92   185   184    1
    93   105   102    1
    94   100    97    1
    95    28    25    1
    96    25    24    1
    97    17    14    1
    98   126   125    1
    99    11    10    1
   100   102   103    1
   101   159   157    1
   102     7    10    1
   103     7     8    1
   104   103   104    2
   105    10    12    1
   106   125   124    1
   107    14    15    1
   108   168   167    2
   109   168   170    1
   110   117   116    1
   111   167   166    1
   112   118   116    1
   113   163   162    2
   114   184   181    1
   115   162   161    1
   116   116   113    1
   117    97    96    1
   118    97    98    1
   119   156   155    2
   120     8     9    2
   121    96    93   am
   122   157   158    1
   123   157   154    1
   124    95    92    1
   125    15    16    2
   126   180   181    1
   127   165   166    1
   128   165   164    1
   129   155   154    1
   130   181   182    1
   131    91    92    1
   132   124   123    1
   133    98    99    2
   134   154   153    1
   135    93    92    1
   136    93    94    2
   137   145   144    2
   138   161   164    1
   139   161   160    1
   140   113   112    1
   141   113   114    1
   142   123   120    1
   143   182   183    2
   144   146   144   am
   145   114   115    2
   146   144   143    1
   147   120   121    1
   148   120   119    1
   149   152   151    1
   150   150   149    2
   151   143   142    1
   152   122   121    2
   153   149   148    1
   154   132   131    1
   155   131   128    1
   156   137   134    1
   157   151   148    1
   158   142   139    1
   159   134   133    1
   160   134   135    1
   161   133   129   am
   162   148   147    1
   163   129   128    1
   164   129   130    2
   165   128   127    1
   166   136   135    2
   167   139   140    1
   168   139   138    1
   169   140   141    2
