@<TRIPOS>MOLECULE
tmp/3vvnA03.pdb
 72 67 0 0 0
SMALL
GASTEIGER

@<TRIPOS>ATOM
      1  N        -21.2110    6.2030  -33.3280 N.3    58  PRO58      -0.2102
      2  CA       -21.0280    6.9210  -32.0570 C.3    58  PRO58       0.1504
      3  C        -22.1600    7.8920  -31.7330 C.2    58  PRO58       0.2575
      4  O        -22.5380    8.0150  -30.5700 O.2    58  PRO58      -0.2718
      5  CB       -19.7280    7.7010  -32.2770 C.3    58  PRO58       0.0282
      6  CG       -18.9880    6.9160  -33.2960 C.3    58  PRO58       0.0208
      7  CD       -20.0410    6.3700  -34.2130 C.3    58  PRO58       0.0893
      8  N        -22.6780    8.5820  -32.7450 N.am   59  VAL59      -0.1980
      9  CA       -23.8010    9.4910  -32.5470 C.3    59  VAL59       0.1595
     10  C        -25.0640    8.7160  -32.1900 C.2    59  VAL59       0.2287
     11  O        -25.7920    9.0860  -31.2700 O.2    59  VAL59      -0.2864
     12  CB       -24.0630   10.3580  -33.7980 C.3    59  VAL59       0.0276
     13  CG1      -25.2960   11.2270  -33.5990 C.3    59  VAL59       0.0022
     14  CG2      -22.8500   11.2190  -34.1060 C.3    59  VAL59       0.0022
     15  N        -24.9320    7.5700  -28.8500 N.3    62  GLY62      -0.1210
     16  CA       -25.1260    8.7220  -27.9900 C.3    62  GLY62       0.1956
     17  C        -26.5990    8.9370  -27.7070 C.2    62  GLY62       0.2611
     18  O        -27.0010    9.1370  -26.5630 O.2    62  GLY62      -0.2717
     19  N        -27.4050    8.8870  -28.7620 N.am   63  ILE63      -0.1979
     20  CA       -28.8510    9.0200  -28.6460 C.3    63  ILE63       0.1595
     21  C        -29.4340    7.9230  -27.7620 C.2    63  ILE63       0.2287
     22  O        -30.2640    8.1960  -26.8950 O.2    63  ILE63      -0.2864
     23  CB       -29.5250    8.9680  -30.0320 C.3    63  ILE63       0.0276
     24  CG1      -28.9880   10.0950  -30.9180 C.3    63  ILE63       0.0022
     25  CG2      -31.0400    9.0520  -29.9010 C.3    63  ILE63       0.0022
     26  CD1      -29.1940    9.8590  -32.4050 C.3    63  ILE63       0.0001
     27  N        -28.6340    8.4870  -24.0240 N.3    66  LEU66      -0.1245
     28  CA       -29.4960    9.4990  -23.4260 C.3    66  LEU66       0.1561
     29  C        -30.9200    8.9900  -23.2350 C.2    66  LEU66       0.2260
     30  O        -31.5090    9.1580  -22.1670 O.2    66  LEU66      -0.2867
     31  CB       -29.4930   10.7650  -24.2840 C.3    66  LEU66       0.0270
     32  CG       -28.1380   11.4750  -24.3210 C.3    66  LEU66       0.0019
     33  CD1      -28.0950   12.5160  -25.4320 C.3    66  LEU66       0.0001
     34  CD2      -27.8410   12.1090  -22.9660 C.3    66  LEU66       0.0001
     35  N        -36.0450   16.2730  -24.4730 N.3   104  LEU104     -0.1245
     36  CA       -34.7610   15.6750  -24.8260 C.3   104  LEU104      0.1561
     37  C        -34.6970   15.2460  -26.2930 C.2   104  LEU104      0.2260
     38  O        -33.7610   15.5970  -27.0060 O.2   104  LEU104     -0.2867
     39  CB       -34.4630   14.4830  -23.9120 C.3   104  LEU104      0.0270
     40  CG       -33.1840   13.6870  -24.1830 C.3   104  LEU104      0.0019
     41  CD1      -31.9640   14.5920  -24.1450 C.3   104  LEU104      0.0001
     42  CD2      -33.0340   12.5440  -23.1820 C.3   104  LEU104      0.0001
     43  N        -34.7420   18.2120  -28.7610 N.3   107  THR107     -0.1203
     44  CA       -33.4960   18.9510  -28.5830 C.3   107  THR107      0.1994
     45  C        -32.3480   18.2730  -29.3240 C.2   107  THR107      0.2617
     46  O        -31.5850   18.9300  -30.0260 O.2   107  THR107     -0.2717
     47  CB       -33.1340   19.1080  -27.0910 C.3   107  THR107      0.1784
     48  OG1      -34.0550   20.0170  -26.4750 O.3   107  THR107     -0.2211
     49  CG2      -31.7150   19.6430  -26.9250 C.3   107  THR107      0.0376
     50  N        -32.2480   16.9550  -29.1710 N.am  108  ILE108     -0.1979
     51  CA       -31.2520   16.1510  -29.8760 C.3   108  ILE108      0.1595
     52  C        -31.3160   16.3800  -31.3830 C.2   108  ILE108      0.2287
     53  O        -30.2920   16.5750  -32.0390 O.2   108  ILE108     -0.2864
     54  CB       -31.4460   14.6440  -29.5750 C.3   108  ILE108      0.0276
     55  CG1      -31.0000   14.3280  -28.1450 C.3   108  ILE108      0.0022
     56  CG2      -30.6680   13.7840  -30.5550 C.3   108  ILE108      0.0022
     57  CD1      -31.4630   12.9780  -27.6470 C.3   108  ILE108      0.0001
     58  N        -30.2690   20.1010  -32.4090 N.3   111  THR111     -0.1203
     59  CA       -28.8540   20.3770  -32.1710 C.3   111  THR111      0.1994
     60  C        -27.9420   19.6690  -33.1780 C.2   111  THR111      0.2617
     61  O        -26.9910   20.2620  -33.6900 O.2   111  THR111     -0.2717
     62  CB       -28.4180   20.0090  -30.7300 C.3   111  THR111      0.1784
     63  OG1      -29.3970   19.1550  -30.1310 O.3   111  THR111     -0.2211
     64  CG2      -28.2770   21.2530  -29.8840 C.3   111  THR111      0.0376
     65  N        -28.2360   18.4030  -33.4650 N.am  112  MET112     -0.1979
     66  CA       -27.3650   17.6020  -34.3240 C.3   112  MET112      0.1605
     67  C        -27.5740   17.8500  -35.8210 C.2   112  MET112      0.2287
     68  O        -26.6300   17.7420  -36.6010 O.2   112  MET112     -0.2864
     69  CB       -27.4850   16.1040  -34.0010 C.3   112  MET112      0.0413
     70  CG       -27.1450   15.7340  -32.5590 C.3   112  MET112      0.0598
     71  SD       -25.5820   16.4360  -31.9990 S.3   112  MET112     -0.1393
     72  CE       -24.4080   15.4410  -32.9040 C.3   112  MET112      0.0692
@<TRIPOS>BOND
     1    68    67    2
     2    67    66    1
     3    66    69    1
     4    66    65    1
     5     7     1    1
     6     7     6    1
     7    14    12    1
     8    69    70    1
     9    12    13    1
    10    12     9    1
    11    61    60    2
    12    65    60   am
    13     1     2    1
    14     6     5    1
    15    60    59    1
    16    72    71    1
    17     8     9    1
    18     8     3   am
    19    70    71    1
    20     9    10    1
    21    58    59    1
    22    26    24    1
    23     5     2    1
    24    10    11    2
    25    59    62    1
    26     2     3    1
    27    53    52    2
    28     3     4    2
    29    52    51    1
    30    24    23    1
    31    62    63    1
    32    62    64    1
    33    56    54    1
    34    23    25    1
    35    23    20    1
    36    46    45    2
    37    51    54    1
    38    51    50    1
    39    54    55    1
    40    45    50   am
    41    45    44    1
    42    15    16    1
    43    19    20    1
    44    19    17   am
    45    43    44    1
    46    20    21    1
    47    44    47    1
    48    55    57    1
    49    16    17    1
    50    21    22    2
    51    17    18    2
    52    47    49    1
    53    47    48    1
    54    38    37    2
    55    37    36    1
    56    33    32    1
    57    36    35    1
    58    36    39    1
    59    32    31    1
    60    32    34    1
    61    31    28    1
    62    40    41    1
    63    40    39    1
    64    40    42    1
    65    27    28    1
    66    28    29    1
    67    29    30    2
