@<TRIPOS>MOLECULE
tmp/3vvnA06.pdb
 102 90 0 0 0
SMALL
GASTEIGER

@<TRIPOS>ATOM
      1  N        -37.4930   -9.3520  -19.9830 N.3    24  MET24      -0.1245
      2  CA       -36.4580   -8.4120  -20.4010 C.3    24  MET24       0.1570
      3  C        -35.3530   -9.1050  -21.1950 C.2    24  MET24       0.2261
      4  O        -34.9140   -8.5950  -22.2220 O.2    24  MET24      -0.2867
      5  CB       -35.8760   -7.6440  -19.2070 C.3    24  MET24       0.0387
      6  CG       -36.8900   -6.7650  -18.4820 C.3    24  MET24       0.0595
      7  SD       -37.8110   -5.6850  -19.5970 S.3    24  MET24      -0.1393
      8  CE       -36.5040   -4.6060  -20.1700 C.3    24  MET24       0.0692
      9  N        -34.4650   -8.2110  -24.9740 N.3    28  MET28      -0.1245
     10  CA       -33.1090   -7.8040  -25.3190 C.3    28  MET28       0.1570
     11  C        -32.4630   -8.7810  -26.2970 C.2    28  MET28       0.2261
     12  O        -31.6530   -8.3840  -27.1330 O.2    28  MET28      -0.2867
     13  CB       -32.2540   -7.6370  -24.0610 C.3    28  MET28       0.0387
     14  CG       -32.7340   -6.5260  -23.1430 C.3    28  MET28       0.0595
     15  SD       -31.6460   -6.2660  -21.7340 S.3    28  MET28      -0.1393
     16  CE       -32.5850   -5.0680  -20.7870 C.3    28  MET28       0.0692
     17  N        -33.5010   -7.8470  -29.7840 N.3    31  GLN31      -0.1245
     18  CA       -32.7580   -6.6630  -30.2060 C.3    31  GLN31       0.1566
     19  C        -31.3550   -7.0300  -30.6750 C.2    31  GLN31       0.2260
     20  O        -30.8540   -6.4850  -31.6570 O.2    31  GLN31      -0.2867
     21  CB       -32.6840   -5.6360  -29.0710 C.3    31  GLN31       0.0367
     22  CG       -34.0320   -5.1000  -28.6370 C.3    31  GLN31       0.0905
     23  CD       -33.9230   -4.0050  -27.5980 C.2    31  GLN31       0.2608
     24  OE1      -34.7920   -3.1340  -27.5040 O.2    31  GLN31      -0.2717
     25  NE2      -32.8570   -4.0440  -26.8050 N.am   31  GLN31      -0.0878
     26  N        -32.0380    5.8490  -23.1110 N.3    68  ALA68      -0.1245
     27  CA       -32.0920    4.7550  -22.1490 C.3    68  ALA68       0.1562
     28  C        -31.8390    5.2470  -20.7240 C.2    68  ALA68       0.2260
     29  O        -32.3790    4.6950  -19.7640 O.2    68  ALA68      -0.2867
     30  CB       -31.1000    3.6650  -22.5240 C.3    68  ALA68       0.0290
     31  N        -39.9800    5.9660  -26.8180 N.3   148  ASN148     -0.1225
     32  CA       -40.0250    4.5110  -26.6820 C.3   148  ASN148      0.1785
     33  C        -39.3090    4.0030  -25.4320 C.2   148  ASN148      0.2597
     34  O        -39.8350    3.1590  -24.7090 O.2   148  ASN148     -0.2718
     35  CB       -39.4620    3.8220  -27.9310 C.3   148  ASN148      0.1169
     36  CG       -40.4090    3.8920  -29.1120 C.2   148  ASN148      0.2627
     37  OD1      -41.5590    4.3190  -28.9790 O.2   148  ASN148     -0.2716
     38  ND2      -39.9330    3.4600  -30.2780 N.am  148  ASN148     -0.0877
     39  N        -38.1120    4.5210  -25.1790 N.am  149  ASN149     -0.1974
     40  CA       -37.3640    4.1430  -23.9850 C.3   149  ASN149      0.1688
     41  C        -38.0630    4.5830  -22.7010 C.2   149  ASN149      0.2292
     42  O        -38.0010    3.8890  -21.6890 O.2   149  ASN149     -0.2864
     43  CB       -35.9330    4.6900  -24.0340 C.3   149  ASN149      0.1181
     44  CG       -35.0200    3.8570  -24.9140 C.2   149  ASN149      0.2629
     45  OD1      -34.2980    2.9830  -24.4300 O.2   149  ASN149     -0.2716
     46  ND2      -35.0520    4.1190  -26.2150 N.am  149  ASN149     -0.0877
     47  N        -41.0470    2.3430  -22.1150 N.3   152  ASN152     -0.1240
     48  CA       -40.5120    1.0830  -21.6160 C.3   152  ASN152      0.1653
     49  C        -40.1550    1.1940  -20.1380 C.2   152  ASN152      0.2266
     50  O        -40.4370    0.2920  -19.3470 O.2   152  ASN152     -0.2867
     51  CB       -39.2840    0.6690  -22.4280 C.3   152  ASN152      0.1155
     52  CG       -39.0190   -0.8160  -22.3630 C.2   152  ASN152      0.2627
     53  OD1      -38.3590   -1.3010  -21.4440 O.2   152  ASN152     -0.2716
     54  ND2      -39.5350   -1.5510  -23.3420 N.am  152  ASN152     -0.0877
     55  N        -41.7870   -0.8510  -16.9960 N.3   156  ARG156     -0.1245
     56  CA       -40.8920   -1.5420  -16.0660 C.3   156  ARG156      0.1563
     57  C        -41.0630   -1.0530  -14.6300 C.2   156  ARG156      0.2260
     58  O        -41.0080   -1.8400  -13.6880 O.2   156  ARG156     -0.2867
     59  CB       -39.4310   -1.3770  -16.5010 C.3   156  ARG156      0.0307
     60  CG       -39.0060   -2.2810  -17.6430 C.3   156  ARG156      0.0489
     61  CD       -37.8150   -1.7060  -18.3950 C.3   156  ARG156      0.2205
     62  NE       -36.7290   -1.3040  -17.5050 N.pl3 156  ARG156     -0.0865
     63  CZ       -36.0480   -0.1670  -17.6190 C.cat 156  ARG156      0.5346
     64  NH1      -35.0760    0.1120  -16.7610 N.pl3 156  ARG156      0.1354
     65  NH2      -36.3390    0.6880  -18.5870 N.pl3 156  ARG156      0.1354
     66  N        -43.1050   -4.5750  -26.6210 N.3   167  ALA167     -0.1231
     67  CA       -42.7050   -3.3970  -27.3880 C.3   167  ALA167      0.1694
     68  C        -41.3210   -3.5680  -28.0140 C.2   167  ALA167      0.2591
     69  O        -41.1000   -3.1870  -29.1620 O.2   167  ALA167     -0.2718
     70  CB       -42.7460   -2.1500  -26.5150 C.3   167  ALA167      0.0304
     71  N        -40.3900   -4.1380  -27.2550 N.am  168  MET168     -0.1979
     72  CA       -39.0590   -4.4290  -27.7730 C.3   168  MET168      0.1605
     73  C        -39.1400   -5.4360  -28.9170 C.2   168  MET168      0.2287
     74  O        -38.5110   -5.2620  -29.9620 O.2   168  MET168     -0.2864
     75  CB       -38.1530   -4.9650  -26.6580 C.3   168  MET168      0.0413
     76  CG       -37.8980   -3.9810  -25.5160 C.3   168  MET168      0.0598
     77  SD       -36.6010   -4.4970  -24.3710 S.3   168  MET168     -0.1393
     78  CE       -37.4220   -5.8020  -23.4700 C.3   168  MET168      0.0692
     79  N        -40.8360   -4.0310  -32.0670 N.3   171  GLY171     -0.1225
     80  CA       -39.9370   -3.0910  -32.7120 C.3   171  GLY171      0.1811
     81  C        -38.7930   -3.7550  -33.4500 C.2   171  GLY171      0.2280
     82  O        -38.5860   -3.5230  -34.6410 O.2   171  GLY171     -0.2866
     83  N        -43.6150    0.9470  -33.0300 N.3   204  THR204     -0.1218
     84  CA       -43.4550    0.7340  -31.5950 C.3   204  THR204      0.1862
     85  C        -44.1510    1.8390  -30.7980 C.2   204  THR204      0.2287
     86  O        -44.8760    1.5620  -29.8430 O.2   204  THR204     -0.2866
     87  CB       -41.9670    0.6800  -31.1870 C.3   204  THR204      0.1770
     88  OG1      -41.3110   -0.3860  -31.8840 O.3   204  THR204     -0.2211
     89  CG2      -41.8330    0.4630  -29.6890 C.3   204  THR204      0.0375
     90  N        -47.1780    1.7960  -27.8940 N.3   208  ILE208     -0.1245
     91  CA       -46.9660    2.3910  -26.5760 C.3   208  ILE208      0.1561
     92  C        -47.9680    3.5070  -26.2920 C.2   208  ILE208      0.2260
     93  O        -48.5860    3.5370  -25.2260 O.2   208  ILE208     -0.2867
     94  CB       -45.5240    2.9200  -26.4100 C.3   208  ILE208      0.0252
     95  CG1      -44.5380    1.7530  -26.3670 C.3   208  ILE208      0.0019
     96  CG2      -45.3970    3.7530  -25.1460 C.3   208  ILE208      0.0019
     97  CD1      -43.1020    2.1780  -26.1620 C.3   208  ILE208      0.0001
     98  N        -32.1990   -4.7290  -15.0590 N.3   293  ALA293     -0.1245
     99  CA       -33.4480   -3.9930  -15.2190 C.3   293  ALA293      0.1562
    100  C        -34.4480   -4.3970  -14.1420 C.2   293  ALA293      0.2260
    101  O        -35.0640   -3.5420  -13.5030 O.2   293  ALA293     -0.2867
    102  CB       -34.0350   -4.2260  -16.6080 C.3   293  ALA293      0.0290
@<TRIPOS>BOND
     1    82    81    2
     2    81    80    1
     3    83    84    1
     4    80    79    1
     5    88    87    1
     6    20    19    2
     7    84    87    1
     8    84    85    1
     9    87    89    1
    10    85    86    2
    11    19    18    1
    12    38    36   am
    13    18    17    1
    14    18    21    1
    15    74    73    2
    16    69    68    2
    17    36    37    2
    18    36    35    1
    19    21    22    1
    20    73    72    1
    21    22    23    1
    22    68    67    1
    23    68    71   am
    24    35    32    1
    25    90    91    1
    26    72    71    1
    27    72    75    1
    28    23    24    2
    29    23    25   am
    30    67    66    1
    31    67    70    1
    32    12    11    2
    33    31    32    1
    34    32    33    1
    35    75    76    1
    36    91    94    1
    37    91    92    1
    38    94    95    1
    39    94    96    1
    40    95    97    1
    41    11    10    1
    42    92    93    2
    43    46    44   am
    44    76    77    1
    45    33    39   am
    46    33    34    2
    47    10     9    1
    48    10    13    1
    49    39    40    1
    50    44    45    2
    51    44    43    1
    52    77    78    1
    53    13    14    1
    54    43    40    1
    55    40    41    1
    56    54    52   am
    57    14    15    1
    58    26    27    1
    59    41    42    2
    60    30    27    1
    61    51    52    1
    62    51    48    1
    63    52    53    2
    64     4     3    2
    65    27    28    1
    66    47    48    1
    67    15    16    1
    68    48    49    1
    69     3     2    1
    70    28    29    2
    71     2     1    1
    72     2     5    1
    73     8     7    1
    74    49    50    2
    75     7     6    1
    76     5     6    1
    77    65    63    1
    78    61    60    1
    79    61    62    1
    80    60    59    1
    81    63    62    2
    82    63    64    1
    83    55    56    1
    84   102    99    1
    85    59    56    1
    86    56    57    1
    87    99    98    1
    88    99   100    1
    89    57    58    2
    90   100   101    2
