@<TRIPOS>MOLECULE
tmp/3vvoA06.pdb
 106 93 0 0 0
SMALL
GASTEIGER

@<TRIPOS>ATOM
      1  N        333.9170   -6.3710  164.8130 N.3    24  MET24      -0.1245
      2  CA       333.1140   -5.2410  164.3650 C.3    24  MET24       0.1570
      3  C        331.9140   -5.0750  165.2930 C.2    24  MET24       0.2261
      4  O        331.6650   -3.9860  165.8240 O.2    24  MET24      -0.2867
      5  CB       332.6360   -5.4640  162.9300 C.3    24  MET24       0.0387
      6  CG       332.7780   -4.2580  162.0160 C.3    24  MET24       0.0595
      7  SD       334.4770   -3.7750  161.6410 S.3    24  MET24      -0.1393
      8  CE       334.1620   -2.4350  160.4840 C.3    24  MET24       0.0692
      9  N        331.4220   -2.2260  168.5940 N.3    28  MET28      -0.1245
     10  CA       330.3950   -1.2300  168.3300 C.3    28  MET28       0.1570
     11  C        329.1770   -1.3960  169.2460 C.2    28  MET28       0.2261
     12  O        328.1980   -0.6530  169.1320 O.2    28  MET28      -0.2867
     13  CB       329.9800   -1.2710  166.8520 C.3    28  MET28       0.0387
     14  CG       328.8820   -2.2770  166.5020 C.3    28  MET28       0.0595
     15  SD       328.6660   -2.4530  164.7100 S.3    28  MET28      -0.1393
     16  CE       327.1370   -3.3960  164.6380 C.3    28  MET28       0.0692
     17  N        328.5320    7.4000  166.6210 N.3    68  ALA68      -0.1245
     18  CA       328.6540    6.2320  165.7530 C.3    68  ALA68       0.1562
     19  C        328.3100    6.5890  164.3140 C.2    68  ALA68       0.2260
     20  O        328.8250    5.9730  163.3770 O.2    68  ALA68      -0.2867
     21  CB       327.7590    5.1010  166.2440 C.3    68  ALA68       0.0290
     22  N        331.2930    7.8960  163.0640 N.3    71  GLY71      -0.1210
     23  CA       332.1770    6.7430  162.9980 C.3    71  GLY71       0.1956
     24  C        332.1290    5.9670  161.6870 C.2    71  GLY71       0.2611
     25  O        333.1820    5.6380  161.1270 O.2    71  GLY71      -0.2717
     26  N        330.9220    5.6590  161.2070 N.am   72  VAL72      -0.1979
     27  CA       330.7580    4.8840  159.9730 C.3    72  VAL72       0.1595
     28  C        331.0320    5.7340  158.7350 C.2    72  VAL72       0.2287
     29  O        331.6200    5.2540  157.7600 O.2    72  VAL72      -0.2864
     30  CB       329.3550    4.2280  159.8700 C.3    72  VAL72       0.0276
     31  CG1      328.2680    5.2310  160.2150 C.3    72  VAL72       0.0022
     32  CG2      329.1200    3.6490  158.4790 C.3    72  VAL72       0.0022
     33  N        334.6880    5.5240  158.7490 N.3    75  SER75      -0.1217
     34  CA       335.1810    4.2040  158.3780 C.3    75  SER75       0.1889
     35  C        334.9180    3.8880  156.9080 C.2    75  SER75       0.2288
     36  O        335.8140    3.4300  156.2090 O.2    75  SER75      -0.2866
     37  CB       334.5710    3.1220  159.2790 C.3    75  SER75       0.2089
     38  OG       333.1890    2.9580  159.0240 O.3    75  SER75      -0.2183
     39  N        336.4370    4.3410  164.3740 N.3   155  GLY155     -0.1225
     40  CA       336.0170    4.3760  162.9830 C.3   155  GLY155      0.1811
     41  C        337.2110    4.4480  162.0430 C.2   155  GLY155      0.2280
     42  O        337.1670    3.9410  160.9210 O.2   155  GLY155     -0.2866
     43  N        338.6820    0.7720  162.2510 N.3   158  ARG158     -0.1245
     44  CA       337.8080   -0.0790  161.4450 C.3   158  ARG158      0.1563
     45  C        337.8370    0.2990  159.9570 C.2   158  ARG158      0.2260
     46  O        337.5160   -0.5220  159.0930 O.2   158  ARG158     -0.2867
     47  CB       336.3770   -0.0380  161.9870 C.3   158  ARG158      0.0307
     48  CG       336.2530   -0.5150  163.4370 C.3   158  ARG158      0.0489
     49  CD       335.0880    0.1730  164.1410 C.3   158  ARG158      0.2205
     50  NE       333.7880   -0.2150  163.6000 N.pl3 158  ARG158     -0.0865
     51  CZ       332.9250   -1.0190  164.2200 C.cat 158  ARG158      0.5346
     52  NH1      333.2220   -1.5280  165.4120 N.pl3 158  ARG158      0.1354
     53  NH2      331.7610   -1.3130  163.6500 N.pl3 158  ARG158      0.1354
     54  N        324.2840   -8.3350  162.9390 N.3   291  LEU291     -0.1245
     55  CA       324.7160   -6.9370  163.0180 C.3   291  LEU291      0.1561
     56  C        326.1550   -6.7280  162.5580 C.2   291  LEU291      0.2260
     57  O        326.4110   -5.8930  161.6920 O.2   291  LEU291     -0.2867
     58  CB       324.5520   -6.3950  164.4430 C.3   291  LEU291      0.0270
     59  CG       323.1160   -6.1420  164.9100 C.3   291  LEU291      0.0019
     60  CD1      323.0660   -5.8550  166.4100 C.3   291  LEU291      0.0001
     61  CD2      322.4980   -4.9900  164.1260 C.3   291  LEU291      0.0001
     62  N        326.8900   -7.0370  158.8510 N.3   294  ALA294     -0.1231
     63  CA       326.4390   -5.8840  158.0830 C.3   294  ALA294      0.1694
     64  C        327.4250   -4.7280  158.2200 C.2   294  ALA294      0.2591
     65  O        327.5120   -3.8800  157.3330 O.2   294  ALA294     -0.2718
     66  CB       325.0370   -5.4580  158.5000 C.3   294  ALA294      0.0304
     67  N        328.1800   -4.7050  159.3160 N.am  295  ALA295     -0.1980
     68  CA       329.1930   -3.6710  159.5040 C.3   295  ALA295      0.1597
     69  C        330.4670   -3.9590  158.6970 C.2   295  ALA295      0.2287
     70  O        331.0430   -3.0520  158.0930 O.2   295  ALA295     -0.2864
     71  CB       329.5090   -3.4750  160.9810 C.3   295  ALA295      0.0319
     72  N        329.9400   -3.1310  154.9750 N.3   298  THR298     -0.1203
     73  CA       330.1260   -1.7270  154.6290 C.3   298  THR298      0.1994
     74  C        331.5990   -1.4140  154.3330 C.2   298  THR298      0.2618
     75  O        331.9070   -0.7490  153.3430 O.2   298  THR298     -0.2717
     76  CB       329.5790   -0.8160  155.7280 C.3   298  THR298      0.1784
     77  OG1      328.1540   -0.9640  155.7890 O.3   298  THR298     -0.2211
     78  CG2      329.9490    0.6480  155.4750 C.3   298  THR298      0.0376
     79  N        332.5010   -1.9110  155.1790 N.am  299  SER299     -0.1951
     80  CA       333.9400   -1.7690  154.9480 C.3   299  SER299      0.1924
     81  C        334.4150   -2.4980  153.6820 C.2   299  SER299      0.2314
     82  O        335.2610   -1.9790  152.9440 O.2   299  SER299     -0.2863
     83  CB       334.7320   -2.2660  156.1600 C.3   299  SER299      0.2116
     84  OG       334.4360   -1.4940  157.3090 O.3   299  SER299     -0.2180
     85  N        318.8840   -5.4890  154.9970 N.3   371  MET371     -0.1245
     86  CA       319.9360   -4.9850  155.8760 C.3   371  MET371      0.1570
     87  C        321.3000   -4.9220  155.1840 C.2   371  MET371      0.2261
     88  O        322.0280   -3.9370  155.3410 O.2   371  MET371     -0.2867
     89  CB       320.0240   -5.8080  157.1630 C.3   371  MET371      0.0387
     90  CG       321.1680   -5.3930  158.0730 C.3   371  MET371      0.0595
     91  SD       321.2280   -6.2790  159.6490 S.3   371  MET371     -0.1393
     92  CE       319.7010   -5.7310  160.4150 C.3   371  MET371      0.0692
     93  N        323.6710   -1.8200  153.8930 N.3   375  ALA375     -0.1245
     94  CA       325.0830   -1.7250  154.2590 C.3   375  ALA375      0.1562
     95  C        325.9400   -1.4470  153.0220 C.2   375  ALA375      0.2260
     96  O        326.9410   -0.7270  153.0940 O.2   375  ALA375     -0.2867
     97  CB       325.5460   -2.9980  154.9630 C.3   375  ALA375      0.0290
     98  N        325.7700    2.2270  152.0450 N.3   378  GLN378     -0.1245
     99  CA       326.7030    2.9960  152.8650 C.3   378  GLN378      0.1566
    100  C        328.1380    2.8170  152.3720 C.2   378  GLN378      0.2260
    101  O        328.9450    3.7460  152.4410 O.2   378  GLN378     -0.2867
    102  CB       326.5910    2.5980  154.3450 C.3   378  GLN378      0.0367
    103  CG       325.2160    2.8740  154.9580 C.3   378  GLN378      0.0905
    104  CD       325.1010    2.4110  156.4020 C.2   378  GLN378      0.2608
    105  OE1      324.5280    1.3540  156.6880 O.2   378  GLN378     -0.2717
    106  NE2      325.6390    3.2050  157.3230 N.am  378  GLN378     -0.0878
@<TRIPOS>BOND
     1    98    99    1
     2   100   101    2
     3   100    99    1
     4    99   102    1
     5    82    81    2
     6    95    96    2
     7    95    94    1
     8    75    74    2
     9    81    80    1
    10    93    94    1
    11    94    97    1
    12    74    73    1
    13    74    79   am
    14   102   103    1
    15    73    72    1
    16    73    76    1
    17    80    79    1
    18    80    83    1
    19   103   104    1
    20    85    86    1
    21    87    88    2
    22    87    86    1
    23    78    76    1
    24    76    77    1
    25    86    89    1
    26    83    84    1
    27    36    35    2
    28   104   105    2
    29   104   106   am
    30    35    34    1
    31    89    90    1
    32    65    64    2
    33    29    28    2
    34    90    91    1
    35    63    64    1
    36    63    66    1
    37    63    62    1
    38    70    69    2
    39    64    67   am
    40    34    33    1
    41    34    37    1
    42    32    30    1
    43    69    68    1
    44    28    27    1
    45    38    37    1
    46    46    45    2
    47    67    68    1
    48    68    71    1
    49    91    92    1
    50    30    27    1
    51    30    31    1
    52    45    44    1
    53    27    26    1
    54     8     7    1
    55    42    41    2
    56    25    24    2
    57    26    24   am
    58    44    47    1
    59    44    43    1
    60     7     6    1
    61    24    23    1
    62    57    56    2
    63    47    48    1
    64     6     5    1
    65    41    40    1
    66    56    55    1
    67     5     2    1
    68    54    55    1
    69    40    39    1
    70    23    22    1
    71    55    58    1
    72    20    19    2
    73    48    49    1
    74    50    49    1
    75    50    51    2
    76    53    51    1
    77    61    59    1
    78    51    52    1
    79    19    18    1
    80     2     1    1
    81     2     3    1
    82    58    59    1
    83    16    15    1
    84    15    14    1
    85    59    60    1
    86     3     4    2
    87    18    21    1
    88    18    17    1
    89    14    13    1
    90    13    10    1
    91    10     9    1
    92    10    11    1
    93    12    11    2
