@<TRIPOS>MOLECULE
tmp/3vvoA07.pdb
 96 90 0 0 0
SMALL
GASTEIGER

@<TRIPOS>ATOM
      1  N        318.9820    6.9670  179.7330 N.3    57  PHE57      -0.1228
      2  CA       319.2870    5.9780  178.7040 C.3    57  PHE57       0.1721
      3  C        319.0200    6.4190  177.2470 C.2    57  PHE57       0.2437
      4  O        319.9040    6.2720  176.3920 O.2    57  PHE57      -0.2733
      5  CB       318.6190    4.6340  179.0250 C.3    57  PHE57       0.0547
      6  CG       318.9180    3.5590  178.0190 C.ar   57  PHE57      -0.0202
      7  CD1      320.1360    2.8850  178.0400 C.ar   57  PHE57      -0.0042
      8  CD2      317.9870    3.2280  177.0380 C.ar   57  PHE57      -0.0042
      9  CE1      320.4240    1.8900  177.0960 C.ar   57  PHE57      -0.0003
     10  CE2      318.2650    2.2340  176.0880 C.ar   57  PHE57      -0.0003
     11  CZ       319.4860    1.5660  176.1190 C.ar   57  PHE57      -0.0000
     12  N        317.8170    6.9640  176.9570 N.am   58  PRO58      -0.2729
     13  CA       317.6100    7.3980  175.5660 C.3    58  PRO58       0.1401
     14  C        318.4490    8.6270  175.1910 C.2    58  PRO58       0.2269
     15  O        318.7990    8.7970  174.0140 O.2    58  PRO58      -0.2865
     16  CB       316.1100    7.7340  175.5110 C.3    58  PRO58       0.0296
     17  CG       315.7150    8.0270  176.9620 C.3    58  PRO58       0.0237
     18  CD       316.5950    7.1100  177.7800 C.3    58  PRO58       0.0939
     19  N        321.8520    7.0090  174.3310 N.3    61  MET61      -0.1230
     20  CA       321.8350    6.3450  173.0310 C.3    61  MET61       0.1702
     21  C        321.8020    7.3480  171.8700 C.2    61  MET61       0.2592
     22  O        322.3260    7.0620  170.7930 O.2    61  MET61      -0.2718
     23  CB       320.6550    5.3750  172.9190 C.3    61  MET61       0.0401
     24  CG       320.6570    4.2500  173.9440 C.3    61  MET61       0.0596
     25  SD       322.0570    3.1080  173.7940 S.3    61  MET61      -0.1393
     26  CE       321.7610    2.4060  172.1690 C.3    61  MET61       0.0692
     27  N        321.1940    8.5160  172.0850 N.am   62  GLY62      -0.1957
     28  CA       321.1460    9.5490  171.0620 C.3    62  GLY62       0.1869
     29  C        322.5330   10.1010  170.7600 C.2    62  GLY62       0.2309
     30  O        322.8770   10.3890  169.6090 O.2    62  GLY62      -0.2863
     31  N        324.3850    7.4610  168.8310 N.3    65  ALA65      -0.1231
     32  CA       323.8920    7.4940  167.4560 C.3    65  ALA65       0.1694
     33  C        324.6540    8.5000  166.5950 C.2    65  ALA65       0.2591
     34  O        325.0300    8.1900  165.4610 O.2    65  ALA65      -0.2718
     35  CB       322.4120    7.8090  167.4340 C.3    65  ALA65       0.0304
     36  N        324.8690    9.6980  167.1450 N.am   66  LEU66      -0.1980
     37  CA       325.6190   10.7630  166.4770 C.3    66  LEU66       0.1596
     38  C        327.1220   10.4630  166.4150 C.2    66  LEU66       0.2287
     39  O        327.7620   10.7000  165.3910 O.2    66  LEU66      -0.2864
     40  CB       325.3860   12.1040  167.1800 C.3    66  LEU66       0.0297
     41  CG       324.0000   12.7310  167.0470 C.3    66  LEU66       0.0022
     42  CD1      323.8200   13.8550  168.0720 C.3    66  LEU66       0.0001
     43  CD2      323.8160   13.2560  165.6300 C.3    66  LEU66       0.0001
     44  N        325.5400   11.5010  158.6970 N.3   244  LEU244     -0.1245
     45  CA       324.3080   12.1810  159.0910 C.3   244  LEU244      0.1561
     46  C        323.0480   11.3630  158.7720 C.2   244  LEU244      0.2260
     47  O        322.1430   11.2860  159.6090 O.2   244  LEU244     -0.2867
     48  CB       324.2320   13.5860  158.4810 C.3   244  LEU244      0.0270
     49  CG       322.9980   14.4400  158.7870 C.3   244  LEU244      0.0019
     50  CD1      323.1040   15.1220  160.1510 C.3   244  LEU244      0.0001
     51  CD2      322.7720   15.4680  157.6790 C.3   244  LEU244      0.0001
     52  N        322.7420    8.7450  161.5220 N.3   247  SER247     -0.1202
     53  CA       322.2000    9.2410  162.7780 C.3   247  SER247      0.2020
     54  C        320.6940    9.3910  162.6650 C.2   247  SER247      0.2618
     55  O        319.9520    9.0140  163.5720 O.2   247  SER247     -0.2717
     56  CB       322.8270   10.5860  163.1260 C.3   247  SER247      0.2103
     57  OG       324.2280   10.4590  163.2800 O.3   247  SER247     -0.2182
     58  N        320.2520    9.9370  161.5360 N.am  248  LEU248     -0.1979
     59  CA       318.8330   10.1540  161.2900 C.3   248  LEU248      0.1596
     60  C        318.0450    8.8440  161.1730 C.2   248  LEU248      0.2287
     61  O        316.8750    8.7880  161.5480 O.2   248  LEU248     -0.2864
     62  CB       318.6320   11.0440  160.0580 C.3   248  LEU248      0.0297
     63  CG       319.1690   12.4690  160.2190 C.3   248  LEU248      0.0022
     64  CD1      318.9260   13.3010  158.9560 C.3   248  LEU248      0.0001
     65  CD2      318.5430   13.1360  161.4410 C.3   248  LEU248      0.0001
     66  N        318.7290    6.2600  162.9660 N.3   250  GLN250     -0.1231
     67  CA       318.5840    5.8860  164.3660 C.3   250  GLN250      0.1698
     68  C        317.4480    6.6680  165.0210 C.2   250  GLN250      0.2592
     69  O        316.6930    6.1260  165.8300 O.2   250  GLN250     -0.2718
     70  CB       319.8910    6.1270  165.1150 C.3   250  GLN250      0.0381
     71  CG       320.2260    5.0370  166.1090 C.3   250  GLN250      0.0905
     72  CD       320.3220    3.6740  165.4510 C.2   250  GLN250      0.2608
     73  OE1      321.1270    3.4720  164.5380 O.2   250  GLN250     -0.2717
     74  NE2      319.4900    2.7340  165.9000 N.am  250  GLN250     -0.0878
     75  N        317.3340    7.9440  164.6580 N.am  251  LEU251     -0.1980
     76  CA       316.2390    8.7890  165.1170 C.3   251  LEU251      0.1596
     77  C        314.8840    8.2650  164.6440 C.2   251  LEU251      0.2287
     78  O        313.9290    8.1820  165.4230 O.2   251  LEU251     -0.2864
     79  CB       316.4350   10.2250  164.6340 C.3   251  LEU251      0.0297
     80  CG       315.2720   11.1800  164.9110 C.3   251  LEU251      0.0022
     81  CD1      315.0990   11.3650  166.4110 C.3   251  LEU251      0.0001
     82  CD2      315.4810   12.5250  164.2010 C.3   251  LEU251      0.0001
     83  N        313.7100    5.4140  166.7630 N.3   254  SER254     -0.1217
     84  CA       313.2740    5.8340  168.0940 C.3   254  SER254      0.1889
     85  C        311.8650    6.4280  168.0590 C.2   254  SER254      0.2288
     86  O        311.0420    6.1500  168.9350 O.2   254  SER254     -0.2866
     87  CB       314.2520    6.8430  168.6920 C.3   254  SER254      0.2089
     88  OG       315.5630    6.3110  168.7350 O.3   254  SER254     -0.2183
     89  N        309.5160    3.5990  167.5540 N.3   257  MET257     -0.1245
     90  CA       309.3210    2.9100  168.8270 C.3   257  MET257      0.1570
     91  C        308.3140    3.6280  169.7260 C.2   257  MET257      0.2261
     92  O        307.4910    2.9870  170.3750 O.2   257  MET257     -0.2867
     93  CB       310.6510    2.7110  169.5670 C.3   257  MET257      0.0387
     94  CG       311.4000    1.4320  169.1970 C.3   257  MET257      0.0595
     95  SD       310.5220   -0.0700  169.6940 S.3   257  MET257     -0.1393
     96  CE       309.8020   -0.5640  168.1290 C.3   257  MET257      0.0692
@<TRIPOS>BOND
     1    51    49    1
     2    48    49    1
     3    48    45    1
     4    44    45    1
     5    46    45    1
     6    46    47    2
     7    49    50    1
     8    64    63    1
     9    62    63    1
    10    62    59    1
    11    63    65    1
    12    60    59    1
    13    60    61    2
    14    59    58    1
    15    52    53    1
    16    58    54   am
    17    54    53    1
    18    54    55    2
    19    53    56    1
    20    66    67    1
    21    56    57    1
    22    82    80    1
    23    67    68    1
    24    67    70    1
    25    73    72    2
    26    79    80    1
    27    79    76    1
    28    77    76    1
    29    77    78    2
    30    75    68   am
    31    75    76    1
    32    80    81    1
    33    68    69    2
    34    70    71    1
    35    39    38    2
    36    72    74   am
    37    72    71    1
    38    34    33    2
    39    43    41    1
    40    38    37    1
    41    37    36    1
    42    37    40    1
    43    33    36   am
    44    33    32    1
    45    83    84    1
    46    41    40    1
    47    41    42    1
    48    35    32    1
    49    32    31    1
    50    89    90    1
    51    85    84    1
    52    85    86    2
    53    84    87    1
    54    96    95    1
    55    87    88    1
    56    90    93    1
    57    90    91    1
    58    94    93    1
    59    94    95    1
    60    30    29    2
    61    91    92    2
    62    29    28    1
    63    22    21    2
    64    28    27    1
    65    21    27   am
    66    21    20    1
    67    26    25    1
    68    23    20    1
    69    23    24    1
    70    20    19    1
    71    25    24    1
    72    15    14    2
    73    14    13    1
    74    16    13    1
    75    16    17    1
    76    13    12    1
    77    10    11   ar
    78    10     8   ar
    79    11     9   ar
    80     4     3    2
    81    12     3   am
    82    12    18    1
    83    17    18    1
    84     8     6   ar
    85     9     7   ar
    86     3     2    1
    87     6     7   ar
    88     6     5    1
    89     2     5    1
    90     2     1    1
