@<TRIPOS>MOLECULE
tmp/3vvoA04.pdb
 95 91 0 0 0
SMALL
GASTEIGER

@<TRIPOS>ATOM
      1  N        320.9410    0.5570  196.2790 N.3    45  LEU45      -0.1245
      2  CA       320.6320    1.8320  196.9190 C.3    45  LEU45       0.1561
      3  C        319.1230    2.1070  196.9370 C.2    45  LEU45       0.2260
      4  O        318.6520    3.0130  197.6340 O.2    45  LEU45      -0.2867
      5  CB       321.3730    2.9840  196.2290 C.3    45  LEU45       0.0270
      6  CG       322.9030    2.9450  196.1780 C.3    45  LEU45       0.0019
      7  CD1      323.4670    4.1570  195.4170 C.3    45  LEU45       0.0001
      8  CD2      323.4600    2.9030  197.5870 C.3    45  LEU45       0.0001
      9  N        317.2940    5.1110  192.7790 N.3    49  SER49      -0.1217
     10  CA       318.5990    5.2420  192.1420 C.3    49  SER49       0.1889
     11  C        318.6850    4.4800  190.8190 C.2    49  SER49       0.2288
     12  O        319.3750    4.9120  189.8900 O.2    49  SER49      -0.2866
     13  CB       319.7020    4.7730  193.0940 C.3    49  SER49       0.2089
     14  OG       319.7620    5.5960  194.2480 O.3    49  SER49      -0.2183
     15  N        322.2610   14.5220  188.6990 N.3   135  GLU135     -0.1245
     16  CA       323.5710   14.2420  189.2910 C.3   135  GLU135      0.1567
     17  C        324.3500   13.2570  188.4200 C.2   135  GLU135      0.2260
     18  O        325.5490   13.4230  188.1900 O.2   135  GLU135     -0.2867
     19  CB       323.4220   13.6980  190.7150 C.3   135  GLU135      0.0388
     20  CG       323.1340   14.9180  191.6210 C.3   135  GLU135      0.1160
     21  CD       323.1810   14.6310  193.1020 C.2   135  GLU135      0.3649
     22  OE1      323.3960   13.4920  193.5550 O.co2 135  GLU135     -0.2457
     23  OE2      323.0220   15.6330  193.8590 O.co2 135  GLU135     -0.2457
     24  N        333.4270    2.9270  193.6650 N.3   184  PHE184     -0.1227
     25  CA       333.0070    4.3210  193.7560 C.3   184  PHE184      0.1736
     26  C        331.6760    4.4880  194.4710 C.2   184  PHE184      0.2595
     27  O        331.5230    5.3750  195.3160 O.2   184  PHE184     -0.2718
     28  CB       332.9060    4.9500  192.3680 C.3   184  PHE184      0.0547
     29  CG       334.2330    5.3300  191.7780 C.ar  184  PHE184     -0.0202
     30  CD1      335.4090    4.7630  192.2540 C.ar  184  PHE184     -0.0042
     31  CD2      334.3140    6.2730  190.7610 C.ar  184  PHE184     -0.0042
     32  CE1      336.6460    5.1100  191.7170 C.ar  184  PHE184     -0.0003
     33  CE2      335.5540    6.6300  190.2130 C.ar  184  PHE184     -0.0003
     34  CZ       336.7200    6.0460  190.6970 C.ar  184  PHE184     -0.0000
     35  N        330.7150    3.6410  194.1140 N.am  185  ILE185     -0.1980
     36  CA       329.3650    3.7110  194.6700 C.3   185  ILE185      0.1595
     37  C        329.3080    3.4030  196.1740 C.2   185  ILE185      0.2287
     38  O        328.6610    4.1230  196.9420 O.2   185  ILE185     -0.2864
     39  CB       328.4030    2.7610  193.9210 C.3   185  ILE185      0.0276
     40  CG1      328.3560    3.1230  192.4350 C.3   185  ILE185      0.0022
     41  CG2      327.0110    2.8320  194.5180 C.3   185  ILE185      0.0022
     42  CD1      327.8380    2.0090  191.5300 C.3   185  ILE185      0.0001
     43  N        331.5410    5.6230  198.7360 N.3   189  GLY189     -0.1210
     44  CA       330.2890    6.2680  199.1000 C.3   189  GLY189      0.1956
     45  C        329.8320    7.3850  198.1730 C.2   189  GLY189      0.2612
     46  O        328.9940    8.2130  198.5510 O.2   189  GLY189     -0.2717
     47  N        330.3630    7.4070  196.9530 N.am  190  PHE190     -0.1962
     48  CA       329.9890    8.4310  195.9790 C.3   190  PHE190      0.1771
     49  C        328.5970    8.2150  195.3520 C.2   190  PHE190      0.2620
     50  O        328.1020    9.0790  194.6230 O.2   190  PHE190     -0.2715
     51  CB       331.0530    8.5480  194.8820 C.3   190  PHE190      0.0574
     52  CG       332.4260    8.9690  195.3810 C.ar  190  PHE190     -0.0200
     53  CD1      332.5920    9.5920  196.6170 C.ar  190  PHE190     -0.0042
     54  CD2      333.5540    8.7470  194.5970 C.ar  190  PHE190     -0.0042
     55  CE1      333.8660    9.9850  197.0630 C.ar  190  PHE190     -0.0003
     56  CE2      334.8270    9.1330  195.0360 C.ar  190  PHE190     -0.0003
     57  CZ       334.9800    9.7560  196.2690 C.ar  190  PHE190     -0.0000
     58  N        327.9790    7.0650  195.6180 N.am  191  GLY191     -0.1940
     59  CA       326.6220    6.7910  195.1540 C.3   191  GLY191      0.2014
     60  C        326.3820    6.8570  193.6470 C.2   191  GLY191      0.2639
     61  O        327.2380    6.4550  192.8530 O.2   191  GLY191     -0.2714
     62  N        325.2040    7.3400  193.2530 N.am  192  VAL192     -0.1963
     63  CA       324.8530    7.4760  191.8400 C.3   192  VAL192      0.1727
     64  C        325.8930    8.2820  191.0470 C.2   192  VAL192      0.2616
     65  O        326.2630    7.8960  189.9280 O.2   192  VAL192     -0.2715
     66  CB       323.4480    8.0870  191.6660 C.3   192  VAL192      0.0290
     67  CG1      323.2440    8.5780  190.2370 C.3   192  VAL192      0.0023
     68  CG2      322.3830    7.0600  192.0370 C.3   192  VAL192      0.0023
     69  N        326.3670    9.3890  191.6250 N.am  193  VAL193     -0.1977
     70  CA       327.4250   10.1740  190.9950 C.3   193  VAL193      0.1596
     71  C        328.6740    9.3120  190.8090 C.2   193  VAL193      0.2287
     72  O        329.3680    9.4270  189.7940 O.2   193  VAL193     -0.2864
     73  CB       327.7990   11.4310  191.8070 C.3   193  VAL193      0.0276
     74  CG1      328.4280   12.4720  190.8970 C.3   193  VAL193      0.0022
     75  CG2      326.5750   12.0130  192.4790 C.3   193  VAL193      0.0022
     76  N        331.0770    8.7150  187.4470 N.3   197  TYR197     -0.1241
     77  CA       332.5090    8.9610  187.3670 C.3   197  TYR197      0.1605
     78  C        333.2690    7.6920  187.0100 C.2   197  TYR197      0.2264
     79  O        334.3150    7.7610  186.3740 O.2   197  TYR197     -0.2867
     80  CB       333.0420    9.5330  188.6750 C.3   197  TYR197      0.0534
     81  CG       332.8400   11.0210  188.8090 C.ar  197  TYR197     -0.0201
     82  CD1      333.5100   11.9110  187.9770 C.ar  197  TYR197     -0.0009
     83  CD2      331.9950   11.5420  189.7730 C.ar  197  TYR197     -0.0009
     84  CE1      333.3310   13.2840  188.0970 C.ar  197  TYR197      0.0417
     85  CE2      331.8110   12.9120  189.9020 C.ar  197  TYR197      0.0417
     86  CZ       332.4800   13.7760  189.0630 C.ar  197  TYR197      0.1957
     87  OH       332.3030   15.1350  189.1890 O.3   197  TYR197     -0.2866
     88  N        335.5060    7.6010  183.7250 N.3   201  LEU201     -0.1245
     89  CA       336.9030    7.2000  183.8630 C.3   201  LEU201      0.1561
     90  C        337.2230    6.0330  182.9320 C.2   201  LEU201      0.2260
     91  O        338.2810    5.9970  182.3060 O.2   201  LEU201     -0.2867
     92  CB       337.2110    6.8190  185.3150 C.3   201  LEU201      0.0270
     93  CG       338.6700    6.5170  185.6630 C.3   201  LEU201      0.0019
     94  CD1      339.5190    7.7600  185.4440 C.3   201  LEU201      0.0001
     95  CD2      338.7950    6.0270  187.1020 C.3   201  LEU201      0.0001
@<TRIPOS>BOND
     1    91    90    2
     2    90    89    1
     3    88    89    1
     4    89    92    1
     5    92    93    1
     6    94    93    1
     7    93    95    1
     8    79    78    2
     9    78    77    1
    10    77    76    1
    11    77    80    1
    12    82    84   ar
    13    82    81   ar
    14    84    86   ar
    15    18    17    2
    16    17    16    1
    17    80    81    1
    18    15    16    1
    19    81    83   ar
    20    86    87    1
    21    86    85   ar
    22    16    19    1
    23    83    85   ar
    24    72    71    2
    25    12    11    2
    26    65    64    2
    27    33    34   ar
    28    33    31   ar
    29    67    66    1
    30    34    32   ar
    31    19    20    1
    32    31    29   ar
    33    71    70    1
    34    11    10    1
    35    74    73    1
    36    70    69    1
    37    70    73    1
    38    64    69   am
    39    64    63    1
    40    42    40    1
    41    20    21    1
    42    66    63    1
    43    66    68    1
    44    32    30   ar
    45    29    30   ar
    46    29    28    1
    47    73    75    1
    48    63    62    1
    49    10     9    1
    50    10    13    1
    51    28    25    1
    52    40    39    1
    53    61    60    2
    54    13    14    1
    55    21    22   ar
    56    21    23   ar
    57    62    60   am
    58    60    59    1
    59    24    25    1
    60    25    26    1
    61    39    41    1
    62    39    36    1
    63    35    26   am
    64    35    36    1
    65    26    27    2
    66    54    56   ar
    67    54    52   ar
    68    50    49    2
    69    36    37    1
    70    51    52    1
    71    51    48    1
    72    56    57   ar
    73    59    58    1
    74    49    58   am
    75    49    48    1
    76    52    53   ar
    77     7     6    1
    78    48    47    1
    79    37    38    2
    80     6     5    1
    81     6     8    1
    82     5     2    1
    83    57    55   ar
    84     1     2    1
    85    53    55   ar
    86     2     3    1
    87     3     4    2
    88    47    45   am
    89    45    46    2
    90    45    44    1
    91    43    44    1
