@<TRIPOS>MOLECULE
tmp/3vvpA00.pdb
 139 129 0 0 0
SMALL
GASTEIGER

@<TRIPOS>ATOM
      1  N       -123.0560   40.9400    0.0600 N.3    31  GLN31      -0.1245
      2  CA      -122.2000   41.9610   -0.5290 C.3    31  GLN31       0.1566
      3  C       -121.5360   41.4520   -1.8050 C.2    31  GLN31       0.2260
      4  O       -121.5040   42.1450   -2.8220 O.2    31  GLN31      -0.2867
      5  CB      -121.1310   42.3990    0.4710 C.3    31  GLN31       0.0367
      6  CG      -120.4090   43.6650    0.0650 C.3    31  GLN31       0.0905
      7  CD      -121.3540   44.8370   -0.0550 C.2    31  GLN31       0.2608
      8  OE1     -122.2390   45.0190    0.7820 O.2    31  GLN31      -0.2717
      9  NE2     -121.1870   45.6310   -1.1070 N.am   31  GLN31      -0.0878
     10  N       -123.9270   40.9690   -4.6330 N.3    34  TYR34      -0.1241
     11  CA      -124.2040   42.2290   -5.3100 C.3    34  TYR34       0.1605
     12  C       -123.1750   42.4880   -6.4010 C.2    34  TYR34       0.2264
     13  O       -123.5280   42.8310   -7.5270 O.2    34  TYR34      -0.2867
     14  CB      -124.2110   43.4030   -4.3300 C.3    34  TYR34       0.0534
     15  CG      -124.0560   44.7390   -5.0220 C.ar   34  TYR34      -0.0201
     16  CD1     -125.1290   45.3330   -5.6700 C.ar   34  TYR34      -0.0009
     17  CD2     -122.8320   45.3970   -5.0420 C.ar   34  TYR34      -0.0009
     18  CE1     -124.9900   46.5460   -6.3130 C.ar   34  TYR34       0.0417
     19  CE2     -122.6840   46.6100   -5.6840 C.ar   34  TYR34       0.0417
     20  CZ      -123.7670   47.1810   -6.3150 C.ar   34  TYR34       0.1957
     21  OH      -123.6270   48.3920   -6.9550 O.3    34  TYR34      -0.2866
     22  N       -113.6410   55.2720   -8.5430 N.3    60  PHE60      -0.1241
     23  CA      -114.6420   54.5320   -7.7840 C.3    60  PHE60       0.1605
     24  C       -113.9570   53.7020   -6.7030 C.2    60  PHE60       0.2264
     25  O       -114.3370   53.7540   -5.5340 O.2    60  PHE60      -0.2867
     26  CB      -115.4370   53.6230   -8.7300 C.3    60  PHE60       0.0534
     27  CG      -116.6720   53.0120   -8.1160 C.ar   60  PHE60      -0.0203
     28  CD1     -117.1030   53.3750   -6.8490 C.ar   60  PHE60      -0.0042
     29  CD2     -117.4020   52.0650   -8.8170 C.ar   60  PHE60      -0.0042
     30  CE1     -118.2350   52.8030   -6.2940 C.ar   60  PHE60      -0.0003
     31  CE2     -118.5350   51.4930   -8.2690 C.ar   60  PHE60      -0.0003
     32  CZ      -118.9520   51.8640   -7.0070 C.ar   60  PHE60      -0.0000
     33  N       -121.1290   55.4200    6.3250 N.3   143  ASN143     -0.1225
     34  CA      -121.6060   54.0480    6.4030 C.3   143  ASN143      0.1785
     35  C       -120.5420   53.0940    6.9310 C.2   143  ASN143      0.2597
     36  O       -120.7930   52.3220    7.8570 O.2   143  ASN143     -0.2718
     37  CB      -122.0890   53.5840    5.0280 C.3   143  ASN143      0.1169
     38  CG      -123.5170   54.0000    4.7430 C.2   143  ASN143      0.2627
     39  OD1     -124.1210   54.7520    5.5080 O.2   143  ASN143     -0.2716
     40  ND2     -124.0660   53.5110    3.6370 N.am  143  ASN143     -0.0877
     41  N       -119.3560   53.1550    6.3350 N.am  144  ASN144     -0.1974
     42  CA      -118.2350   52.3180    6.7480 C.3   144  ASN144      0.1688
     43  C       -117.7200   52.6660    8.1410 C.2   144  ASN144      0.2292
     44  O       -117.2240   51.8000    8.8630 O.2   144  ASN144     -0.2864
     45  CB      -117.1010   52.4030    5.7240 C.3   144  ASN144      0.1181
     46  CG      -117.4400   51.7050    4.4230 C.2   144  ASN144      0.2629
     47  OD1     -116.8990   50.6420    4.1180 O.2   144  ASN144     -0.2716
     48  ND2     -118.3480   52.2930    3.6520 N.am  144  ASN144     -0.0877
     49  N       -120.2720   51.3660   10.4780 N.3   147  ASN147     -0.1240
     50  CA      -119.9790   49.9460   10.4140 C.3   147  ASN147      0.1653
     51  C       -118.7980   49.5600   11.2680 C.2   147  ASN147      0.2266
     52  O       -118.8430   48.5760   11.9320 O.2   147  ASN147     -0.2867
     53  CB      -119.6760   49.5770    8.9820 C.3   147  ASN147      0.1155
     54  CG      -120.5110   48.4230    8.4750 C.2   147  ASN147      0.2627
     55  OD1     -121.4340   47.9690    9.1180 O.2   147  ASN147     -0.2716
     56  ND2     -120.1800   47.9550    7.3000 N.am  147  ASN147     -0.0877
     57  N       -126.6650   45.7910    8.5800 N.3   162  ALA162     -0.1231
     58  CA      -126.2960   46.9810    7.8240 C.3   162  ALA162      0.1694
     59  C       -126.0330   46.6620    6.3560 C.2   162  ALA162      0.2591
     60  O       -126.6640   47.2350    5.4710 O.2   162  ALA162     -0.2718
     61  CB      -125.0770   47.6470    8.4470 C.3   162  ALA162      0.0304
     62  N       -125.1040   45.7450    6.1040 N.am  163  MET163     -0.1979
     63  CA      -124.7400   45.3750    4.7360 C.3   163  MET163      0.1605
     64  C       -125.7820   44.4970    4.0340 C.2   163  MET163      0.2287
     65  O       -125.8650   44.4920    2.8050 O.2   163  MET163     -0.2864
     66  CB      -123.3530   44.7190    4.7020 C.3   163  MET163      0.0413
     67  CG      -122.9960   43.9430    5.9600 C.3   163  MET163      0.0598
     68  SD      -121.2330   43.5540    6.0630 S.3   163  MET163     -0.1393
     69  CE      -121.1460   42.7800    7.6760 C.3   163  MET163      0.0692
     70  N       -129.3050   44.6610    4.6280 N.3   165  LEU165     -0.1231
     71  CA      -130.2800   45.6730    4.2350 C.3   165  LEU165      0.1693
     72  C       -129.6330   46.5650    3.1870 C.2   165  LEU165      0.2593
     73  O       -130.2940   47.0630    2.2730 O.2   165  LEU165     -0.2718
     74  CB      -130.7170   46.4900    5.4540 C.3   165  LEU165      0.0284
     75  CG      -131.2300   47.9250    5.3060 C.3   165  LEU165      0.0019
     76  CD1     -132.4680   48.0110    4.4190 C.3   165  LEU165      0.0001
     77  CD2     -131.5190   48.4980    6.6840 C.3   165  LEU165      0.0001
     78  N       -128.3230   46.7390    3.3240 N.am  166  GLY166     -0.1942
     79  CA      -127.5380   47.4790    2.3600 C.3   166  GLY166      0.2014
     80  C       -127.5430   46.8600    0.9750 C.2   166  GLY166      0.2639
     81  O       -128.2600   47.3190    0.0870 O.2   166  GLY166     -0.2714
     82  N       -126.7430   45.8140    0.7950 N.am  167  SER167     -0.1949
     83  CA      -126.5860   45.1670   -0.5060 C.3   167  SER167      0.1924
     84  C       -127.9030   44.6390   -1.0690 C.2   167  SER167      0.2314
     85  O       -128.0880   44.5840   -2.2850 O.2   167  SER167     -0.2863
     86  CB      -125.5660   44.0310   -0.4150 C.3   167  SER167      0.2116
     87  OG      -124.3380   44.4940    0.1120 O.3   167  SER167     -0.2180
     88  N       -130.8480   46.0230   -0.8780 N.3   169  LEU169     -0.1231
     89  CA      -131.5810   47.1220   -1.4970 C.3   169  LEU169      0.1693
     90  C       -131.0310   47.4200   -2.8880 C.2   169  LEU169      0.2592
     91  O       -131.7630   47.8440   -3.7820 O.2   169  LEU169     -0.2718
     92  CB      -131.5100   48.3750   -0.6190 C.3   169  LEU169      0.0284
     93  CG      -132.5850   49.4360   -0.8620 C.3   169  LEU169      0.0019
     94  CD1     -133.9640   48.8400   -0.6360 C.3   169  LEU169      0.0001
     95  CD2     -132.3720   50.6440    0.0340 C.3   169  LEU169      0.0001
     96  N       -129.7360   47.1850   -3.0690 N.am  170  ASN170     -0.1974
     97  CA      -129.0960   47.4160   -4.3560 C.3   170  ASN170      0.1688
     98  C       -129.3520   46.2920   -5.3540 C.2   170  ASN170      0.2292
     99  O       -129.4570   46.5350   -6.5530 O.2   170  ASN170     -0.2864
    100  CB      -127.5940   47.6180   -4.1820 C.3   170  ASN170      0.1181
    101  CG      -127.0780   48.8130   -4.9510 C.2   170  ASN170      0.2629
    102  OD1     -127.0760   48.8240   -6.1820 O.2   170  ASN170     -0.2716
    103  ND2     -126.6320   49.8280   -4.2260 N.am  170  ASN170     -0.0877
    104  N       -126.8930   52.7310   -6.3750 N.3   192  THR192     -0.1218
    105  CA      -125.9060   52.7490   -5.2990 C.3   192  THR192      0.1862
    106  C       -126.1270   53.9300   -4.3540 C.2   192  THR192      0.2287
    107  O       -126.0800   53.7760   -3.1330 O.2   192  THR192     -0.2866
    108  CB      -124.4680   52.7800   -5.8650 C.3   192  THR192      0.1770
    109  OG1     -124.1670   51.5180   -6.4730 O.3   192  THR192     -0.2211
    110  CG2     -123.4540   53.0540   -4.7690 C.3   192  THR192      0.0375
    111  N       -129.5670   53.6740   -2.4760 N.3   195  SER195     -0.1202
    112  CA      -129.4340   52.5760   -1.5340 C.3   195  SER195      0.2020
    113  C       -128.6280   53.0180   -0.3120 C.2   195  SER195      0.2618
    114  O       -129.0460   52.7970    0.8250 O.2   195  SER195     -0.2717
    115  CB      -128.7780   51.3690   -2.2070 C.3   195  SER195      0.2103
    116  OG      -129.5020   50.9510   -3.3500 O.3   195  SER195     -0.2182
    117  N       -127.4770   53.6420   -0.5580 N.am  196  MET196     -0.1979
    118  CA      -126.5760   54.1020    0.5020 C.3   196  MET196      0.1605
    119  C       -127.2440   55.1010    1.4440 C.2   196  MET196      0.2287
    120  O       -126.9510   55.1340    2.6390 O.2   196  MET196     -0.2864
    121  CB      -125.3180   54.7430   -0.1010 C.3   196  MET196      0.0413
    122  CG      -124.2120   53.7710   -0.5190 C.3   196  MET196      0.0598
    123  SD      -123.0600   53.2840    0.7940 S.3   196  MET196     -0.1393
    124  CE      -121.9220   52.2380   -0.1200 C.3   196  MET196      0.0692
    125  N       -129.6860   53.3520    4.0750 N.3   199  THR199     -0.1218
    126  CA      -128.9590   52.6520    5.1280 C.3   199  THR199      0.1862
    127  C       -128.2710   53.6180    6.0890 C.2   199  THR199      0.2287
    128  O       -128.1140   53.3180    7.2720 O.2   199  THR199     -0.2866
    129  CB      -127.9130   51.6860    4.5480 C.3   199  THR199      0.1770
    130  OG1     -128.4660   51.0010    3.4190 O.3   199  THR199     -0.2211
    131  CG2     -127.4930   50.6700    5.5960 C.3   199  THR199      0.0375
    132  N       -128.3230   53.5040   10.2010 N.3   203  ILE203     -0.1245
    133  CA      -127.1390   53.5450   11.0510 C.3   203  ILE203      0.1561
    134  C       -127.2330   54.6780   12.0710 C.2   203  ILE203      0.2260
    135  O       -126.9890   54.4750   13.2600 O.2   203  ILE203     -0.2867
    136  CB      -125.8500   53.6710   10.2160 C.3   203  ILE203      0.0252
    137  CG1     -125.5980   52.3720    9.4500 C.3   203  ILE203      0.0019
    138  CG2     -124.6590   53.9880   11.1010 C.3   203  ILE203      0.0019
    139  CD1     -124.3440   52.3930    8.6180 C.3   203  ILE203      0.0001
@<TRIPOS>BOND
     1    29    31   ar
     2    29    27   ar
     3    26    27    1
     4    26    23    1
     5    22    23    1
     6    31    32   ar
     7    27    28   ar
     8    23    24    1
     9    13    12    2
    10    32    30   ar
    11    21    20    1
    12    28    30   ar
    13    24    25    2
    14    99    98    2
    15   109   108    1
    16    12    11    1
    17   104   105    1
    18    20    18   ar
    19    20    19   ar
    20    18    16   ar
    21   102   101    2
    22   108   105    1
    23   108   110    1
    24    19    17   ar
    25    16    15   ar
    26    98    97    1
    27    11    10    1
    28    11    14    1
    29   105   106    1
    30    17    15   ar
    31    15    14    1
    32   101   103   am
    33   101   100    1
    34    97   100    1
    35    97    96    1
    36   106   107    2
    37    91    90    2
    38   116   115    1
    39    96    90   am
    40    90    89    1
    41     4     3    2
    42   111   112    1
    43    85    84    2
    44   115   112    1
    45     3     2    1
    46   112   113    1
    47    89    88    1
    48    89    92    1
    49     9     7   am
    50    84    83    1
    51    93    94    1
    52    93    92    1
    53    93    95    1
    54   117   113   am
    55   117   118    1
    56     2     1    1
    57     2     5    1
    58   122   121    1
    59   122   123    1
    60    83    86    1
    61    83    82    1
    62    86    87    1
    63   113   114    2
    64   124   123    1
    65   121   118    1
    66     7     6    1
    67     7     8    2
    68     6     5    1
    69    81    80    2
    70   118   119    1
    71    82    80   am
    72    80    79    1
    73   119   120    2
    74    73    72    2
    75    79    78    1
    76    65    64    2
    77    72    78   am
    78    72    71    1
    79   130   129    1
    80    40    38   am
    81    48    46   am
    82    64    63    1
    83   125   126    1
    84    47    46    2
    85    71    70    1
    86    71    74    1
    87    76    75    1
    88    46    45    1
    89   129   126    1
    90   129   131    1
    91    66    63    1
    92    66    67    1
    93    63    62    1
    94    38    37    1
    95    38    39    2
    96    37    34    1
    97   126   127    1
    98    75    74    1
    99    75    77    1
   100    60    59    2
   101    45    42    1
   102    67    68    1
   103    68    69    1
   104   127   128    2
   105    62    59   am
   106    33    34    1
   107    41    42    1
   108    41    35   am
   109    59    58    1
   110    34    35    1
   111    42    43    1
   112    35    36    2
   113    56    54   am
   114    58    61    1
   115    58    57    1
   116    43    44    2
   117    54    53    1
   118    54    55    2
   119   139   137    1
   120    53    50    1
   121   137   136    1
   122   132   133    1
   123   136   133    1
   124   136   138    1
   125    50    49    1
   126    50    51    1
   127   133   134    1
   128    51    52    2
   129   134   135    2
