@<TRIPOS>MOLECULE
tmp/3vvsA07.pdb
 81 73 0 0 0
SMALL
GASTEIGER

@<TRIPOS>ATOM
      1  N        -40.3690   43.8480    9.3220 N.3   102  LEU102     -0.1245
      2  CA       -40.5530   44.8210    8.2540 C.3   102  LEU102      0.1561
      3  C        -39.4290   45.8500    8.2800 C.2   102  LEU102      0.2260
      4  O        -38.8340   46.1640    7.2500 O.2   102  LEU102     -0.2867
      5  CB       -41.9040   45.5230    8.4010 C.3   102  LEU102      0.0270
      6  CG       -42.2920   46.4950    7.2870 C.3   102  LEU102      0.0019
      7  CD1      -42.5170   45.7460    5.9820 C.3   102  LEU102      0.0001
      8  CD2      -43.5270   47.2950    7.6710 C.3   102  LEU102      0.0001
      9  N        -36.7200   45.3850    5.1190 N.3   106  VAL106     -0.1245
     10  CA       -36.7020   46.4270    4.0970 C.3   106  VAL106      0.1561
     11  C        -35.4240   47.2660    4.1760 C.2   106  VAL106      0.2260
     12  O        -34.8900   47.6920    3.1510 O.2   106  VAL106     -0.2867
     13  CB       -37.9500   47.3310    4.1870 C.3   106  VAL106      0.0252
     14  CG1      -37.9250   48.3900    3.0980 C.3   106  VAL106      0.0019
     15  CG2      -39.2140   46.4920    4.0760 C.3   106  VAL106      0.0019
     16  N        -32.6800   45.6650    2.2840 N.3   109  THR109     -0.1203
     17  CA       -32.8860   45.8560    0.8540 C.3   109  THR109      0.1994
     18  C        -32.4190   47.2330    0.3840 C.2   109  THR109      0.2617
     19  O        -31.6370   47.3390   -0.5600 O.2   109  THR109     -0.2717
     20  CB       -34.3670   45.6640    0.4710 C.3   109  THR109      0.1784
     21  OG1      -34.7980   44.3560    0.8650 O.3   109  THR109     -0.2211
     22  CG2      -34.5590   45.8220   -1.0280 C.3   109  THR109      0.0376
     23  N        -32.8900   48.2830    1.0510 N.am  110  ILE110     -0.1979
     24  CA       -32.5730   49.6500    0.6420 C.3   110  ILE110      0.1595
     25  C        -31.1350   50.0570    0.9630 C.2   110  ILE110      0.2287
     26  O        -30.6360   51.0530    0.4410 O.2   110  ILE110     -0.2864
     27  CB       -33.5410   50.6780    1.2680 C.3   110  ILE110      0.0276
     28  CG1      -33.3780   50.7110    2.7890 C.3   110  ILE110      0.0022
     29  CG2      -34.9790   50.3670    0.8790 C.3   110  ILE110      0.0022
     30  CD1      -34.2680   51.7220    3.4760 C.3   110  ILE110      0.0001
     31  N        -28.8210   47.3940   -1.9090 N.3   113  LEU113     -0.1245
     32  CA       -29.0750   47.6210   -3.3350 C.3   113  LEU113      0.1561
     33  C        -28.1860   48.6870   -3.9940 C.2   113  LEU113      0.2260
     34  O        -27.6110   48.4320   -5.0510 O.2   113  LEU113     -0.2867
     35  CB       -30.5590   47.9070   -3.6040 C.3   113  LEU113      0.0270
     36  CG       -31.4910   46.6980   -3.7000 C.3   113  LEU113      0.0019
     37  CD1      -32.9110   47.1430   -4.0100 C.3   113  LEU113      0.0001
     38  CD2      -30.9910   45.7170   -4.7500 C.3   113  LEU113      0.0001
     39  N        -24.3230   47.4480   -3.5640 N.3   116  ILE116     -0.1245
     40  CA       -23.9130   46.1310   -4.0440 C.3   116  ILE116      0.1561
     41  C        -22.9850   46.2070   -5.2580 C.2   116  ILE116      0.2260
     42  O        -22.2850   45.2450   -5.5720 O.2   116  ILE116     -0.2867
     43  CB       -25.1360   45.2350   -4.3620 C.3   116  ILE116      0.0252
     44  CG1      -24.8140   43.7690   -4.0730 C.3   116  ILE116      0.0019
     45  CG2      -25.6110   45.4390   -5.7950 C.3   116  ILE116      0.0019
     46  CD1      -24.4450   43.5030   -2.6290 C.3   116  ILE116      0.0001
     47  N        -24.4620   41.1620   -9.6450 N.3   134  ILE134     -0.1245
     48  CA       -25.4480   42.1740   -9.2790 C.3   134  ILE134      0.1561
     49  C        -26.8660   41.6890   -9.5640 C.2   134  ILE134      0.2260
     50  O        -27.7480   41.7930   -8.7110 O.2   134  ILE134     -0.2867
     51  CB       -25.2030   43.5000  -10.0260 C.3   134  ILE134      0.0252
     52  CG1      -23.8360   44.0760   -9.6550 C.3   134  ILE134      0.0019
     53  CG2      -26.3000   44.5050   -9.7090 C.3   134  ILE134      0.0019
     54  CD1      -23.5110   45.3750  -10.3610 C.3   134  ILE134      0.0001
     55  N        -29.6880   41.3390   -6.8620 N.3   138  ARG138     -0.1245
     56  CA       -30.9630   42.0540   -6.9130 C.3   138  ARG138      0.1563
     57  C        -32.1340   41.1730   -6.5000 C.2   138  ARG138      0.2260
     58  O        -32.9720   41.5760   -5.6960 O.2   138  ARG138     -0.2867
     59  CB       -31.2350   42.5820   -8.3220 C.3   138  ARG138      0.0307
     60  CG       -30.3160   43.6850   -8.8000 C.3   138  ARG138      0.0489
     61  CD       -30.9800   44.4390   -9.9420 C.3   138  ARG138      0.2205
     62  NE       -30.0270   45.1790  -10.7620 N.pl3 138  ARG138     -0.0865
     63  CZ       -29.7390   44.8780  -12.0240 C.cat 138  ARG138      0.5346
     64  NH1      -30.3340   43.8510  -12.6170 N.pl3 138  ARG138      0.1354
     65  NH2      -28.8600   45.6080  -12.6960 N.pl3 138  ARG138      0.1354
     66  N        -34.1830   41.5790   -3.0800 N.3   142  ALA142     -0.1245
     67  CA       -35.5730   41.9780   -3.2690 C.3   142  ALA142      0.1562
     68  C        -36.4870   41.2950   -2.2590 C.2   142  ALA142      0.2260
     69  O        -37.5310   41.8330   -1.8900 O.2   142  ALA142     -0.2867
     70  CB       -36.0240   41.6610   -4.6860 C.3   142  ALA142      0.0290
     71  N        -36.9420   41.1480    3.0260 N.3   145  PHE145     -0.1241
     72  CA       -38.0500   41.2030    3.9720 C.3   145  PHE145      0.1605
     73  C        -38.7290   39.8430    4.0990 C.2   145  PHE145      0.2264
     74  O        -39.0940   39.4210    5.1950 O.2   145  PHE145     -0.2867
     75  CB       -39.0730   42.2590    3.5490 C.3   145  PHE145      0.0534
     76  CG       -40.4150   42.0930    4.2010 C.ar  145  PHE145     -0.0203
     77  CD1      -40.5710   42.3090    5.5610 C.ar  145  PHE145     -0.0042
     78  CD2      -41.5210   41.7180    3.4560 C.ar  145  PHE145     -0.0042
     79  CE1      -41.8050   42.1520    6.1650 C.ar  145  PHE145     -0.0003
     80  CE2      -42.7570   41.5620    4.0540 C.ar  145  PHE145     -0.0003
     81  CZ       -42.8990   41.7800    5.4110 C.ar  145  PHE145     -0.0000
@<TRIPOS>BOND
     1    65    63    1
     2    64    63    1
     3    63    62    2
     4    62    61    1
     5    54    52    1
     6    51    53    1
     7    51    52    1
     8    51    48    1
     9    61    60    1
    10    47    48    1
    11    49    48    1
    12    49    50    2
    13    60    59    1
    14    59    56    1
    15    56    55    1
    16    56    57    1
    17    57    58    2
    18    45    43    1
    19    42    41    2
    20    41    40    1
    21    34    33    2
    22    38    36    1
    23    70    67    1
    24    43    44    1
    25    43    40    1
    26    44    46    1
    27    40    39    1
    28    37    36    1
    29    33    32    1
    30    36    35    1
    31    35    32    1
    32    32    31    1
    33    67    66    1
    34    67    68    1
    35    68    69    2
    36    22    20    1
    37    19    18    2
    38    18    17    1
    39    18    23   am
    40    26    25    2
    41    20    17    1
    42    20    21    1
    43    24    25    1
    44    24    23    1
    45    24    27    1
    46    17    16    1
    47    29    27    1
    48    27    28    1
    49    28    30    1
    50    71    72    1
    51    14    13    1
    52    12    11    2
    53    78    80   ar
    54    78    76   ar
    55    75    72    1
    56    75    76    1
    57    72    73    1
    58    80    81   ar
    59    15    13    1
    60    10    11    1
    61    10    13    1
    62    10     9    1
    63    73    74    2
    64    76    77   ar
    65    81    79   ar
    66    77    79   ar
    67     7     6    1
    68     4     3    2
    69     6     8    1
    70     6     5    1
    71     2     3    1
    72     2     5    1
    73     2     1    1
