@<TRIPOS>MOLECULE
tmp/3vvsA09.pdb
 85 79 0 0 0
SMALL
GASTEIGER

@<TRIPOS>ATOM
      1  N        -21.1860   36.1470    1.0860 N.3    58  PRO58      -0.2116
      2  CA       -21.0110   36.7470    2.4140 C.3    58  PRO58       0.1372
      3  C        -22.1690   37.6710    2.7790 C.2    58  PRO58       0.2244
      4  O        -22.5440   37.7560    3.9480 O.2    58  PRO58      -0.2868
      5  CB       -19.7220   37.5610    2.2610 C.3    58  PRO58       0.0268
      6  CG       -18.9880   36.9010    1.1560 C.3    58  PRO58       0.0207
      7  CD       -20.0480   36.4570    0.2000 C.3    58  PRO58       0.0892
      8  N        -25.1780   35.3990    3.7800 N.3    61  MET61      -0.1230
      9  CA       -25.0260   34.9240    5.1500 C.3    61  MET61       0.1702
     10  C        -25.3030   36.0350    6.1570 C.2    61  MET61       0.2592
     11  O        -25.7630   35.7760    7.2680 O.2    61  MET61      -0.2718
     12  CB       -23.6250   34.3530    5.3710 C.3    61  MET61       0.0401
     13  CG       -23.3960   32.9940    4.7320 C.3    61  MET61       0.0596
     14  SD       -24.3630   31.6700    5.4850 S.3    61  MET61      -0.1393
     15  CE       -25.6280   31.4070    4.2430 C.3    61  MET61       0.0692
     16  N        -25.0160   37.2720    5.7610 N.am   62  GLY62      -0.1957
     17  CA       -25.2890   38.4240    6.5980 C.3    62  GLY62       0.1869
     18  C        -26.7770   38.6290    6.7980 C.2    62  GLY62       0.2309
     19  O        -27.2300   38.9240    7.9040 O.2    62  GLY62      -0.2863
     20  N        -28.0170   35.7090    8.9960 N.3    65  ALA65      -0.1231
     21  CA       -27.6050   35.9090   10.3810 C.3    65  ALA65       0.1694
     22  C        -28.5320   36.8790   11.1080 C.2    65  ALA65       0.2591
     23  O        -28.8590   36.6810   12.2780 O.2    65  ALA65      -0.2718
     24  CB       -26.1710   36.4070   10.4370 C.3    65  ALA65       0.0304
     25  N        -28.9540   37.9260   10.4060 N.am   66  LEU66      -0.1980
     26  CA       -29.8570   38.9190   10.9760 C.3    66  LEU66       0.1596
     27  C        -31.2780   38.3750   11.0920 C.2    66  LEU66       0.2287
     28  O        -31.9840   38.6590   12.0590 O.2    66  LEU66      -0.2864
     29  CB       -29.8460   40.1980   10.1360 C.3    66  LEU66       0.0297
     30  CG       -28.5470   41.0060   10.1570 C.3    66  LEU66       0.0022
     31  CD1      -28.5960   42.1370    9.1390 C.3    66  LEU66       0.0001
     32  CD2      -28.2830   41.5490   11.5530 C.3    66  LEU66       0.0001
     33  N        -29.4630   40.2360   18.7140 N.3   244  LEU244     -0.1245
     34  CA       -28.2270   40.8790   18.2690 C.3   244  LEU244      0.1561
     35  C        -26.9590   40.0440   18.5140 C.2   244  LEU244      0.2260
     36  O        -26.1430   39.8990   17.6060 O.2   244  LEU244     -0.2867
     37  CB       -28.0900   42.2910   18.8550 C.3   244  LEU244      0.0270
     38  CG       -26.8680   43.1010   18.4160 C.3   244  LEU244      0.0019
     39  CD1      -26.8500   43.2700   16.9040 C.3   244  LEU244      0.0001
     40  CD2      -26.8440   44.4540   19.1090 C.3   244  LEU244      0.0001
     41  N        -26.7330   37.2280   15.9960 N.3   247  SER247     -0.1202
     42  CA       -26.2230   37.6270   14.6900 C.3   247  SER247      0.2020
     43  C        -24.7090   37.7910   14.7280 C.2   247  SER247      0.2618
     44  O        -24.0080   37.4020   13.7930 O.2   247  SER247     -0.2717
     45  CB       -26.8770   38.9330   14.2330 C.3   247  SER247      0.2103
     46  OG       -28.2730   38.7740   14.0580 O.3   247  SER247     -0.2182
     47  N        -24.2100   38.3710   15.8150 N.am  248  LEU248     -0.1979
     48  CA       -22.7770   38.5880   15.9780 C.3   248  LEU248      0.1596
     49  C        -22.0370   37.2660   16.1620 C.2   248  LEU248      0.2287
     50  O        -20.8500   37.1630   15.8520 O.2   248  LEU248     -0.2864
     51  CB       -22.5040   39.5240   17.1570 C.3   248  LEU248      0.0297
     52  CG       -23.0670   40.9420   17.0330 C.3   248  LEU248      0.0022
     53  CD1      -22.7850   41.7490   18.2910 C.3   248  LEU248      0.0001
     54  CD2      -22.4990   41.6420   15.8070 C.3   248  LEU248      0.0001
     55  N        -22.7090   34.6240   14.4680 N.3   250  GLN250     -0.1231
     56  CA       -22.5030   34.1620   13.1020 C.3   250  GLN250      0.1698
     57  C        -21.3480   34.9140   12.4520 C.2   250  GLN250      0.2592
     58  O        -20.6070   34.3540   11.6440 O.2   250  GLN250     -0.2718
     59  CB       -23.7780   34.3430   12.2780 C.3   250  GLN250      0.0381
     60  CG       -25.0360   33.8200   12.9550 C.3   250  GLN250      0.0905
     61  CD       -24.9940   32.3240   13.2040 C.2   250  GLN250      0.2608
     62  OE1      -24.3230   31.5810   12.4880 O.2   250  GLN250     -0.2717
     63  NE2      -25.7130   31.8750   14.2260 N.am  250  GLN250     -0.0878
     64  N        -21.2030   36.1870   12.8080 N.am  251  LEU251     -0.1980
     65  CA       -20.0960   36.9960   12.3140 C.3   251  LEU251      0.1596
     66  C        -18.7790   36.4520   12.8490 C.2   251  LEU251      0.2287
     67  O        -17.7740   36.4200   12.1400 O.2   251  LEU251     -0.2864
     68  CB       -20.2640   38.4580   12.7330 C.3   251  LEU251      0.0297
     69  CG       -19.1620   39.4250   12.2900 C.3   251  LEU251      0.0022
     70  CD1      -19.0610   39.4760   10.7710 C.3   251  LEU251      0.0001
     71  CD2      -19.3980   40.8160   12.8610 C.3   251  LEU251      0.0001
     72  N        -17.8590   33.3810   10.8810 N.3   254  SER254     -0.1202
     73  CA       -17.4420   33.7620    9.5360 C.3   254  SER254      0.2020
     74  C        -16.0240   34.3230    9.5260 C.2   254  SER254      0.2618
     75  O        -15.2220   33.9900    8.6520 O.2   254  SER254     -0.2717
     76  CB       -18.4170   34.7790    8.9400 C.3   254  SER254      0.2103
     77  OG       -19.7300   34.2480    8.8790 O.3   254  SER254     -0.2182
     78  N        -15.7220   35.1790   10.4980 N.am  255  ILE255     -0.1979
     79  CA       -14.3760   35.7170   10.6530 C.3   255  ILE255      0.1595
     80  C        -13.3990   34.5900   10.9690 C.2   255  ILE255      0.2287
     81  O        -12.3040   34.5260   10.4090 O.2   255  ILE255     -0.2864
     82  CB       -14.3180   36.7850   11.7650 C.3   255  ILE255      0.0276
     83  CG1      -15.1210   38.0220   11.3610 C.3   255  ILE255      0.0022
     84  CG2      -12.8790   37.1750   12.0620 C.3   255  ILE255      0.0022
     85  CD1      -14.5880   38.7210   10.1290 C.3   255  ILE255      0.0001
@<TRIPOS>BOND
     1     7     1    1
     2     7     6    1
     3     1     2    1
     4     6     5    1
     5     5     2    1
     6     2     3    1
     7     3     4    2
     8     8     9    1
     9    15    14    1
    10    13    12    1
    11    13    14    1
    12     9    12    1
    13     9    10    1
    14    16    10   am
    15    16    17    1
    16    10    11    2
    17    17    18    1
    18    18    19    2
    19    75    74    2
    20    77    76    1
    21    76    73    1
    22    20    21    1
    23    31    30    1
    24    74    73    1
    25    74    78   am
    26    73    72    1
    27    85    83    1
    28    29    30    1
    29    29    26    1
    30    30    32    1
    31    21    24    1
    32    21    22    1
    33    25    26    1
    34    25    22   am
    35    81    80    2
    36    78    79    1
    37    79    80    1
    38    79    82    1
    39    70    69    1
    40    26    27    1
    41    27    28    2
    42    22    23    2
    43    83    82    1
    44    58    57    2
    45    82    84    1
    46    67    66    2
    47    59    60    1
    48    59    56    1
    49    69    68    1
    50    69    71    1
    51    65    68    1
    52    65    64    1
    53    65    66    1
    54    57    64   am
    55    57    56    1
    56    62    61    2
    57    60    61    1
    58    56    55    1
    59    61    63   am
    60    44    43    2
    61    46    45    1
    62    45    42    1
    63    42    43    1
    64    42    41    1
    65    43    47   am
    66    54    52    1
    67    47    48    1
    68    50    49    2
    69    48    49    1
    70    48    51    1
    71    39    38    1
    72    52    51    1
    73    52    53    1
    74    36    35    2
    75    34    35    1
    76    34    33    1
    77    34    37    1
    78    38    37    1
    79    38    40    1
