@<TRIPOS>MOLECULE
tmp/3vvsA04.pdb
 96 88 0 0 0
SMALL
GASTEIGER

@<TRIPOS>ATOM
      1  N        -21.1860   36.1470    1.0860 N.3    58  PRO58      -0.2102
      2  CA       -21.0110   36.7470    2.4140 C.3    58  PRO58       0.1504
      3  C        -22.1690   37.6710    2.7790 C.2    58  PRO58       0.2575
      4  O        -22.5440   37.7560    3.9480 O.2    58  PRO58      -0.2718
      5  CB       -19.7220   37.5610    2.2610 C.3    58  PRO58       0.0282
      6  CG       -18.9880   36.9010    1.1560 C.3    58  PRO58       0.0208
      7  CD       -20.0480   36.4570    0.2000 C.3    58  PRO58       0.0893
      8  N        -22.7250   38.3500    1.7810 N.am   59  VAL59      -0.1980
      9  CA       -23.8710   39.2240    1.9940 C.3    59  VAL59       0.1595
     10  C        -25.1040   38.3940    2.3270 C.2    59  VAL59       0.2287
     11  O        -25.9140   38.7750    3.1730 O.2    59  VAL59      -0.2864
     12  CB       -24.1620   40.0840    0.7500 C.3    59  VAL59       0.0276
     13  CG1      -25.2760   41.0800    1.0380 C.3    59  VAL59       0.0022
     14  CG2      -22.9020   40.8050    0.3030 C.3    59  VAL59       0.0022
     15  N        -25.0160   37.2720    5.7610 N.3    62  GLY62      -0.1210
     16  CA       -25.2890   38.4240    6.5980 C.3    62  GLY62       0.1956
     17  C        -26.7770   38.6290    6.7980 C.2    62  GLY62       0.2611
     18  O        -27.2300   38.9240    7.9040 O.2    62  GLY62      -0.2717
     19  N        -27.5380   38.4690    5.7200 N.am   63  ILE63      -0.1979
     20  CA       -28.9900   38.5850    5.7800 C.3    63  ILE63       0.1595
     21  C        -29.5780   37.4670    6.6330 C.2    63  ILE63       0.2287
     22  O        -30.4780   37.6960    7.4420 O.2    63  ILE63      -0.2864
     23  CB       -29.6140   38.5250    4.3740 C.3    63  ILE63       0.0276
     24  CG1      -29.0320   39.6260    3.4840 C.3    63  ILE63       0.0022
     25  CG2      -31.1300   38.6440    4.4530 C.3    63  ILE63       0.0022
     26  CD1      -29.5260   39.5770    2.0550 C.3    63  ILE63       0.0001
     27  N        -28.9540   37.9260   10.4060 N.3    66  LEU66      -0.1245
     28  CA       -29.8570   38.9190   10.9760 C.3    66  LEU66       0.1561
     29  C        -31.2780   38.3750   11.0920 C.2    66  LEU66       0.2260
     30  O        -31.9840   38.6590   12.0590 O.2    66  LEU66      -0.2867
     31  CB       -29.8460   40.1980   10.1360 C.3    66  LEU66       0.0270
     32  CG       -28.5470   41.0060   10.1570 C.3    66  LEU66       0.0019
     33  CD1      -28.5960   42.1370    9.1390 C.3    66  LEU66       0.0001
     34  CD2      -28.2830   41.5490   11.5530 C.3    66  LEU66       0.0001
     35  N        -36.3890   45.6370    9.7480 N.3   104  LEU104     -0.1245
     36  CA       -35.0900   45.0380    9.4600 C.3   104  LEU104      0.1561
     37  C        -34.9780   44.5820    8.0070 C.2   104  LEU104      0.2260
     38  O        -33.9830   44.8590    7.3380 O.2   104  LEU104     -0.2867
     39  CB       -34.8180   43.8600   10.3990 C.3   104  LEU104      0.0270
     40  CG       -33.5270   43.0790   10.1430 C.3   104  LEU104      0.0019
     41  CD1      -32.3080   43.9750   10.3240 C.3   104  LEU104      0.0001
     42  CD2      -33.4430   41.8590   11.0500 C.3   104  LEU104      0.0001
     43  N        -34.9320   47.4850    5.3940 N.3   107  THR107     -0.1203
     44  CA       -33.6940   48.2360    5.5970 C.3   107  THR107      0.1994
     45  C        -32.5170   47.5580    4.9020 C.2   107  THR107      0.2617
     46  O        -31.6920   48.2240    4.2810 O.2   107  THR107     -0.2717
     47  CB       -33.3700   48.4130    7.0960 C.3   107  THR107      0.1784
     48  OG1      -34.4280   49.1390    7.7320 O.3   107  THR107     -0.2211
     49  CG2      -32.0630   49.1710    7.2820 C.3   107  THR107      0.0376
     50  N        -32.4530   46.2340    5.0070 N.am  108  ILE108     -0.1979
     51  CA       -31.4150   45.4550    4.3370 C.3   108  ILE108      0.1595
     52  C        -31.4680   45.6720    2.8280 C.2   108  ILE108      0.2287
     53  O        -30.4390   45.8550    2.1780 O.2   108  ILE108     -0.2864
     54  CB       -31.5560   43.9480    4.6420 C.3   108  ILE108      0.0276
     55  CG1      -31.2760   43.6730    6.1200 C.3   108  ILE108      0.0022
     56  CG2      -30.6120   43.1300    3.7710 C.3   108  ILE108      0.0022
     57  CD1      -31.4320   42.2180    6.5090 C.3   108  ILE108      0.0001
     58  N        -30.4690   49.2880    1.8190 N.3   111  THR111     -0.1203
     59  CA       -29.0850   49.5840    2.1780 C.3   111  THR111      0.1994
     60  C        -28.1000   48.9170    1.2210 C.2   111  THR111      0.2617
     61  O        -27.1070   49.5210    0.8160 O.2   111  THR111     -0.2717
     62  CB       -28.7640   49.1500    3.6240 C.3   111  THR111      0.1784
     63  OG1      -29.6240   49.8450    4.5350 O.3   111  THR111     -0.2211
     64  CG2      -27.3160   49.4570    3.9720 C.3   111  THR111      0.0376
     65  N        -28.3880   47.6740    0.8510 N.am  112  MET112     -0.1979
     66  CA       -27.4590   46.8870    0.0470 C.3   112  MET112      0.1605
     67  C        -27.6030   47.1110   -1.4560 C.2   112  MET112      0.2287
     68  O        -26.6200   47.0270   -2.1900 O.2   112  MET112     -0.2864
     69  CB       -27.5830   45.3980    0.3800 C.3   112  MET112      0.0413
     70  CG       -27.2070   45.0570    1.8140 C.3   112  MET112      0.0598
     71  SD       -25.6100   45.7490    2.2940 S.3   112  MET112     -0.1393
     72  CE       -24.5210   44.9720    1.1030 C.3   112  MET112      0.0692
     73  N        -19.3550   47.2450   -3.9040 N.3   119  LEU119     -0.1245
     74  CA       -18.9080   46.1510   -3.0500 C.3   119  LEU119      0.1561
     75  C        -18.2360   45.0540   -3.8690 C.2   119  LEU119      0.2260
     76  O        -17.1630   44.5690   -3.5120 O.2   119  LEU119     -0.2867
     77  CB       -20.0830   45.5690   -2.2630 C.3   119  LEU119      0.0270
     78  CG       -19.7450   44.4130   -1.3190 C.3   119  LEU119      0.0019
     79  CD1      -18.8260   44.8820   -0.2000 C.3   119  LEU119      0.0001
     80  CD2      -21.0130   43.7910   -0.7560 C.3   119  LEU119      0.0001
     81  N        -14.0660   43.8250   -4.1850 N.3   123  MET123     -0.1245
     82  CA       -13.6370   42.4620   -3.8860 C.3   123  MET123      0.1570
     83  C        -12.7800   41.8770   -5.0070 C.2   123  MET123      0.2261
     84  O        -12.7380   40.6620   -5.1970 O.2   123  MET123     -0.2867
     85  CB       -14.8470   41.5620   -3.6180 C.3   123  MET123      0.0387
     86  CG       -15.6380   41.9440   -2.3770 C.3   123  MET123      0.0595
     87  SD       -17.0810   40.8950   -2.1100 S.3   123  MET123     -0.1393
     88  CE       -16.3060   39.2930   -1.9130 C.3   123  MET123      0.0692
     89  N        -21.2030   36.1870   12.8080 N.3   251  LEU251     -0.1245
     90  CA       -20.0960   36.9960   12.3140 C.3   251  LEU251      0.1561
     91  C        -18.7790   36.4520   12.8490 C.2   251  LEU251      0.2260
     92  O        -17.7740   36.4200   12.1400 O.2   251  LEU251     -0.2867
     93  CB       -20.2640   38.4580   12.7330 C.3   251  LEU251      0.0270
     94  CG       -19.1620   39.4250   12.2900 C.3   251  LEU251      0.0019
     95  CD1      -19.0610   39.4760   10.7710 C.3   251  LEU251      0.0001
     96  CD2      -19.3980   40.8160   12.8610 C.3   251  LEU251      0.0001
@<TRIPOS>BOND
     1    84    83    2
     2    83    82    1
     3    81    82    1
     4    73    74    1
     5    82    85    1
     6    75    76    2
     7    75    74    1
     8    85    86    1
     9    74    77    1
    10    86    87    1
    11    77    78    1
    12    68    67    2
    13    87    88    1
    14    67    66    1
    15    78    80    1
    16    78    79    1
    17    66    69    1
    18    66    65    1
    19     7     1    1
    20     7     6    1
    21    14    12    1
    22    69    70    1
    23    12    13    1
    24    12     9    1
    25    61    60    2
    26    65    60   am
    27     1     2    1
    28    72    71    1
    29     6     5    1
    30    60    59    1
    31     8     9    1
    32     8     3   am
    33    70    71    1
    34    58    59    1
    35     9    10    1
    36    26    24    1
    37    59    62    1
    38    53    52    2
    39     5     2    1
    40    10    11    2
    41     2     3    1
    42     3     4    2
    43    52    51    1
    44    24    23    1
    45    62    64    1
    46    62    63    1
    47    56    54    1
    48    46    45    2
    49    51    54    1
    50    51    50    1
    51    23    25    1
    52    23    20    1
    53    54    55    1
    54    45    50   am
    55    45    44    1
    56    43    44    1
    57    44    47    1
    58    19    20    1
    59    19    17   am
    60    15    16    1
    61    20    21    1
    62    55    57    1
    63    16    17    1
    64    21    22    2
    65    17    18    2
    66    47    49    1
    67    47    48    1
    68    38    37    2
    69    37    36    1
    70    33    32    1
    71    36    35    1
    72    36    39    1
    73    31    32    1
    74    31    28    1
    75    40    41    1
    76    40    39    1
    77    40    42    1
    78    32    34    1
    79    27    28    1
    80    95    94    1
    81    28    29    1
    82    29    30    2
    83    92    91    2
    84    94    93    1
    85    94    96    1
    86    90    93    1
    87    90    89    1
    88    90    91    1
