@<TRIPOS>MOLECULE
tmp/3vvsA06.pdb
 143 135 0 0 0
SMALL
GASTEIGER

@<TRIPOS>ATOM
      1  N        -46.2870   40.5910   17.9900 N.3    95  VAL95      -0.1245
      2  CA       -46.5790   41.7840   17.2040 C.3    95  VAL95       0.1561
      3  C        -45.3130   42.6060   16.9860 C.2    95  VAL95       0.2260
      4  O        -45.0350   43.0470   15.8700 O.2    95  VAL95      -0.2867
      5  CB       -47.6530   42.6590   17.8790 C.3    95  VAL95       0.0252
      6  CG1      -47.8790   43.9350   17.0820 C.3    95  VAL95       0.0019
      7  CG2      -48.9510   41.8830   18.0270 C.3    95  VAL95       0.0019
      8  N        -42.9800   41.0500   14.3790 N.3    98  LEU98      -0.1231
      9  CA       -43.4570   41.2040   13.0110 C.3    98  LEU98       0.1693
     10  C        -43.1810   42.6080   12.4850 C.2    98  LEU98       0.2591
     11  O        -42.8440   42.7860   11.3140 O.2    98  LEU98      -0.2718
     12  CB       -44.9480   40.8810   12.9240 C.3    98  LEU98       0.0284
     13  CG       -45.3090   39.4080   13.1190 C.3    98  LEU98       0.0019
     14  CD1      -46.8150   39.2240   13.1480 C.3    98  LEU98       0.0001
     15  CD2      -44.6860   38.5570   12.0220 C.3    98  LEU98       0.0001
     16  N        -43.3250   43.6020   13.3560 N.am   99  ILE99      -0.1980
     17  CA       -43.0160   44.9810   12.9980 C.3    99  ILE99       0.1595
     18  C        -41.5160   45.1370   12.7630 C.2    99  ILE99       0.2287
     19  O        -41.0890   45.8510   11.8540 O.2    99  ILE99      -0.2864
     20  CB       -43.4840   45.9680   14.0860 C.3    99  ILE99       0.0276
     21  CG1      -44.9970   45.8590   14.2860 C.3    99  ILE99       0.0022
     22  CG2      -43.1040   47.3940   13.7190 C.3    99  ILE99       0.0022
     23  CD1      -45.5350   46.7620   15.3730 C.3    99  ILE99       0.0001
     24  N        -40.3690   43.8480    9.3220 N.3   102  LEU102     -0.1245
     25  CA       -40.5530   44.8210    8.2540 C.3   102  LEU102      0.1561
     26  C        -39.4290   45.8500    8.2800 C.2   102  LEU102      0.2260
     27  O        -38.8340   46.1640    7.2500 O.2   102  LEU102     -0.2867
     28  CB       -41.9040   45.5230    8.4010 C.3   102  LEU102      0.0270
     29  CG       -42.2920   46.4950    7.2870 C.3   102  LEU102      0.0019
     30  CD1      -42.5170   45.7460    5.9820 C.3   102  LEU102      0.0001
     31  CD2      -43.5270   47.2950    7.6710 C.3   102  LEU102      0.0001
     32  N        -36.9420   41.1480    3.0260 N.3   145  PHE145     -0.1227
     33  CA       -38.0500   41.2030    3.9720 C.3   145  PHE145      0.1736
     34  C        -38.7290   39.8430    4.0990 C.2   145  PHE145      0.2595
     35  O        -39.0940   39.4210    5.1950 O.2   145  PHE145     -0.2718
     36  CB       -39.0730   42.2590    3.5490 C.3   145  PHE145      0.0547
     37  CG       -40.4150   42.0930    4.2010 C.ar  145  PHE145     -0.0202
     38  CD1      -40.5710   42.3090    5.5610 C.ar  145  PHE145     -0.0042
     39  CD2      -41.5210   41.7180    3.4560 C.ar  145  PHE145     -0.0042
     40  CE1      -41.8050   42.1520    6.1650 C.ar  145  PHE145     -0.0003
     41  CE2      -42.7570   41.5620    4.0540 C.ar  145  PHE145     -0.0003
     42  CZ       -42.8990   41.7800    5.4110 C.ar  145  PHE145     -0.0000
     43  N        -38.8960   39.1680    2.9660 N.am  146  ILE146     -0.1980
     44  CA       -39.4990   37.8410    2.9310 C.3   146  ILE146      0.1595
     45  C        -38.6750   36.8520    3.7530 C.2   146  ILE146      0.2287
     46  O        -39.2250   36.0080    4.4620 O.2   146  ILE146     -0.2864
     47  CB       -39.6280   37.3300    1.4810 C.3   146  ILE146      0.0276
     48  CG1      -40.4420   38.3150    0.6380 C.3   146  ILE146      0.0022
     49  CG2      -40.2720   35.9610    1.4490 C.3   146  ILE146      0.0022
     50  CD1      -41.8650   38.5050    1.1230 C.3   146  ILE146      0.0001
     51  N        -39.1240   37.8720    7.5090 N.3   149  PHE149     -0.1241
     52  CA       -40.4940   37.5460    7.8930 C.3   149  PHE149      0.1605
     53  C        -40.6720   36.0500    8.1440 C.2   149  PHE149      0.2264
     54  O        -41.3040   35.6490    9.1220 O.2   149  PHE149     -0.2867
     55  CB       -41.4810   38.0200    6.8240 C.3   149  PHE149      0.0534
     56  CG       -42.9000   37.5930    7.0760 C.ar  149  PHE149     -0.0203
     57  CD1      -43.6770   38.2470    8.0180 C.ar  149  PHE149     -0.0042
     58  CD2      -43.4580   36.5420    6.3660 C.ar  149  PHE149     -0.0042
     59  CE1      -44.9840   37.8580    8.2510 C.ar  149  PHE149     -0.0003
     60  CE2      -44.7630   36.1490    6.5950 C.ar  149  PHE149     -0.0003
     61  CZ       -45.5270   36.8090    7.5380 C.ar  149  PHE149     -0.0000
     62  N        -41.4000   33.2720   -1.0790 N.3   204  VAL204     -0.1245
     63  CA       -42.6830   33.9640   -1.1660 C.3   204  VAL204      0.1561
     64  C        -43.8420   33.0240   -0.8460 C.2   204  VAL204      0.2260
     65  O        -44.7410   33.3740   -0.0800 O.2   204  VAL204     -0.2867
     66  CB       -42.8910   34.5950   -2.5610 C.3   204  VAL204      0.0252
     67  CG1      -44.3340   35.0470   -2.7410 C.3   204  VAL204      0.0019
     68  CG2      -41.9330   35.7600   -2.7630 C.3   204  VAL204      0.0019
     69  N        -44.0060   32.3800    2.7570 N.3   207  SER207     -0.1202
     70  CA       -44.6080   33.5210    3.4390 C.3   207  SER207      0.2020
     71  C        -46.1270   33.5000    3.3320 C.2   207  SER207      0.2618
     72  O        -46.8260   33.8860    4.2680 O.2   207  SER207     -0.2717
     73  CB       -44.0640   34.8360    2.8780 C.3   207  SER207      0.2103
     74  OG       -42.7040   35.0120    3.2300 O.3   207  SER207     -0.2182
     75  N        -46.6310   33.0500    2.1880 N.am  208  LEU208     -0.1979
     76  CA       -48.0700   32.9510    1.9720 C.3   208  LEU208      0.1596
     77  C        -48.7040   31.9530    2.9370 C.2   208  LEU208      0.2287
     78  O        -49.8330   32.1450    3.3860 O.2   208  LEU208     -0.2864
     79  CB       -48.3760   32.5620    0.5230 C.3   208  LEU208      0.0297
     80  CG       -48.0050   33.6000   -0.5390 C.3   208  LEU208      0.0022
     81  CD1      -48.4110   33.1280   -1.9270 C.3   208  LEU208      0.0001
     82  CD2      -48.6400   34.9440   -0.2190 C.3   208  LEU208      0.0001
     83  N        -48.2990   33.6910    6.5870 N.3   211  ALA211     -0.1245
     84  CA       -49.2650   34.7780    6.7090 C.3   211  ALA211      0.1562
     85  C        -50.6880   34.2430    6.8450 C.2   211  ALA211      0.2260
     86  O        -51.5100   34.8170    7.5590 O.2   211  ALA211     -0.2867
     87  CB       -49.1620   35.7210    5.5190 C.3   211  ALA211      0.0290
     88  N        -52.4010   35.3800   10.1240 N.3   215  PHE215     -0.1241
     89  CA       -53.2980   36.5080    9.8890 C.3   215  PHE215      0.1605
     90  C        -54.6850   36.1080    9.3900 C.2   215  PHE215      0.2264
     91  O        -55.6650   36.8050    9.6490 O.2   215  PHE215     -0.2867
     92  CB       -52.6560   37.4920    8.9080 C.3   215  PHE215      0.0534
     93  CG       -51.3280   38.0230    9.3670 C.ar  215  PHE215     -0.0203
     94  CD1      -51.1570   38.4700   10.6670 C.ar  215  PHE215     -0.0042
     95  CD2      -50.2480   38.0660    8.5010 C.ar  215  PHE215     -0.0042
     96  CE1      -49.9360   38.9580   11.0930 C.ar  215  PHE215     -0.0003
     97  CE2      -49.0230   38.5520    8.9210 C.ar  215  PHE215     -0.0003
     98  CZ       -48.8670   38.9990   10.2170 C.ar  215  PHE215     -0.0000
     99  N        -55.5090   32.4040   11.8030 N.3   218  ARG218     -0.1245
    100  CA       -55.3380   32.8990   13.1680 C.3   218  ARG218      0.1563
    101  C        -55.4200   31.7940   14.2170 C.2   218  ARG218      0.2260
    102  O        -55.8540   32.0260   15.3470 O.2   218  ARG218     -0.2867
    103  CB       -56.3410   34.0150   13.4780 C.3   218  ARG218      0.0307
    104  CG       -56.1680   35.2470   12.6100 C.3   218  ARG218      0.0489
    105  CD       -56.9940   36.4080   13.1300 C.3   218  ARG218      0.2205
    106  NE       -56.8220   37.6010   12.3080 N.pl3 218  ARG218     -0.0865
    107  CZ       -55.8390   38.4820   12.4670 C.cat 218  ARG218      0.5346
    108  NH1      -54.9330   38.3040   13.4200 N.pl3 218  ARG218      0.1354
    109  NH2      -55.7610   39.5400   11.6720 N.pl3 218  ARG218      0.1354
    110  N        -52.3870   37.9630   17.3490 N.3   224  ILE224     -0.1231
    111  CA       -51.6670   38.9980   16.6200 C.3   224  ILE224      0.1692
    112  C        -52.6120   40.0700   16.0890 C.2   224  ILE224      0.2593
    113  O        -53.4520   39.8000   15.2310 O.2   224  ILE224     -0.2718
    114  CB       -50.8730   38.3950   15.4480 C.3   224  ILE224      0.0266
    115  CG1      -49.9670   37.2680   15.9490 C.3   224  ILE224      0.0019
    116  CG2      -50.0650   39.4710   14.7450 C.3   224  ILE224      0.0020
    117  CD1      -49.2250   36.5420   14.8500 C.3   224  ILE224      0.0001
    118  N        -52.4670   41.2870   16.6050 N.am  225  THR225     -0.1939
    119  CA       -53.3130   42.4030   16.1970 C.3   225  THR225      0.2028
    120  C        -52.6760   43.7470   16.5430 C.2   225  THR225      0.2642
    121  O        -51.8920   43.8490   17.4870 O.2   225  THR225     -0.2714
    122  CB       -54.7100   42.3210   16.8470 C.3   225  THR225      0.1808
    123  OG1      -55.4940   43.4530   16.4510 O.3   225  THR225     -0.2208
    124  CG2      -54.5940   42.2950   18.3650 C.3   225  THR225      0.0379
    125  N        -53.0140   44.7730   15.7690 N.am  226  LEU226     -0.1963
    126  CA       -52.5040   46.1200   16.0070 C.3   226  LEU226      0.1728
    127  C        -53.5130   46.9760   16.7650 C.2   226  LEU226      0.2616
    128  O        -53.3880   48.1990   16.8110 O.2   226  LEU226     -0.2715
    129  CB       -52.1390   46.8020   14.6860 C.3   226  LEU226      0.0311
    130  CG       -50.7140   46.6060   14.1690 C.3   226  LEU226      0.0022
    131  CD1      -50.5690   47.1820   12.7690 C.3   226  LEU226      0.0001
    132  CD2      -49.7080   47.2410   15.1170 C.3   226  LEU226      0.0001
    133  N        -54.5120   46.3280   17.3540 N.am  227  ARG227     -0.1977
    134  CA       -55.5480   47.0380   18.0950 C.3   227  ARG227      0.1597
    135  C        -55.4580   46.7510   19.5920 C.2   227  ARG227      0.2287
    136  O        -55.7270   45.6340   20.0330 O.2   227  ARG227     -0.2864
    137  CB       -56.9350   46.6610   17.5710 C.3   227  ARG227      0.0334
    138  CG       -57.2330   47.1520   16.1660 C.3   227  ARG227      0.0492
    139  CD       -57.3130   48.6610   16.1570 C.3   227  ARG227      0.2205
    140  NE       -57.4320   49.1620   14.7990 N.pl3 227  ARG227     -0.0865
    141  CZ       -56.4820   49.3220   13.8840 C.cat 227  ARG227      0.5346
    142  NH1      -55.1800   49.1380   14.1070 N.pl3 227  ARG227      0.1354
    143  NH2      -56.8720   49.6810   12.6450 N.pl3 227  ARG227      0.1354
@<TRIPOS>BOND
     1    68    66    1
     2    67    66    1
     3    66    63    1
     4    81    80    1
     5    63    62    1
     6    63    64    1
     7    64    65    2
     8    80    82    1
     9    80    79    1
    10    79    76    1
    11    48    50    1
    12    48    47    1
    13    49    47    1
    14    47    44    1
    15    76    75    1
    16    76    77    1
    17    75    71   am
    18    69    70    1
    19    73    74    1
    20    73    70    1
    21    44    43    1
    22    44    45    1
    23    77    78    2
    24    43    34   am
    25    32    33    1
    26    71    70    1
    27    71    72    2
    28    39    41   ar
    29    39    37   ar
    30    36    33    1
    31    36    37    1
    32    45    46    2
    33    33    34    1
    34    41    42   ar
    35    34    35    2
    36    37    38   ar
    37    42    40   ar
    38    87    84    1
    39    38    40   ar
    40    30    29    1
    41    58    60   ar
    42    58    56   ar
    43    83    84    1
    44    60    61   ar
    45    84    85    1
    46    55    56    1
    47    55    52    1
    48    85    86    2
    49    56    57   ar
    50    27    26    2
    51    29    31    1
    52    29    28    1
    53    51    52    1
    54    61    59   ar
    55    52    53    1
    56    57    59   ar
    57    53    54    2
    58    25    26    1
    59    25    28    1
    60    25    24    1
    61    95    97   ar
    62    95    93   ar
    63    92    93    1
    64    92    89    1
    65    97    98   ar
    66    93    94   ar
    67    90    91    2
    68    90    89    1
    69    89    88    1
    70    98    96   ar
    71    94    96   ar
    72    11    10    2
    73   109   107    1
    74    99   100    1
    75    19    18    2
    76    15    13    1
    77   106   107    2
    78   106   105    1
    79   107   108    1
    80    10     9    1
    81    10    16   am
    82   104   105    1
    83   104   103    1
    84   143   141    1
    85    18    17    1
    86   131   130    1
    87    12     9    1
    88    12    13    1
    89    17    16    1
    90    17    20    1
    91     9     8    1
    92    13    14    1
    93   100   103    1
    94   100   101    1
    95    22    20    1
    96   141   142    1
    97   141   140    2
    98    20    21    1
    99   130   129    1
   100   130   132    1
   101   101   102    2
   102    21    23    1
   103   129   126    1
   104   116   114    1
   105   140   139    1
   106   117   115    1
   107   113   112    2
   108   114   115    1
   109   114   111    1
   110   125   126    1
   111   125   120   am
   112     4     3    2
   113   126   127    1
   114   112   118   am
   115   112   111    1
   116   139   138    1
   117   138   137    1
   118   119   120    1
   119   119   118    1
   120   119   122    1
   121   123   122    1
   122   120   121    2
   123   111   110    1
   124   127   128    2
   125   127   133   am
   126   122   124    1
   127     3     2    1
   128     6     5    1
   129     2     5    1
   130     2     1    1
   131   133   134    1
   132   137   134    1
   133     5     7    1
   134   134   135    1
   135   135   136    2
