@<TRIPOS>MOLECULE
tmp/3vvsA00.pdb
 114 109 0 0 0
SMALL
GASTEIGER

@<TRIPOS>ATOM
      1  N        -52.9510   25.2400   23.2290 N.3     3  THR3       -0.1203
      2  CA       -52.5480   24.4540   22.0710 C.3     3  THR3        0.1994
      3  C        -51.6760   23.2880   22.5180 C.2     3  THR3        0.2618
      4  O        -51.2170   23.2510   23.6600 O.2     3  THR3       -0.2717
      5  CB       -51.7730   25.3070   21.0490 C.3     3  THR3        0.1784
      6  OG1      -50.4840   25.6410   21.5770 O.3     3  THR3       -0.2211
      7  CG2      -52.5350   26.5840   20.7370 C.3     3  THR3        0.0376
      8  N        -51.4500   22.3380   21.6150 N.am    4  LYS4       -0.1965
      9  CA       -50.6410   21.1640   21.9260 C.3     4  LYS4        0.1728
     10  C        -49.1950   21.5370   22.2350 C.2     4  LYS4        0.2616
     11  O        -48.5400   20.8910   23.0500 O.2     4  LYS4       -0.2715
     12  CB       -50.6810   20.1600   20.7730 C.3     4  LYS4        0.0311
     13  CG       -52.0590   19.5960   20.4740 C.3     4  LYS4        0.0038
     14  CD       -52.8580   19.2560   21.7090 C.3     4  LYS4        0.0206
     15  CE       -54.2750   18.7750   21.4660 C.3     4  LYS4        0.1093
     16  NZ       -54.8720   18.3420   22.7880 N.3     4  LYS4       -0.1314
     17  N        -48.7020   22.5800   21.5770 N.am    5  GLY5       -0.1955
     18  CA       -47.3390   23.0360   21.7770 C.3     5  GLY5        0.1869
     19  C        -47.1440   23.6870   23.1310 C.2     5  GLY5        0.2309
     20  O        -46.1040   23.5190   23.7680 O.2     5  GLY5       -0.2863
     21  N        -47.0890   21.0770   25.6150 N.3     8  LEU8       -0.1245
     22  CA       -45.7980   20.4160   25.4880 C.3     8  LEU8        0.1561
     23  C        -44.7180   21.1900   26.2380 C.2     8  LEU8        0.2260
     24  O        -43.8870   20.6020   26.9290 O.2     8  LEU8       -0.2867
     25  CB       -45.4230   20.2800   24.0110 C.3     8  LEU8        0.0270
     26  CG       -44.2680   19.3440   23.6610 C.3     8  LEU8        0.0019
     27  CD1      -44.5960   17.9160   24.0660 C.3     8  LEU8        0.0001
     28  CD2      -43.9650   19.4240   22.1760 C.3     8  LEU8        0.0001
     29  N        -40.0590   15.9020   21.3490 N.3    19  ARG19      -0.1231
     30  CA       -41.1340   16.2260   20.4150 C.3    19  ARG19       0.1694
     31  C        -40.9220   17.5500   19.6770 C.2    19  ARG19       0.2591
     32  O        -41.6030   17.8290   18.6910 O.2    19  ARG19      -0.2718
     33  CB       -42.4840   16.2370   21.1370 C.3    19  ARG19       0.0321
     34  CG       -42.8740   14.8660   21.6830 C.3    19  ARG19       0.0489
     35  CD       -43.0580   13.7830   20.6250 C.3    19  ARG19       0.2205
     36  NE       -44.0330   14.2210   19.6150 N.pl3  19  ARG19      -0.0865
     37  CZ       -45.3290   14.1070   19.7320 C.cat  19  ARG19       0.5346
     38  NH1      -45.8780   13.4990   20.7790 N.pl3  19  ARG19       0.1354
     39  NH2      -46.1450   14.5830   18.8200 N.pl3  19  ARG19       0.1354
     40  N        -39.9840   18.3630   20.1530 N.am   20  LEU20      -0.1980
     41  CA       -39.7030   19.6470   19.5160 C.3    20  LEU20       0.1596
     42  C        -38.4590   19.6010   18.6330 C.2    20  LEU20       0.2287
     43  O        -38.4340   20.1980   17.5580 O.2    20  LEU20      -0.2864
     44  CB       -39.5640   20.7590   20.5600 C.3    20  LEU20       0.0297
     45  CG       -40.8440   21.2190   21.2610 C.3    20  LEU20       0.0022
     46  CD1      -40.5340   22.2830   22.3040 C.3    20  LEU20       0.0001
     47  CD2      -41.8550   21.7360   20.2530 C.3    20  LEU20       0.0001
     48  N        -38.8610   17.5190   14.8990 N.3    23  PRO23      -0.2116
     49  CA       -39.3270   18.2700   13.7260 C.3    23  PRO23       0.1372
     50  C        -38.3050   19.2980   13.2440 C.2    23  PRO23       0.2244
     51  O        -38.2400   19.5810   12.0490 O.2    23  PRO23      -0.2868
     52  CB       -40.5780   18.9870   14.2450 C.3    23  PRO23       0.0268
     53  CG       -41.0480   18.1540   15.3770 C.3    23  PRO23       0.0207
     54  CD       -39.8000   17.6460   16.0290 C.3    23  PRO23       0.0892
     55  N        -44.1380   28.9770   20.7440 N.3   160  GLU160     -0.1231
     56  CA       -45.3010   28.3770   21.3880 C.3   160  GLU160      0.1699
     57  C        -45.3560   26.8630   21.1890 C.2   160  GLU160      0.2593
     58  O        -46.4340   26.2710   21.1420 O.2   160  GLU160     -0.2718
     59  CB       -46.5970   29.0390   20.9080 C.3   160  GLU160      0.0402
     60  CG       -46.8080   29.0180   19.4040 C.3   160  GLU160      0.1161
     61  CD       -48.1270   29.6500   19.0000 C.2   160  GLU160      0.3649
     62  OE1      -48.9860   28.9340   18.4430 O.co2 160  GLU160     -0.2457
     63  OE2      -48.3060   30.8620   19.2420 O.co2 160  GLU160     -0.2457
     64  N        -44.1830   26.2480   21.0720 N.am  161  GLY161     -0.1942
     65  CA       -44.0720   24.8010   20.9940 C.3   161  GLY161      0.2014
     66  C        -44.6340   24.1780   19.7310 C.2   161  GLY161      0.2639
     67  O        -44.8750   22.9740   19.6830 O.2   161  GLY161     -0.2714
     68  N        -44.8370   24.9940   18.7030 N.am  162  ASP162     -0.1957
     69  CA       -45.3860   24.5080   17.4430 C.3   162  ASP162      0.1840
     70  C        -44.2680   24.2070   16.4510 C.2   162  ASP162      0.2622
     71  O        -44.1450   24.8680   15.4190 O.2   162  ASP162     -0.2715
     72  CB       -46.3490   25.5390   16.8520 C.3   162  ASP162      0.1450
     73  CG       -47.2660   24.9500   15.7990 C.2   162  ASP162      0.3671
     74  OD1      -46.9290   23.8960   15.2180 O.co2 162  ASP162     -0.2456
     75  OD2      -48.3330   25.5490   15.5540 O.co2 162  ASP162     -0.2456
     76  N        -43.4540   23.2050   16.7670 N.am  163  ALA163     -0.1963
     77  CA       -42.3570   22.8110   15.8920 C.3   163  ALA163      0.1728
     78  C        -42.8740   22.1100   14.6390 C.2   163  ALA163      0.2616
     79  O        -42.1600   21.9980   13.6440 O.2   163  ALA163     -0.2715
     80  CB       -41.3790   21.9180   16.6370 C.3   163  ALA163      0.0334
     81  N        -44.1170   21.6430   14.6960 N.am  164  ASN164     -0.1958
     82  CA       -44.7310   20.9440   13.5710 C.3   164  ASN164      0.1819
     83  C        -44.9310   21.8540   12.3620 C.2   164  ASN164      0.2621
     84  O        -44.4240   21.5740   11.2770 O.2   164  ASN164     -0.2715
     85  CB       -46.0640   20.3210   13.9920 C.3   164  ASN164      0.1195
     86  CG       -46.6360   19.3990   12.9350 C.2   164  ASN164      0.2630
     87  OD1      -46.3280   18.2070   12.9020 O.2   164  ASN164     -0.2716
     88  ND2      -47.4770   19.9450   12.0630 N.am  164  ASN164     -0.0877
     89  N        -45.6710   22.9410   12.5550 N.am  165  ARG165     -0.1977
     90  CA       -45.8960   23.9140   11.4900 C.3   165  ARG165      0.1597
     91  C        -44.6040   24.6390   11.1270 C.2   165  ARG165      0.2287
     92  O        -44.4230   25.0700    9.9870 O.2   165  ARG165     -0.2864
     93  CB       -46.9770   24.9190   11.8910 C.3   165  ARG165      0.0334
     94  CG       -48.3790   24.3330   11.9370 C.3   165  ARG165      0.0492
     95  CD       -49.3420   25.2610   12.6550 C.3   165  ARG165      0.2205
     96  NE       -50.2800   25.9170   11.7520 N.pl3 165  ARG165     -0.0865
     97  CZ       -51.1440   26.8530   12.1320 C.cat 165  ARG165      0.5346
     98  NH1      -51.1820   27.2480   13.3970 N.pl3 165  ARG165      0.1354
     99  NH2      -51.9660   27.3970   11.2470 N.pl3 165  ARG165      0.1354
    100  N        -55.0010   30.5930   13.8320 N.3   219  ASP219     -0.1225
    101  CA       -54.9540   29.4680   14.7550 C.3   219  ASP219      0.1805
    102  C        -53.5560   29.3230   15.3500 C.2   219  ASP219      0.2598
    103  O        -52.8160   28.3930   15.0360 O.2   219  ASP219     -0.2718
    104  CB       -55.4030   28.1760   14.0680 C.3   219  ASP219      0.1424
    105  CG       -54.6050   27.8710   12.8170 C.2   219  ASP219      0.3668
    106  OD1      -53.9360   28.7900   12.2980 O.co2 219  ASP219     -0.2456
    107  OD2      -54.6470   26.7130   12.3530 O.co2 219  ASP219     -0.2456
    108  N        -53.1980   30.2800   16.1960 N.am  220  THR220     -0.1953
    109  CA       -51.9640   30.2280   16.9630 C.3   220  THR220      0.1897
    110  C        -52.3090   30.5830   18.3960 C.2   220  THR220      0.2313
    111  O        -53.3030   31.2680   18.6430 O.2   220  THR220     -0.2863
    112  CB       -50.9250   31.2420   16.4540 C.3   220  THR220      0.1794
    113  OG1      -51.4770   32.5630   16.5090 O.3   220  THR220     -0.2208
    114  CG2      -50.5140   30.9240   15.0250 C.3   220  THR220      0.0378
@<TRIPOS>BOND
     1    92    91    2
     2    91    90    1
     3    99    97    1
     4    84    83    2
     5    90    93    1
     6    90    89    1
     7    96    97    2
     8    96    95    1
     9    93    94    1
    10    94    95    1
    11    51    50    2
    12    88    86   am
    13    97    98    1
    14   106   105   ar
    15   107   105   ar
    16    83    89   am
    17    83    82    1
    18   105   104    1
    19    87    86    2
    20    86    85    1
    21    50    49    1
    22    82    85    1
    23    82    81    1
    24    79    78    2
    25    49    52    1
    26    49    48    1
    27   100   101    1
    28   104   101    1
    29    52    53    1
    30    78    81   am
    31    78    77    1
    32   101   102    1
    33    48    54    1
    34   114   112    1
    35   103   102    2
    36    74    73   ar
    37   102   108   am
    38    53    54    1
    39    71    70    2
    40    75    73   ar
    41    73    72    1
    42    77    80    1
    43    77    76    1
    44   108   109    1
    45    70    76   am
    46    70    69    1
    47   112   113    1
    48   112   109    1
    49    72    69    1
    50   109   110    1
    51    69    68    1
    52    43    42    2
    53   110   111    2
    54    62    61   ar
    55    42    41    1
    56    32    31    2
    57    68    66   am
    58    39    37    1
    59    61    63   ar
    60    61    60    1
    61    60    59    1
    62    41    40    1
    63    41    44    1
    64    36    37    2
    65    36    35    1
    66    31    40   am
    67    31    30    1
    68    67    66    2
    69    66    65    1
    70    37    38    1
    71    47    45    1
    72    30    33    1
    73    30    29    1
    74    13    12    1
    75    13    14    1
    76    44    45    1
    77    35    34    1
    78     7     5    1
    79    55    56    1
    80    12     9    1
    81    59    56    1
    82    65    64    1
    83     5     6    1
    84     5     2    1
    85    64    57   am
    86    33    34    1
    87    58    57    2
    88    57    56    1
    89    45    46    1
    90    15    14    1
    91    15    16    1
    92    17    18    1
    93    17    10   am
    94     8     9    1
    95     8     3   am
    96    18    19    1
    97     9    10    1
    98     2     3    1
    99     2     1    1
   100    28    26    1
   101    10    11    2
   102     3     4    2
   103    19    20    2
   104    26    25    1
   105    26    27    1
   106    25    22    1
   107    22    21    1
   108    22    23    1
   109    23    24    2
