@<TRIPOS>MOLECULE
tmp/3vvyC00.pdb
 191 184 0 0 0
SMALL
GASTEIGER

@<TRIPOS>ATOM
      1  N         18.0320  -25.4600   28.1020 N.3    58  LYS58      -0.1245
      2  CA        18.0970  -24.5280   29.1710 C.3    58  LYS58       0.1561
      3  C         19.5150  -24.4260   29.7270 C.2    58  LYS58       0.2260
      4  O         19.9660  -23.3760   30.0960 O.2    58  LYS58      -0.2867
      5  CB        17.1300  -24.9360   30.2550 C.3    58  LYS58       0.0271
      6  CG        16.8320  -23.8850   31.2200 C.3    58  LYS58       0.0035
      7  CD        15.5110  -23.1820   30.9470 C.3    58  LYS58       0.0206
      8  CE        15.1890  -22.3910   32.1560 C.3    58  LYS58       0.1093
      9  NZ        14.8890  -20.9560   31.9360 N.3    58  LYS58      -0.1314
     10  N         24.6330  -17.2660   29.4590 N.3    65  MET65      -0.1245
     11  CA        24.4010  -16.1160   30.2490 C.3    65  MET65       0.1570
     12  C         25.4210  -16.0370   31.3980 C.2    65  MET65       0.2261
     13  O         25.8790  -14.9690   31.6940 O.2    65  MET65      -0.2867
     14  CB        22.9190  -16.1580   30.7900 C.3    65  MET65       0.0387
     15  CG        21.9560  -15.9260   29.6150 C.3    65  MET65       0.0595
     16  SD        20.3430  -15.5290   30.3890 S.3    65  MET65      -0.1393
     17  CE        19.8440  -17.0840   30.9920 C.3    65  MET65       0.0692
     18  N         20.0250   -6.7760   35.4360 N.3    80  THR80      -0.1218
     19  CA        18.9470   -7.5360   34.7660 C.3    80  THR80       0.1862
     20  C         19.0080   -7.1590   33.2650 C.2    80  THR80       0.2287
     21  O         18.8550   -8.0680   32.4650 O.2    80  THR80      -0.2866
     22  CB        17.5820   -7.2050   35.3200 C.3    80  THR80       0.1770
     23  OG1       17.6360   -7.4770   36.7470 O.3    80  THR80      -0.2211
     24  CG2       16.5190   -8.2080   34.7520 C.3    80  THR80       0.0375
     25  N         21.8370   -9.1210   31.5710 N.3    83  ILE83      -0.1231
     26  CA        21.4030  -10.4870   31.4240 C.3    83  ILE83       0.1692
     27  C         20.4340  -10.6050   30.2530 C.2    83  ILE83       0.2592
     28  O         20.5170  -11.5330   29.4880 O.2    83  ILE83      -0.2718
     29  CB        20.7960  -11.0180   32.7410 C.3    83  ILE83       0.0266
     30  CG1       21.9570  -11.1110   33.7340 C.3    83  ILE83       0.0019
     31  CG2       20.4530  -12.4420   32.5160 C.3    83  ILE83       0.0020
     32  CD1       21.5960  -11.4340   35.1540 C.3    83  ILE83       0.0001
     33  N         19.5210   -9.6600   30.2220 N.am   84  TRP84      -0.1976
     34  CA        18.5990   -9.6820   29.0650 C.3    84  TRP84       0.1640
     35  C         19.3450   -9.5720   27.7460 C.2    84  TRP84       0.2290
     36  O         19.0290  -10.2880   26.8060 O.2    84  TRP84      -0.2864
     37  CB        17.6140   -8.5080   29.2310 C.3    84  TRP84       0.0576
     38  CG        16.7410   -8.1400   28.0160 C.ar   84  TRP84       0.0006
     39  CD1       17.0640   -7.2000   27.1100 C.ar   84  TRP84       0.0946
     40  CD2       15.4210   -8.6440   27.7040 C.ar   84  TRP84       0.0152
     41  NE1       16.0120   -7.0590   26.1450 N.ar   84  TRP84      -0.2442
     42  CE2       14.9870   -7.9010   26.5380 C.ar   84  TRP84       0.0810
     43  CE3       14.5430   -9.5870   28.2920 C.ar   84  TRP84       0.0012
     44  CZ2       13.6880   -8.0400   26.0050 C.ar   84  TRP84       0.0191
     45  CZ3       13.3090   -9.7520   27.7410 C.ar   84  TRP84       0.0001
     46  CH2       12.8940   -9.0210   26.5900 C.ar   84  TRP84       0.0015
     47  N         20.5720  -12.8940   26.9480 N.3    87  TYR87      -0.1241
     48  CA        19.5140  -13.8230   26.6170 C.3    87  TYR87       0.1605
     49  C         19.0510  -13.6230   25.1440 C.2    87  TYR87       0.2264
     50  O         18.8940  -14.5340   24.3740 O.2    87  TYR87      -0.2867
     51  CB        18.3380  -13.4920   27.5950 C.3    87  TYR87       0.0534
     52  CG        17.1910  -14.4270   27.5290 C.ar   87  TYR87      -0.0201
     53  CD1       17.0640  -15.4650   28.5180 C.ar   87  TYR87      -0.0009
     54  CD2       16.2480  -14.3320   26.5100 C.ar   87  TYR87      -0.0009
     55  CE1       16.0010  -16.3700   28.4570 C.ar   87  TYR87       0.0417
     56  CE2       15.1760  -15.2480   26.4320 C.ar   87  TYR87       0.0417
     57  CZ        15.1170  -16.2350   27.4070 C.ar   87  TYR87       0.1957
     58  OH        14.0720  -17.2070   27.3540 O.3    87  TYR87      -0.2866
     59  N         20.4580  -15.3000   38.6990 N.3   125  LEU125     -0.1245
     60  CA        19.2470  -14.8620   37.9950 C.3   125  LEU125      0.1561
     61  C         17.9970  -15.2200   38.8110 C.2   125  LEU125      0.2260
     62  O         17.0990  -14.4080   38.9090 O.2   125  LEU125     -0.2867
     63  CB        19.1500  -15.4700   36.5960 C.3   125  LEU125      0.0270
     64  CG        17.9590  -15.0110   35.7330 C.3   125  LEU125      0.0019
     65  CD1       17.7980  -13.4430   35.6460 C.3   125  LEU125      0.0001
     66  CD2       18.1090  -15.5700   34.2870 C.3   125  LEU125      0.0001
     67  N         17.6970  -12.6590   41.3740 N.3   128  LEU128     -0.1231
     68  CA        17.1980  -11.3750   40.8780 C.3   128  LEU128      0.1693
     69  C         15.6900  -11.5030   40.6140 C.2   128  LEU128      0.2592
     70  O         14.9670  -10.5250   40.8310 O.2   128  LEU128     -0.2718
     71  CB        17.9300  -10.8770   39.5750 C.3   128  LEU128      0.0284
     72  CG        19.3580  -10.3590   39.6940 C.3   128  LEU128      0.0019
     73  CD1       19.9900  -10.3760   38.2900 C.3   128  LEU128      0.0001
     74  CD2       19.2970   -8.9080   40.2920 C.3   128  LEU128      0.0001
     75  N         15.2300  -12.6050   40.0940 N.am  129  CYS129     -0.1970
     76  CA        13.7690  -12.8230   40.0090 C.3   129  CYS129      0.1712
     77  C         13.0460  -12.6970   41.3310 C.2   129  CYS129      0.2296
     78  O         12.0570  -11.9710   41.4800 O.2   129  CYS129     -0.2864
     79  CB        13.4410  -14.2100   39.4850 C.3   129  CYS129      0.0983
     80  SG        13.8980  -14.6000   37.7940 S.3   129  CYS129     -0.0798
     81  N         12.7780   -9.0960   42.3890 N.3   132  SER132     -0.1202
     82  CA        12.2490   -8.0480   41.4980 C.3   132  SER132      0.2020
     83  C         10.7970   -8.3190   40.9750 C.2   132  SER132      0.2618
     84  O         10.0810   -7.3920   40.7680 O.2   132  SER132     -0.2717
     85  CB        13.1300   -8.0100   40.2350 C.3   132  SER132      0.2103
     86  OG        14.4690   -7.5120   40.6770 O.3   132  SER132     -0.2182
     87  N         10.5170   -9.5680   40.7950 N.am  133  VAL133     -0.1979
     88  CA         9.2240   -9.9140   40.0790 C.3   133  VAL133      0.1595
     89  C          8.0440   -9.6660   40.9450 C.2   133  VAL133      0.2287
     90  O          8.0880   -9.9390   42.1840 O.2   133  VAL133     -0.2864
     91  CB         9.3140  -11.3130   39.5030 C.3   133  VAL133      0.0276
     92  CG1        7.9120  -11.8030   38.9000 C.3   133  VAL133      0.0022
     93  CG2       10.4580  -11.3480   38.3930 C.3   133  VAL133      0.0022
     94  N          3.3490  -12.9990   39.9150 N.3   137  PHE137     -0.1227
     95  CA         4.0990  -13.7620   38.8640 C.3   137  PHE137      0.1736
     96  C          5.1620  -14.6760   39.4870 C.2   137  PHE137      0.2595
     97  O          5.9000  -15.3500   38.7630 O.2   137  PHE137     -0.2718
     98  CB         4.6730  -12.8170   37.7860 C.3   137  PHE137      0.0547
     99  CG         3.6380  -12.1140   36.9890 C.ar  137  PHE137     -0.0202
    100  CD1        2.5840  -12.8440   36.4050 C.ar  137  PHE137     -0.0042
    101  CD2        3.7220  -10.7700   36.7470 C.ar  137  PHE137     -0.0042
    102  CE1        1.5950  -12.1840   35.5670 C.ar  137  PHE137     -0.0003
    103  CE2        2.7480  -10.1040   35.9510 C.ar  137  PHE137     -0.0003
    104  CZ         1.6470  -10.8210   35.4020 C.ar  137  PHE137     -0.0000
    105  N          5.2890  -14.7300   40.8090 N.am  138  MET138     -0.1979
    106  CA         6.0440  -15.8580   41.3820 C.3   138  MET138      0.1605
    107  C          5.1080  -16.8750   42.0200 C.2   138  MET138      0.2287
    108  O          5.5780  -17.9480   42.5090 O.2   138  MET138     -0.2864
    109  CB         7.1090  -15.3770   42.3950 C.3   138  MET138      0.0413
    110  CG         8.0780  -14.3930   41.8110 C.3   138  MET138      0.0598
    111  SD         9.1660  -15.1220   40.6160 S.3   138  MET138     -0.1393
    112  CE         9.9420  -16.4730   41.4840 C.3   138  MET138      0.0692
    113  N          2.7380  -18.0450   38.2620 N.3   143  ARG143     -0.1245
    114  CA         4.1660  -17.9560   37.7580 C.3   143  ARG143      0.1563
    115  C          4.3070  -18.4920   36.3350 C.2   143  ARG143      0.2260
    116  O          5.0490  -17.8960   35.6000 O.2   143  ARG143     -0.2867
    117  CB         5.0590  -18.7170   38.7180 C.3   143  ARG143      0.0307
    118  CG         6.5170  -18.8750   38.2330 C.3   143  ARG143      0.0489
    119  CD         7.4850  -19.3160   39.3740 C.3   143  ARG143      0.2205
    120  NE         8.8110  -19.4670   38.7760 N.pl3 143  ARG143     -0.0865
    121  CZ         9.8490  -20.0970   39.3260 C.cat 143  ARG143      0.5346
    122  NH1       10.9790  -20.2060   38.6270 N.pl3 143  ARG143      0.1354
    123  NH2        9.7750  -20.6130   40.5620 N.pl3 143  ARG143      0.1354
    124  N          3.3880  -15.6100   34.0780 N.3   146  GLY146     -0.1210
    125  CA         4.4930  -14.6170   34.0830 C.3   146  GLY146      0.1956
    126  C          5.6120  -15.0910   33.1540 C.2   146  GLY146      0.2611
    127  O          6.1340  -14.2850   32.4280 O.2   146  GLY146     -0.2717
    128  N          5.9220  -16.3740   33.2090 N.am  147  ASP147     -0.1973
    129  CA         7.0520  -16.9330   32.3800 C.3   147  ASP147      0.1709
    130  C          6.5810  -16.8250   30.9220 C.2   147  ASP147      0.2293
    131  O          7.4090  -16.4810   30.0500 O.2   147  ASP147     -0.2864
    132  CB         7.2660  -18.3980   32.7090 C.3   147  ASP147      0.1436
    133  CG         7.9880  -18.6130   34.0640 C.2   147  ASP147      0.3671
    134  OD1        8.5270  -17.6530   34.6020 O.co2 147  ASP147     -0.2456
    135  OD2        8.0260  -19.7710   34.5470 O.co2 147  ASP147     -0.2456
    136  N          6.9410  -13.2120   29.7630 N.3   150  PHE150     -0.1227
    137  CA         8.3370  -12.8660   29.5460 C.3   150  PHE150      0.1736
    138  C          8.7730  -13.4870   28.1960 C.2   150  PHE150      0.2595
    139  O          9.4460  -12.8290   27.4480 O.2   150  PHE150     -0.2718
    140  CB         9.1530  -13.5310   30.6660 C.3   150  PHE150      0.0547
    141  CG        10.6680  -13.3540   30.4340 C.ar  150  PHE150     -0.0202
    142  CD1       11.2640  -12.1710   30.8360 C.ar  150  PHE150     -0.0042
    143  CD2       11.4030  -14.3520   29.7680 C.ar  150  PHE150     -0.0042
    144  CE1       12.5880  -11.9390   30.4900 C.ar  150  PHE150     -0.0003
    145  CE2       12.8110  -14.0720   29.4150 C.ar  150  PHE150     -0.0003
    146  CZ        13.3410  -12.9020   29.8070 C.ar  150  PHE150     -0.0000
    147  N          8.5180  -14.7980   27.9980 N.am  151  LEU151     -0.1980
    148  CA         9.0800  -15.5040   26.7810 C.3   151  LEU151      0.1596
    149  C          8.4510  -14.8290   25.5440 C.2   151  LEU151      0.2287
    150  O          9.1480  -14.7000   24.5060 O.2   151  LEU151     -0.2864
    151  CB         8.7310  -17.0100   26.7820 C.3   151  LEU151      0.0297
    152  CG         9.4870  -17.6980   27.8950 C.3   151  LEU151      0.0022
    153  CD1        8.8750  -19.1080   28.0860 C.3   151  LEU151      0.0001
    154  CD2       10.9580  -17.7770   27.4850 C.3   151  LEU151      0.0001
    155  N          9.3660   -5.1930   29.2840 N.3   179  MET179     -0.1230
    156  CA         9.2680   -6.3840   30.0760 C.3   179  MET179      0.1702
    157  C          9.4420   -5.9820   31.5800 C.2   179  MET179      0.2592
    158  O          8.7120   -6.4940   32.3990 O.2   179  MET179     -0.2718
    159  CB        10.4060   -7.2870   29.6410 C.3   179  MET179      0.0401
    160  CG        10.4460   -8.5940   30.3490 C.3   179  MET179      0.0596
    161  SD        11.3300   -8.4790   32.0010 S.3   179  MET179     -0.1393
    162  CE        12.9860   -7.9730   31.5360 C.3   179  MET179      0.0692
    163  N         10.4000   -5.0880   31.8660 N.am  180  TRP180     -0.1976
    164  CA        10.6270   -4.7110   33.2640 C.3   180  TRP180      0.1640
    165  C          9.3480   -4.0700   33.8440 C.2   180  TRP180      0.2290
    166  O          8.9330   -4.4190   34.9380 O.2   180  TRP180     -0.2864
    167  CB        11.7850   -3.7300   33.2420 C.3   180  TRP180      0.0576
    168  CG        12.1100   -3.2540   34.6820 C.ar  180  TRP180      0.0006
    169  CD1       11.6870   -2.0800   35.2760 C.ar  180  TRP180      0.0946
    170  CD2       13.0300   -3.8970   35.6000 C.ar  180  TRP180      0.0152
    171  NE1       12.2820   -1.9920   36.5650 N.ar  180  TRP180     -0.2442
    172  CE2       13.0780   -3.0980   36.7560 C.ar  180  TRP180      0.0810
    173  CE3       13.7570   -5.1270   35.5550 C.ar  180  TRP180      0.0012
    174  CZ2       13.8800   -3.4680   37.8900 C.ar  180  TRP180      0.0191
    175  CZ3       14.5640   -5.5030   36.6750 C.ar  180  TRP180      0.0001
    176  CH2       14.5480   -4.6770   37.8320 C.ar  180  TRP180      0.0015
    177  N          6.5570   -6.8130   34.4120 N.3   183  LEU183     -0.1231
    178  CA         6.7540   -7.9580   35.3080 C.3   183  LEU183      0.1693
    179  C          7.2620   -7.6270   36.7160 C.2   183  LEU183      0.2592
    180  O          7.2140   -8.5110   37.5450 O.2   183  LEU183     -0.2718
    181  CB         7.7100   -8.9960   34.6820 C.3   183  LEU183      0.0284
    182  CG         7.1270   -9.4560   33.3170 C.3   183  LEU183      0.0019
    183  CD1        8.0420  -10.5550   32.8560 C.3   183  LEU183      0.0001
    184  CD2        5.6480  -10.0140   33.3730 C.3   183  LEU183      0.0001
    185  N          7.7020   -6.4060   36.9440 N.am  184  THR184     -0.1953
    186  CA         8.4150   -6.1640   38.2090 C.3   184  THR184      0.1897
    187  C          7.6290   -5.2790   39.1380 C.2   184  THR184      0.2313
    188  O          6.6310   -4.5890   38.7800 O.2   184  THR184     -0.2863
    189  CB         9.8350   -5.5800   38.0100 C.3   184  THR184      0.1794
    190  OG1        9.7560   -4.2140   37.5020 O.3   184  THR184     -0.2208
    191  CG2       10.7300   -6.4320   37.1270 C.3   184  THR184      0.0378
@<TRIPOS>BOND
     1    50    49    2
     2   150   149    2
     3    49    48    1
     4   149   148    1
     5    44    42   ar
     6    44    46   ar
     7    41    42   ar
     8    41    39   ar
     9    56    54   ar
    10    56    57   ar
    11    54    52   ar
    12    42    40   ar
    13    46    45   ar
    14    48    47    1
    15    48    51    1
    16   148   151    1
    17   148   147    1
    18   151   152    1
    19    36    35    2
    20    39    38   ar
    21    58    57    1
    22    57    55   ar
    23   139   138    2
    24   154   152    1
    25    52    51    1
    26    52    53   ar
    27    40    38   ar
    28    40    43   ar
    29    45    43   ar
    30    35    34    1
    31   152   153    1
    32   147   138   am
    33    38    37    1
    34     1     2    1
    35   138   137    1
    36    55    53   ar
    37    34    37    1
    38    34    33    1
    39     2     3    1
    40     2     5    1
    41   155   156    1
    42   145   143   ar
    43   145   146   ar
    44    10    11    1
    45    28    27    2
    46   137   136    1
    47   137   140    1
    48    15    16    1
    49    15    14    1
    50   159   156    1
    51   159   160    1
    52     3     4    2
    53   143   141   ar
    54   146   144   ar
    55   131   130    2
    56   156   157    1
    57    33    27   am
    58    11    14    1
    59    11    12    1
    60    27    26    1
    61     5     6    1
    62   160   161    1
    63    16    17    1
    64   141   140    1
    65   141   142   ar
    66   144   142   ar
    67   130   129    1
    68     7     6    1
    69     7     8    1
    70    12    13    2
    71    26    25    1
    72    26    29    1
    73   162   161    1
    74   157   163   am
    75   157   158    2
    76   163   164    1
    77     9     8    1
    78   129   132    1
    79   129   128    1
    80   127   126    2
    81    21    20    2
    82    31    29    1
    83   132   133    1
    84    29    30    1
    85   183   182    1
    86   126   128   am
    87   126   125    1
    88   167   164    1
    89   167   168    1
    90   164   165    1
    91    20    19    1
    92   182   184    1
    93   182   181    1
    94    30    32    1
    95   165   166    2
    96   133   135   ar
    97   133   134   ar
    98   124   125    1
    99    66    64    1
   100   177   178    1
   101   181   178    1
   102   168   169   ar
   103   168   170   ar
   104    24    22    1
   105    19    22    1
   106    19    18    1
   107   169   171   ar
   108   178   179    1
   109    22    23    1
   110   104   102   ar
   111   104   103   ar
   112   173   170   ar
   113   173   175   ar
   114   102   100   ar
   115   170   172   ar
   116   116   115    2
   117    65    64    1
   118    64    63    1
   119   103   101   ar
   120   115   114    1
   121   100    99   ar
   122   171   172   ar
   123    63    60    1
   124   175   176   ar
   125   179   185   am
   126   179   180    2
   127   101    99   ar
   128   172   174   ar
   129   185   186    1
   130    99    98    1
   131   191   189    1
   132   190   189    1
   133   114   113    1
   134   114   117    1
   135    98    95    1
   136    80    79    1
   137   176   174   ar
   138    60    59    1
   139    60    61    1
   140   189   186    1
   141   186   187    1
   142   118   117    1
   143   118   119    1
   144    73    72    1
   145    93    91    1
   146   122   121    1
   147    97    96    2
   148   120   121    2
   149   120   119    1
   150   188   187    2
   151    61    62    2
   152    95    96    1
   153    95    94    1
   154    92    91    1
   155   121   123    1
   156    79    76    1
   157    96   105   am
   158    91    88    1
   159    71    72    1
   160    71    68    1
   161    72    74    1
   162    76    75    1
   163    76    77    1
   164    88    87    1
   165    88    89    1
   166    75    69   am
   167    85    86    1
   168    85    82    1
   169    69    70    2
   170    69    68    1
   171   111   112    1
   172   111   110    1
   173    84    83    2
   174    87    83   am
   175   105   106    1
   176    68    67    1
   177    89    90    2
   178    83    82    1
   179    77    78    2
   180   106   107    1
   181   106   109    1
   182    82    81    1
   183   110   109    1
   184   107   108    2
