@<TRIPOS>MOLECULE
tmp/3vvzC00.pdb
 253 243 0 0 0
SMALL
GASTEIGER

@<TRIPOS>ATOM
      1  N         15.3900  -30.0020   25.5240 N.3    52  TYR52      -0.1241
      2  CA        15.2580  -28.7110   26.1610 C.3    52  TYR52       0.1605
      3  C         16.4940  -28.4360   26.9650 C.2    52  TYR52       0.2264
      4  O         17.0950  -27.3670   26.8300 O.2    52  TYR52      -0.2867
      5  CB        14.0320  -28.6600   27.0700 C.3    52  TYR52       0.0534
      6  CG        13.8150  -27.3130   27.7150 C.ar   52  TYR52      -0.0201
      7  CD1       13.4080  -26.2180   26.9780 C.ar   52  TYR52      -0.0009
      8  CD2       14.0040  -27.1500   29.0730 C.ar   52  TYR52      -0.0009
      9  CE1       13.1880  -24.9950   27.5890 C.ar   52  TYR52       0.0417
     10  CE2       13.8090  -25.9400   29.6880 C.ar   52  TYR52       0.0417
     11  CZ        13.3900  -24.8580   28.9540 C.ar   52  TYR52       0.1957
     12  OH        13.1880  -23.6460   29.6020 O.3    52  TYR52      -0.2866
     13  N         19.1350  -25.5200   26.6790 N.3    56  LYS56      -0.1245
     14  CA        19.0950  -24.5440   27.8080 C.3    56  LYS56       0.1561
     15  C         20.4880  -24.3620   28.3630 C.2    56  LYS56       0.2260
     16  O         20.8950  -23.2740   28.6940 O.2    56  LYS56      -0.2867
     17  CB        18.1180  -24.9890   28.9190 C.3    56  LYS56       0.0271
     18  CG        18.0630  -24.1270   30.1890 C.3    56  LYS56       0.0035
     19  CD        17.5300  -22.6920   29.8750 C.3    56  LYS56       0.0206
     20  CE        17.3580  -21.8280   31.1200 C.3    56  LYS56       0.1093
     21  NZ        16.0580  -22.2100   31.7810 N.3    56  LYS56      -0.1314
     22  N         22.5860  -22.3850   25.8270 N.3    59  LEU59      -0.1245
     23  CA        22.2960  -20.9540   25.9440 C.3    59  LEU59       0.1561
     24  C         22.9750  -20.4150   27.2420 C.2    59  LEU59       0.2260
     25  O         23.5970  -19.3250   27.2610 O.2    59  LEU59      -0.2867
     26  CB        20.7850  -20.7020   25.9100 C.3    59  LEU59       0.0270
     27  CG        20.3250  -19.4190   26.5590 C.3    59  LEU59       0.0019
     28  CD1       20.9470  -18.2050   25.8310 C.3    59  LEU59       0.0001
     29  CD2       18.7560  -19.4010   26.5520 C.3    59  LEU59       0.0001
     30  N         25.8210  -17.4710   28.1880 N.3    63  MET63      -0.1245
     31  CA        25.5800  -16.2240   28.9260 C.3    63  MET63       0.1570
     32  C         26.6170  -16.0670   30.0340 C.2    63  MET63       0.2261
     33  O         27.0110  -14.9390   30.3960 O.2    63  MET63      -0.2867
     34  CB        24.1560  -16.1320   29.4970 C.3    63  MET63       0.0387
     35  CG        23.0560  -16.1170   28.4640 C.3    63  MET63       0.0595
     36  SD        21.4180  -16.1820   29.2280 S.3    63  MET63      -0.1393
     37  CE        20.6920  -14.7130   28.4940 C.3    63  MET63       0.0692
     38  N         21.0620   -7.0680   33.8750 N.3    78  THR78      -0.1218
     39  CA        20.0680   -7.6580   32.9800 C.3    78  THR78       0.1862
     40  C         20.3350   -7.1780   31.5150 C.2    78  THR78       0.2287
     41  O         20.3150   -7.9970   30.6060 O.2    78  THR78      -0.2866
     42  CB        18.6140   -7.2420   33.4390 C.3    78  THR78       0.1770
     43  OG1       18.4950   -7.3130   34.8730 O.3    78  THR78      -0.2211
     44  CG2       17.5210   -8.0920   32.7770 C.3    78  THR78       0.0375
     45  N         23.0780   -9.3060   30.0410 N.3    81  ILE81      -0.1231
     46  CA        22.4790  -10.6260   29.8230 C.3    81  ILE81       0.1692
     47  C         21.4480  -10.7710   28.6780 C.2    81  ILE81       0.2592
     48  O         21.5710  -11.7090   27.8950 O.2    81  ILE81      -0.2718
     49  CB        21.8620  -11.1590   31.1090 C.3    81  ILE81       0.0266
     50  CG1       22.9630  -11.3430   32.1650 C.3    81  ILE81       0.0019
     51  CG2       21.2270  -12.5350   30.8570 C.3    81  ILE81       0.0020
     52  CD1       22.3800  -11.6370   33.5030 C.3    81  ILE81       0.0001
     53  N         20.4730   -9.8620   28.5640 N.am   82  TRP82      -0.1976
     54  CA        19.6170   -9.7730   27.3670 C.3    82  TRP82       0.1640
     55  C         20.4200   -9.7000   26.0450 C.2    82  TRP82       0.2290
     56  O         20.0210  -10.3130   25.0440 O.2    82  TRP82      -0.2864
     57  CB        18.6870   -8.5490   27.4810 C.3    82  TRP82       0.0576
     58  CG        17.9210   -8.2080   26.2580 C.ar   82  TRP82       0.0006
     59  CD1       18.3030   -7.4200   25.2370 C.ar   82  TRP82       0.0946
     60  CD2       16.6010   -8.6650   25.9620 C.ar   82  TRP82       0.0152
     61  NE1       17.2700   -7.3250   24.2970 N.ar   82  TRP82      -0.2442
     62  CE2       16.2260   -8.1060   24.7180 C.ar   82  TRP82       0.0810
     63  CE3       15.6970   -9.4850   26.6420 C.ar   82  TRP82       0.0012
     64  CZ2       14.9870   -8.3300   24.1430 C.ar   82  TRP82       0.0191
     65  CZ3       14.4600   -9.7100   26.0670 C.ar   82  TRP82       0.0001
     66  CH2       14.1230   -9.1410   24.8240 C.ar   82  TRP82       0.0015
     67  N         21.8070  -13.1370   25.3110 N.3    85  TYR85      -0.1241
     68  CA        20.6520  -13.9490   24.9340 C.3    85  TYR85       0.1605
     69  C         20.2490  -13.7650   23.4830 C.2    85  TYR85       0.2264
     70  O         20.0700  -14.7570   22.7710 O.2    85  TYR85      -0.2867
     71  CB        19.4540  -13.6380   25.8300 C.3    85  TYR85       0.0534
     72  CG        18.2470  -14.4770   25.5000 C.ar   85  TYR85      -0.0201
     73  CD1       18.2340  -15.8280   25.7470 C.ar   85  TYR85      -0.0009
     74  CD2       17.1300  -13.9190   24.9290 C.ar   85  TYR85      -0.0009
     75  CE1       17.1190  -16.5990   25.4290 C.ar   85  TYR85       0.0417
     76  CE2       16.0290  -14.6880   24.6160 C.ar   85  TYR85       0.0417
     77  CZ        16.0320  -16.0080   24.8680 C.ar   85  TYR85       0.1957
     78  OH        14.9310  -16.7460   24.5490 O.3    85  TYR85      -0.2866
     79  N         13.8820  -24.0620   21.1910 N.3    99  ILE99      -0.1245
     80  CA        13.8180  -23.8520   22.6520 C.3    99  ILE99       0.1561
     81  C         12.6040  -23.0730   23.0880 C.2    99  ILE99       0.2260
     82  O         12.1870  -23.2410   24.2180 O.2    99  ILE99      -0.2867
     83  CB        15.1770  -23.2360   23.2370 C.3    99  ILE99       0.0252
     84  CG1       15.3620  -23.6580   24.6820 C.3    99  ILE99       0.0019
     85  CG2       15.2020  -21.7210   23.1670 C.3    99  ILE99       0.0019
     86  CD1       16.8130  -23.5000   25.2090 C.3    99  ILE99       0.0001
     87  N          9.7430  -24.7410   25.6420 N.3   103  ALA103     -0.1245
     88  CA         9.5320  -24.1010   26.9460 C.3   103  ALA103      0.1562
     89  C          8.0600  -23.8420   27.2520 C.2   103  ALA103      0.2260
     90  O          7.7060  -23.8120   28.4270 O.2   103  ALA103     -0.2867
     91  CB        10.3430  -22.8210   27.0590 C.3   103  ALA103      0.0290
     92  N         16.2420  -24.0560   35.9440 N.3   117  ASP117     -0.1239
     93  CA        16.3090  -22.8940   36.8110 C.3   117  ASP117      0.1674
     94  C         17.6010  -22.8550   37.6250 C.2   117  ASP117      0.2266
     95  O         18.0060  -21.7950   38.1110 O.2   117  ASP117     -0.2867
     96  CB        15.0450  -22.8050   37.6860 C.3   117  ASP117      0.1410
     97  CG        13.9210  -21.9970   36.9960 C.2   117  ASP117      0.3668
     98  OD1       12.8280  -21.8380   37.5970 O.co2 117  ASP117     -0.2456
     99  OD2       14.1360  -21.4990   35.8530 O.co2 117  ASP117     -0.2456
    100  N         21.6100  -15.4850   37.7120 N.3   123  LEU123     -0.1231
    101  CA        20.4690  -15.0700   36.8760 C.3   123  LEU123      0.1693
    102  C         19.2010  -15.3580   37.6180 C.2   123  LEU123      0.2591
    103  O         18.3040  -14.4950   37.7120 O.2   123  LEU123     -0.2718
    104  CB        20.4280  -15.7690   35.4970 C.3   123  LEU123      0.0284
    105  CG        19.2820  -15.3940   34.5090 C.3   123  LEU123      0.0019
    106  CD1       18.9320  -13.8830   34.4430 C.3   123  LEU123      0.0001
    107  CD2       19.5010  -15.9940   33.0950 C.3   123  LEU123      0.0001
    108  N         19.1350  -16.5690   38.1500 N.am  124  ARG124     -0.1980
    109  CA        17.9620  -17.0260   38.8650 C.3   124  ARG124      0.1597
    110  C         17.6280  -16.1590   40.0640 C.2   124  ARG124      0.2287
    111  O         16.5130  -15.6190   40.1680 O.2   124  ARG124     -0.2864
    112  CB        18.1330  -18.4670   39.3140 C.3   124  ARG124      0.0334
    113  CG        17.1830  -18.7870   40.4630 C.3   124  ARG124      0.0492
    114  CD        16.9650  -20.2640   40.6710 C.3   124  ARG124      0.2205
    115  NE        18.1970  -21.0170   40.8870 N.pl3 124  ARG124     -0.0865
    116  CZ        18.9370  -20.9720   42.0000 C.cat 124  ARG124      0.5346
    117  NH1       18.6060  -20.1650   42.9860 N.pl3 124  ARG124      0.1354
    118  NH2       20.0380  -21.7160   42.1220 N.pl3 124  ARG124      0.1354
    119  N         18.7100  -13.1860   40.4460 N.3   126  LEU126     -0.1231
    120  CA        18.3960  -11.8860   39.8440 C.3   126  LEU126      0.1693
    121  C         16.9080  -11.7130   39.4500 C.2   126  LEU126      0.2592
    122  O         16.3360  -10.6120   39.5860 O.2   126  LEU126     -0.2718
    123  CB        19.3320  -11.6400   38.6320 C.3   126  LEU126      0.0284
    124  CG        19.3440  -10.2120   38.0900 C.3   126  LEU126      0.0019
    125  CD1       19.9280   -9.2740   39.1920 C.3   126  LEU126      0.0001
    126  CD2       20.1340  -10.1370   36.7520 C.3   126  LEU126      0.0001
    127  N         16.3020  -12.8050   38.9590 N.am  127  CYS127     -0.1956
    128  CA        14.9130  -12.8000   38.5380 C.3   127  CYS127      0.1843
    129  C         14.0180  -12.6390   39.7550 C.2   127  CYS127      0.2625
    130  O         13.2420  -11.6560   39.8540 O.2   127  CYS127     -0.2714
    131  CB        14.5830  -14.0740   37.7530 C.3   127  CYS127      0.0997
    132  SG        15.3290  -14.1510   36.0820 S.3   127  CYS127     -0.0797
    133  N         14.1430  -13.5800   40.6930 N.am  128  HIS128     -0.1973
    134  CA        13.4170  -13.4800   41.9930 C.3   128  HIS128      0.1656
    135  C         13.3840  -12.0730   42.5670 C.2   128  HIS128      0.2291
    136  O         12.3500  -11.6280   43.0880 O.2   128  HIS128     -0.2864
    137  CB        14.0540  -14.4010   43.0640 C.3   128  HIS128      0.0771
    138  CG        13.9010  -15.8660   42.7540 C.ar  128  HIS128      0.0820
    139  ND1       14.8140  -16.5680   41.9810 N.ar  128  HIS128     -0.2267
    140  CD2       12.9370  -16.7580   43.1060 C.ar  128  HIS128      0.1154
    141  CE1       14.4240  -17.8340   41.8780 C.ar  128  HIS128      0.1986
    142  NE2       13.2890  -17.9760   42.5510 N.ar  128  HIS128     -0.2212
    143  N         13.9100   -9.0890   40.9730 N.3   130  SER130     -0.1202
    144  CA        13.4350   -8.0120   40.0980 C.3   130  SER130      0.2020
    145  C         12.0320   -8.1870   39.5570 C.2   130  SER130      0.2618
    146  O         11.3210   -7.2090   39.3320 O.2   130  SER130     -0.2717
    147  CB        14.4430   -7.8630   38.9580 C.3   130  SER130      0.2103
    148  OG        15.7800   -7.9770   39.4860 O.3   130  SER130     -0.2182
    149  N         11.6410   -9.4390   39.3590 N.am  131  VAL131     -0.1979
    150  CA        10.3990   -9.7850   38.6550 C.3   131  VAL131      0.1595
    151  C          9.1010   -9.6520   39.4340 C.2   131  VAL131      0.2287
    152  O          9.0230  -10.1230   40.5540 O.2   131  VAL131     -0.2864
    153  CB        10.5260  -11.2050   38.0240 C.3   131  VAL131      0.0276
    154  CG1        9.1280  -11.8050   37.7010 C.3   131  VAL131      0.0022
    155  CG2       11.3390  -11.0750   36.7570 C.3   131  VAL131      0.0022
    156  N          4.4810  -12.7810   38.4620 N.3   135  PHE135     -0.1227
    157  CA         5.1520  -13.5490   37.3600 C.3   135  PHE135      0.1736
    158  C          6.1130  -14.6330   37.8530 C.2   135  PHE135      0.2595
    159  O          6.7910  -15.2700   37.0860 O.2   135  PHE135     -0.2718
    160  CB         5.7910  -12.6560   36.2350 C.3   135  PHE135      0.0547
    161  CG         4.7580  -11.9150   35.3740 C.ar  135  PHE135     -0.0202
    162  CD1        3.7450  -12.6110   34.7170 C.ar  135  PHE135     -0.0042
    163  CD2        4.8080  -10.5270   35.2510 C.ar  135  PHE135     -0.0042
    164  CE1        2.7710  -11.9170   33.9600 C.ar  135  PHE135     -0.0003
    165  CE2        3.8630   -9.8320   34.4770 C.ar  135  PHE135     -0.0003
    166  CZ         2.8590  -10.5310   33.8170 C.ar  135  PHE135     -0.0000
    167  N          6.1440  -14.8600   39.1440 N.am  136  MET136     -0.1979
    168  CA         6.9520  -15.9200   39.7000 C.3   136  MET136      0.1605
    169  C          6.0330  -16.9300   40.3980 C.2   136  MET136      0.2287
    170  O          6.4710  -18.0100   40.7970 O.2   136  MET136     -0.2864
    171  CB         7.9450  -15.3420   40.6980 C.3   136  MET136      0.0413
    172  CG         8.9470  -14.3820   40.1030 C.3   136  MET136      0.0598
    173  SD        10.5030  -15.1540   39.5200 S.3   136  MET136     -0.1393
    174  CE         9.9170  -16.4530   38.4510 C.3   136  MET136      0.0692
    175  N          3.7300  -18.2080   36.3640 N.3   141  ARG141     -0.1245
    176  CA         5.1430  -18.2040   36.0720 C.3   141  ARG141      0.1563
    177  C          5.3930  -18.5670   34.5950 C.2   141  ARG141      0.2260
    178  O          6.2050  -17.9270   33.8710 O.2   141  ARG141     -0.2867
    179  CB         5.8070  -19.2480   36.9920 C.3   141  ARG141      0.0307
    180  CG         7.2440  -19.7710   36.5620 C.3   141  ARG141      0.0489
    181  CD         8.2700  -18.6100   36.4000 C.3   141  ARG141      0.2205
    182  NE         9.3910  -18.9940   35.5230 N.pl3 141  ARG141     -0.0865
    183  CZ        10.4820  -19.6530   35.9470 C.cat 141  ARG141      0.5346
    184  NH1       11.4570  -19.9930   35.0940 N.pl3 141  ARG141      0.1354
    185  NH2       10.5930  -19.9760   37.2360 N.pl3 141  ARG141      0.1354
    186  N          4.5310  -15.8830   32.3040 N.3   144  GLY144     -0.1210
    187  CA         5.5540  -14.8110   32.4250 C.3   144  GLY144      0.1956
    188  C          6.7490  -15.0880   31.5260 C.2   144  GLY144      0.2611
    189  O          7.2790  -14.1690   30.8090 O.2   144  GLY144     -0.2717
    190  N          7.1510  -16.3610   31.5580 N.am  145  ASP145     -0.1973
    191  CA         8.1530  -16.9370   30.6410 C.3   145  ASP145      0.1709
    192  C          7.7560  -16.7980   29.2010 C.2   145  ASP145      0.2293
    193  O          8.5760  -16.4120   28.3830 O.2   145  ASP145     -0.2864
    194  CB         8.2900  -18.4460   30.8460 C.3   145  ASP145      0.1436
    195  CG         8.8170  -18.7940   32.2020 C.2   145  ASP145      0.3671
    196  OD1        9.5530  -17.9610   32.7740 O.co2 145  ASP145     -0.2456
    197  OD2        8.5000  -19.8980   32.7190 O.co2 145  ASP145     -0.2456
    198  N          7.9990  -13.0710   28.0780 N.3   148  PHE148     -0.1227
    199  CA         9.4360  -12.8640   27.9220 C.3   148  PHE148      0.1736
    200  C          9.9700  -13.3410   26.6160 C.2   148  PHE148      0.2595
    201  O         10.7290  -12.6110   25.8930 O.2   148  PHE148     -0.2718
    202  CB        10.2130  -13.5630   29.0290 C.3   148  PHE148      0.0547
    203  CG        11.7210  -13.3470   28.9180 C.ar  148  PHE148     -0.0202
    204  CD1       12.3050  -12.1050   29.1540 C.ar  148  PHE148     -0.0042
    205  CD2       12.5410  -14.3730   28.5390 C.ar  148  PHE148     -0.0042
    206  CE1       13.6830  -11.9150   28.9950 C.ar  148  PHE148     -0.0003
    207  CE2       13.9140  -14.2030   28.4000 C.ar  148  PHE148     -0.0003
    208  CZ        14.4920  -12.9800   28.6170 C.ar  148  PHE148     -0.0000
    209  N          9.5820  -14.5720   26.3060 N.am  149  LEU149     -0.1980
    210  CA        10.0460  -15.2450   25.0750 C.3   149  LEU149      0.1596
    211  C          9.4860  -14.6400   23.8160 C.2   149  LEU149      0.2287
    212  O         10.1960  -14.4930   22.8620 O.2   149  LEU149     -0.2864
    213  CB         9.7000  -16.7260   25.1140 C.3   149  LEU149      0.0297
    214  CG        10.3920  -17.6430   26.1260 C.3   149  LEU149      0.0022
    215  CD1        9.7820  -19.0330   26.0390 C.3   149  LEU149      0.0001
    216  CD2       11.9010  -17.7200   25.9620 C.3   149  LEU149      0.0001
    217  N         10.6900   -5.0230   27.7660 N.3   177  MET177     -0.1230
    218  CA        10.5570   -6.2160   28.5370 C.3   177  MET177      0.1702
    219  C         10.7270   -5.8980   30.0060 C.2   177  MET177      0.2592
    220  O         10.0920   -6.5080   30.8870 O.2   177  MET177     -0.2718
    221  CB        11.5360   -7.2810   28.0810 C.3   177  MET177      0.0401
    222  CG        12.8480   -7.3170   28.8540 C.3   177  MET177      0.0596
    223  SD        12.7150   -8.1900   30.4540 S.3   177  MET177     -0.1393
    224  CE        14.5260   -8.5590   30.7170 C.3   177  MET177      0.0692
    225  N         11.5830   -4.9220   30.2730 N.am  178  TRP178     -0.1976
    226  CA        11.8610   -4.5000   31.6300 C.3   178  TRP178      0.1640
    227  C         10.6250   -3.8710   32.2710 C.2   178  TRP178      0.2290
    228  O         10.2690   -4.2890   33.3640 O.2   178  TRP178     -0.2864
    229  CB        13.0530   -3.5520   31.6100 C.3   178  TRP178      0.0576
    230  CG        13.5150   -3.0820   32.9590 C.ar  178  TRP178      0.0006
    231  CD1       13.2360   -1.8890   33.5560 C.ar  178  TRP178      0.0946
    232  CD2       14.3630   -3.7860   33.8650 C.ar  178  TRP178      0.0152
    233  NE1       13.8660   -1.7990   34.7520 N.ar  178  TRP178     -0.2442
    234  CE2       14.5710   -2.9520   34.9680 C.ar  178  TRP178      0.0810
    235  CE3       14.9780   -5.0510   33.8400 C.ar  178  TRP178      0.0012
    236  CZ2       15.3540   -3.3430   36.0620 C.ar  178  TRP178      0.0191
    237  CZ3       15.7540   -5.4360   34.9130 C.ar  178  TRP178      0.0001
    238  CH2       15.9430   -4.5870   36.0070 C.ar  178  TRP178      0.0015
    239  N          7.7440   -6.8420   32.8470 N.3   181  LEU181     -0.1231
    240  CA         7.6600   -7.7840   33.9410 C.3   181  LEU181      0.1693
    241  C          8.5870   -7.6130   35.1790 C.2   181  LEU181      0.2592
    242  O          8.7020   -8.5370   35.9850 O.2   181  LEU181     -0.2718
    243  CB         7.6910   -9.2250   33.4130 C.3   181  LEU181      0.0284
    244  CG         8.8620   -9.7250   32.5560 C.3   181  LEU181      0.0019
    245  CD1        8.5070   -9.5690   31.0500 C.3   181  LEU181      0.0001
    246  CD2       10.1650   -9.0160   32.9690 C.3   181  LEU181      0.0001
    247  N          9.2000   -6.4400   35.3520 N.am  182  THR182     -0.1953
    248  CA         9.8770   -6.1170   36.6280 C.3   182  THR182      0.1897
    249  C          9.0440   -5.2400   37.5260 C.2   182  THR182      0.2313
    250  O          8.1160   -4.5810   37.0830 O.2   182  THR182     -0.2863
    251  CB        11.1970   -5.3850   36.4380 C.3   182  THR182      0.1794
    252  OG1       10.9540   -4.1500   35.7170 O.3   182  THR182     -0.2208
    253  CG2       12.1290   -6.2500   35.6950 C.3   182  THR182      0.0378
@<TRIPOS>BOND
     1    79    80    1
     2    80    81    1
     3    80    83    1
     4    70    69    2
     5   212   211    2
     6    81    82    2
     7    85    83    1
     8    83    84    1
     9    69    68    1
    10   211   210    1
    11    64    62   ar
    12    64    66   ar
    13    61    62   ar
    14    61    59   ar
    15    78    77    1
    16    76    77   ar
    17    76    74   ar
    18    84    86    1
    19    62    60   ar
    20    66    65   ar
    21    77    75   ar
    22    74    72   ar
    23    68    67    1
    24    68    71    1
    25    56    55    2
    26   210   213    1
    27   210   209    1
    28   213   214    1
    29    59    58   ar
    30    75    73   ar
    31    72    73   ar
    32    72    71    1
    33     1     2    1
    34    87    88    1
    35    22    23    1
    36    28    27    1
    37   201   200    2
    38    26    23    1
    39    26    27    1
    40    23    24    1
    41    60    58   ar
    42    60    63   ar
    43   216   214    1
    44   215   214    1
    45    55    54    1
    46    65    63   ar
    47     2     3    1
    48     2     5    1
    49    58    57    1
    50   209   200   am
    51    29    27    1
    52   200   199    1
    53    13    14    1
    54     4     3    2
    55    88    91    1
    56    88    89    1
    57     7     9   ar
    58     7     6   ar
    59     5     6    1
    60    24    25    2
    61    89    90    2
    62    54    57    1
    63    54    53    1
    64     9    11   ar
    65     6     8   ar
    66   217   218    1
    67    14    15    1
    68    14    17    1
    69    48    47    2
    70   199   198    1
    71   199   202    1
    72   221   218    1
    73   221   222    1
    74    30    31    1
    75    15    16    2
    76   193   192    2
    77   207   205   ar
    78   207   208   ar
    79    35    36    1
    80    35    34    1
    81    37    36    1
    82   218   219    1
    83   205   203   ar
    84    53    47   am
    85   208   206   ar
    86    47    46    1
    87   222   223    1
    88   203   202    1
    89   203   204   ar
    90    17    18    1
    91    31    34    1
    92    31    32    1
    93    11    12    1
    94    11    10   ar
    95   206   204   ar
    96     8    10   ar
    97   192   191    1
    98    46    45    1
    99    46    49    1
   100    19    18    1
   101    19    20    1
   102   219   225   am
   103   219   220    2
   104    32    33    2
   105   225   226    1
   106   223   224    1
   107    41    40    2
   108   191   194    1
   109   191   190    1
   110   189   188    2
   111   194   195    1
   112    51    49    1
   113   245   244    1
   114    49    50    1
   115    20    21    1
   116    40    39    1
   117   188   190   am
   118   188   187    1
   119   229   226    1
   120   229   230    1
   121   226   227    1
   122    50    52    1
   123   195   197   ar
   124   195   196   ar
   125   227   228    2
   126   186   187    1
   127   244   246    1
   128   244   243    1
   129    44    42    1
   130   239   240    1
   131   230   231   ar
   132   230   232   ar
   133    39    42    1
   134    39    38    1
   135   107   105    1
   136   243   240    1
   137    42    43    1
   138   231   233   ar
   139   166   164   ar
   140   166   165   ar
   141   235   232   ar
   142   235   237   ar
   143   232   234   ar
   144   178   177    2
   145   240   241    1
   146   164   162   ar
   147   106   105    1
   148   165   163   ar
   149   105   104    1
   150   177   176    1
   151   162   161   ar
   152   233   234   ar
   153   237   238   ar
   154   234   236   ar
   155   184   183    1
   156   241   247   am
   157   241   242    2
   158   163   161   ar
   159   247   248    1
   160   161   160    1
   161   104   101    1
   162   182   183    2
   163   182   181    1
   164   253   251    1
   165   252   251    1
   166    99    97   ar
   167    92    93    1
   168   183   185    1
   169   238   236   ar
   170   176   175    1
   171   176   179    1
   172   132   131    1
   173   160   157    1
   174   181   180    1
   175   251   248    1
   176   180   179    1
   177   248   249    1
   178   126   124    1
   179   155   153    1
   180    93    94    1
   181    93    96    1
   182   101   102    1
   183   101   100    1
   184    97    98   ar
   185    97    96    1
   186   250   249    2
   187   159   158    2
   188   157   158    1
   189   157   156    1
   190   102   103    2
   191   102   108   am
   192    94    95    2
   193   154   153    1
   194   131   128    1
   195   158   167   am
   196   153   150    1
   197   124   123    1
   198   124   125    1
   199   108   109    1
   200   174   173    1
   201   128   127    1
   202   128   129    1
   203   123   120    1
   204   150   149    1
   205   150   151    1
   206   109   112    1
   207   109   110    1
   208   147   148    1
   209   147   144    1
   210   127   121   am
   211   167   168    1
   212   112   113    1
   213   146   145    2
   214   149   145   am
   215   151   152    2
   216   121   122    2
   217   121   120    1
   218   173   172    1
   219   145   144    1
   220   168   169    1
   221   168   171    1
   222   129   130    2
   223   129   133   am
   224   120   119    1
   225   110   111    2
   226   144   143    1
   227   172   171    1
   228   169   170    2
   229   113   114    1
   230   114   115    1
   231   133   134    1
   232   115   116    2
   233   141   139   ar
   234   141   142   ar
   235   139   138   ar
   236   134   135    1
   237   134   137    1
   238   116   118    1
   239   116   117    1
   240   142   140   ar
   241   135   136    2
   242   138   137    1
   243   138   140   ar
