@<TRIPOS>MOLECULE
tmp/3vw0B00.pdb
 219 204 0 0 0
SMALL
GASTEIGER

@<TRIPOS>ATOM
      1  N        -55.2990    1.2470  -38.1070 N.3    53  TYR53      -0.1241
      2  CA       -54.3630    0.7820  -37.1310 C.3    53  TYR53       0.1605
      3  C        -53.2640    1.7870  -37.0740 C.2    53  TYR53       0.2264
      4  O        -52.8270    2.1640  -35.9810 O.2    53  TYR53      -0.2867
      5  CB       -53.8270   -0.6200  -37.5150 C.3    53  TYR53       0.0534
      6  CG       -52.7070   -1.0140  -36.6500 C.ar   53  TYR53      -0.0201
      7  CD1      -52.9480   -1.5540  -35.3930 C.ar   53  TYR53      -0.0009
      8  CD2      -51.4120   -0.7510  -37.0120 C.ar   53  TYR53      -0.0009
      9  CE1      -51.9290   -1.8630  -34.5370 C.ar   53  TYR53       0.0417
     10  CE2      -50.3580   -1.0570  -36.1290 C.ar   53  TYR53       0.0417
     11  CZ       -50.6500   -1.6390  -34.9000 C.ar   53  TYR53       0.1957
     12  OH       -49.6360   -1.9560  -34.0200 O.3    53  TYR53      -0.2866
     13  N        -52.4180    3.9520  -33.9820 N.3    57  LYS57      -0.1245
     14  CA       -51.0700    3.7960  -33.4580 C.3    57  LYS57       0.1561
     15  C        -50.3400    5.1260  -33.4690 C.2    57  LYS57       0.2260
     16  O        -49.5650    5.4240  -32.5750 O.2    57  LYS57      -0.2867
     17  CB       -50.2710    2.7870  -34.2950 C.3    57  LYS57       0.0271
     18  CG       -49.2920    1.9810  -33.4890 C.3    57  LYS57       0.0035
     19  CD       -47.9810    2.7330  -33.3310 C.3    57  LYS57       0.0206
     20  CE       -47.1610    2.2100  -32.1000 C.3    57  LYS57       0.1093
     21  NZ       -45.6730    2.5210  -32.3200 N.3    57  LYS57      -0.1314
     22  N        -51.6500    6.9820  -30.5380 N.3    60  LEU60      -0.1231
     23  CA       -51.0460    6.4110  -29.3300 C.3    60  LEU60       0.1693
     24  C        -49.6230    6.9450  -29.0930 C.2    60  LEU60       0.2592
     25  O        -49.3150    7.4220  -28.0170 O.2    60  LEU60      -0.2718
     26  CB       -50.9850    4.8970  -29.4350 C.3    60  LEU60       0.0284
     27  CG       -50.8780    4.0310  -28.1660 C.3    60  LEU60       0.0019
     28  CD1      -49.8510    2.9840  -28.3270 C.3    60  LEU60       0.0001
     29  CD2      -50.6060    4.7380  -26.8600 C.3    60  LEU60       0.0001
     30  N        -48.7920    6.8700  -30.1170 N.am   61  CYS61      -0.1970
     31  CA       -47.4240    7.3810  -30.0630 C.3    61  CYS61       0.1712
     32  C        -47.2270    8.8950  -29.9080 C.2    61  CYS61       0.2296
     33  O        -46.2150    9.3150  -29.3910 O.2    61  CYS61      -0.2864
     34  CB       -46.6060    6.8670  -31.2810 C.3    61  CYS61       0.0983
     35  SG       -46.1560    5.1040  -31.1750 S.3    61  CYS61      -0.0798
     36  N        -47.4690    9.4970  -26.2040 N.3    64  MET64      -0.1245
     37  CA       -46.2940    9.0200  -25.5280 C.3    64  MET64       0.1570
     38  C        -45.1130    9.9480  -25.6660 C.2    64  MET64       0.2261
     39  O        -44.4270   10.1830  -24.6490 O.2    64  MET64      -0.2867
     40  CB       -45.9120    7.6140  -25.9930 C.3    64  MET64       0.0387
     41  CG       -46.8940    6.5060  -25.5370 C.3    64  MET64       0.0595
     42  SD       -46.2160    4.8330  -25.8360 S.3    64  MET64      -0.1393
     43  CE       -47.7090    3.9520  -26.1800 C.3    64  MET64       0.0692
     44  N        -38.7660    3.7430  -18.9800 N.3    79  THR79      -0.1218
     45  CA       -39.8130    2.7540  -19.2110 C.3    79  THR79       0.1862
     46  C        -41.1200    3.0600  -18.4400 C.2    79  THR79       0.2287
     47  O        -42.2090    2.9180  -18.9950 O.2    79  THR79      -0.2866
     48  CB       -39.3250    1.3640  -18.9080 C.3    79  THR79       0.1770
     49  OG1      -38.0580    1.1830  -19.5710 O.3    79  THR79      -0.2211
     50  CG2      -40.2660    0.3310  -19.4890 C.3    79  THR79       0.0375
     51  N        -43.2180    5.3910  -20.4830 N.3    82  ILE82      -0.1245
     52  CA       -43.9180    4.7380  -21.5720 C.3    82  ILE82       0.1561
     53  C        -45.0790    3.9390  -20.9960 C.2    82  ILE82       0.2260
     54  O        -46.2340    4.0770  -21.4560 O.2    82  ILE82      -0.2867
     55  CB       -42.9930    3.8650  -22.4260 C.3    82  ILE82       0.0252
     56  CG1      -42.3750    4.6940  -23.5460 C.3    82  ILE82       0.0019
     57  CG2      -43.7510    2.7670  -23.1130 C.3    82  ILE82       0.0019
     58  CD1      -41.3130    5.6520  -23.1420 C.3    82  ILE82       0.0001
     59  N        -48.9020    4.7390  -22.0270 N.3    86  TYR86      -0.1241
     60  CA       -49.6600    3.7210  -22.6890 C.3    86  TYR86       0.1605
     61  C        -50.9430    3.4370  -21.9290 C.2    86  TYR86       0.2264
     62  O        -52.0260    3.3060  -22.5310 O.2    86  TYR86      -0.2867
     63  CB       -48.8500    2.4400  -22.8900 C.3    86  TYR86       0.0534
     64  CG       -49.6830    1.3050  -23.4410 C.ar   86  TYR86      -0.0201
     65  CD1      -50.3330    0.4190  -22.5920 C.ar   86  TYR86      -0.0009
     66  CD2      -49.8570    1.1440  -24.7940 C.ar   86  TYR86      -0.0009
     67  CE1      -51.1170   -0.5880  -23.0660 C.ar   86  TYR86       0.0417
     68  CE2      -50.6330    0.0910  -25.2820 C.ar   86  TYR86       0.0417
     69  CZ       -51.2580   -0.7690  -24.3910 C.ar   86  TYR86       0.1957
     70  OH       -52.0440   -1.8180  -24.8550 O.3    86  TYR86      -0.2866
     71  N        -58.8180    2.3610  -28.1010 N.3    97  HIS97      -0.1241
     72  CA       -58.0670    1.2690  -27.5690 C.3    97  HIS97       0.1621
     73  C        -58.7150   -0.0750  -27.8960 C.2    97  HIS97       0.2264
     74  O        -58.0100   -1.0170  -28.2420 O.2    97  HIS97      -0.2867
     75  CB       -57.9170    1.4610  -26.0760 C.3    97  HIS97       0.0745
     76  CG       -57.3610    0.2750  -25.3580 C.ar   97  HIS97       0.0817
     77  ND1      -58.1620   -0.6600  -24.7310 N.ar   97  HIS97      -0.2268
     78  CD2      -56.0890   -0.1560  -25.2140 C.ar   97  HIS97       0.1154
     79  CE1      -57.4020   -1.5810  -24.1850 C.ar   97  HIS97       0.1986
     80  NE2      -56.1440   -1.3070  -24.4670 N.ar   97  HIS97      -0.2212
     81  N        -58.0530   -0.5400  -31.6890 N.3   100  ILE100     -0.1231
     82  CA       -56.6750   -0.8630  -32.0270 C.3   100  ILE100      0.1692
     83  C        -56.3130   -2.2790  -31.5900 C.2   100  ILE100      0.2591
     84  O        -55.4780   -2.8960  -32.1890 O.2   100  ILE100     -0.2718
     85  CB       -55.6480    0.1960  -31.4740 C.3   100  ILE100      0.0266
     86  CG1      -54.3270    0.1140  -32.2360 C.3   100  ILE100      0.0019
     87  CG2      -55.4570    0.0910  -30.0220 C.3   100  ILE100      0.0020
     88  CD1      -53.2570    1.0670  -31.7740 C.3   100  ILE100      0.0001
     89  N        -56.9460   -2.7690  -30.5280 N.am  101  ARG101     -0.1980
     90  CA       -56.6890   -4.1210  -30.0820 C.3   101  ARG101      0.1597
     91  C        -57.2030   -5.1730  -31.1050 C.2   101  ARG101      0.2287
     92  O        -56.5220   -6.1670  -31.3780 O.2   101  ARG101     -0.2864
     93  CB       -57.2950   -4.3640  -28.6970 C.3   101  ARG101      0.0334
     94  CG       -57.4060   -5.8600  -28.3430 C.3   101  ARG101      0.0492
     95  CD       -57.5470   -6.1630  -26.8840 C.3   101  ARG101      0.2205
     96  NE       -58.6650   -5.4660  -26.2580 N.pl3 101  ARG101     -0.0865
     97  CZ       -59.9480   -5.8190  -26.3860 C.cat 101  ARG101      0.5346
     98  NH1      -60.3010   -6.8790  -27.1560 N.pl3 101  ARG101      0.1354
     99  NH2      -60.8850   -5.0860  -25.7520 N.pl3 101  ARG101      0.1354
    100  N        -55.0330   -5.1750  -34.2760 N.3   104  ALA104     -0.1231
    101  CA       -53.7110   -5.7770  -34.0230 C.3   104  ALA104      0.1694
    102  C        -53.8210   -7.2760  -33.8480 C.2   104  ALA104      0.2591
    103  O        -52.8630   -7.9950  -34.0900 O.2   104  ALA104     -0.2718
    104  CB       -53.0790   -5.1750  -32.8230 C.3   104  ALA104      0.0304
    105  N        -55.0060   -7.7390  -33.4630 N.am  105  VAL105     -0.1980
    106  CA       -55.2470   -9.1470  -33.2650 C.3   105  VAL105      0.1595
    107  C        -56.1110   -9.6740  -34.4100 C.2   105  VAL105      0.2287
    108  O        -56.7510  -10.7250  -34.2670 O.2   105  VAL105     -0.2864
    109  CB       -55.8940   -9.3920  -31.8430 C.3   105  VAL105      0.0276
    110  CG1      -57.4570   -9.2780  -31.8510 C.3   105  VAL105      0.0022
    111  CG2      -55.4860  -10.6800  -31.2690 C.3   105  VAL105      0.0022
    112  N        -37.5550    4.3740  -29.5630 N.3   124  LEU124     -0.1245
    113  CA       -38.2340    3.5430  -28.5610 C.3   124  LEU124      0.1561
    114  C        -37.7130    2.1390  -28.6050 C.2   124  LEU124      0.2260
    115  O        -37.7540    1.4400  -27.6160 O.2   124  LEU124     -0.2867
    116  CB       -39.7420    3.5440  -28.7920 C.3   124  LEU124      0.0270
    117  CG       -40.6270    3.0080  -27.6770 C.3   124  LEU124      0.0019
    118  CD1      -40.6890    4.0290  -26.6280 C.3   124  LEU124      0.0001
    119  CD2      -42.0130    2.6970  -28.1760 C.3   124  LEU124      0.0001
    120  N        -34.8310    1.7500  -26.1300 N.3   127  LEU127     -0.1231
    121  CA       -35.0340    1.2610  -24.7750 C.3   127  LEU127      0.1693
    122  C        -34.9650   -0.2580  -24.6550 C.2   127  LEU127      0.2592
    123  O        -34.2920   -0.7810  -23.7720 O.2   127  LEU127     -0.2718
    124  CB       -36.3630    1.7300  -24.2270 C.3   127  LEU127      0.0284
    125  CG       -36.2710    3.0340  -23.4510 C.3   127  LEU127      0.0019
    126  CD1      -36.1120    4.2170  -24.4520 C.3   127  LEU127      0.0001
    127  CD2      -37.5180    3.1460  -22.6580 C.3   127  LEU127      0.0001
    128  N        -35.6730   -0.9600  -25.5280 N.am  128  CYS128     -0.1970
    129  CA       -35.7800   -2.3910  -25.3470 C.3   128  CYS128      0.1712
    130  C        -34.4040   -3.0220  -25.3720 C.2   128  CYS128      0.2296
    131  O        -34.0020   -3.6980  -24.4220 O.2   128  CYS128     -0.2864
    132  CB       -36.7090   -3.0190  -26.3900 C.3   128  CYS128      0.0983
    133  SG       -38.3680   -2.5620  -26.0820 S.3   128  CYS128     -0.0798
    134  N        -32.6730   -2.7730  -21.9590 N.3   131  SER131     -0.1202
    135  CA       -33.2650   -3.4090  -20.7830 C.3   131  SER131      0.2020
    136  C        -33.8020   -4.8360  -20.9810 C.2   131  SER131      0.2618
    137  O        -33.6810   -5.6360  -20.0810 O.2   131  SER131     -0.2717
    138  CB       -34.3490   -2.5100  -20.1850 C.3   131  SER131      0.2103
    139  OG       -35.1120   -1.9430  -21.2270 O.3   131  SER131     -0.2182
    140  N        -34.3780   -5.1520  -22.1360 N.am  132  VAL132     -0.1979
    141  CA       -35.0980   -6.4070  -22.2720 C.3   132  VAL132      0.1595
    142  C        -34.1530   -7.6040  -22.4580 C.2   132  VAL132      0.2287
    143  O        -33.1580   -7.5180  -23.1860 O.2   132  VAL132     -0.2864
    144  CB       -36.1950   -6.3340  -23.3810 C.3   132  VAL132      0.0276
    145  CG1      -36.8510   -7.7110  -23.6440 C.3   132  VAL132      0.0022
    146  CG2      -37.2560   -5.3610  -22.9880 C.3   132  VAL132      0.0022
    147  N        -35.6790  -10.1190  -27.3930 N.3   137  MET137     -0.1245
    148  CA       -35.3240   -9.4040  -28.6400 C.3   137  MET137      0.1570
    149  C        -35.1620  -10.3720  -29.8280 C.2   137  MET137      0.2261
    150  O        -35.1330   -9.9820  -30.9740 O.2   137  MET137     -0.2867
    151  CB       -34.0840   -8.5410  -28.4160 C.3   137  MET137      0.0387
    152  CG       -34.3650   -7.3380  -27.5140 C.3   137  MET137      0.0595
    153  SD       -35.8560   -6.3770  -28.0220 S.3   137  MET137     -0.1393
    154  CE       -37.0640   -6.8230  -26.8130 C.3   137  MET137      0.0692
    155  N        -42.5010  -11.4850  -26.3410 N.3   145  GLY145     -0.1210
    156  CA       -42.1320  -10.4950  -25.3480 C.3   145  GLY145      0.1956
    157  C        -43.1040   -9.3340  -25.3340 C.2   145  GLY145      0.2612
    158  O        -43.6290   -9.0130  -24.2980 O.2   145  GLY145     -0.2717
    159  N        -43.3260   -8.6970  -26.4740 N.am  146  ASP146     -0.1959
    160  CA       -44.2200   -7.5360  -26.5330 C.3   146  ASP146      0.1840
    161  C        -45.5860   -7.9290  -26.0240 C.2   146  ASP146      0.2622
    162  O        -46.2310   -7.1420  -25.3270 O.2   146  ASP146     -0.2715
    163  CB       -44.3950   -7.0290  -27.9690 C.3   146  ASP146      0.1450
    164  CG       -43.0830   -6.6500  -28.6540 C.2   146  ASP146      0.3671
    165  OD1      -42.0880   -6.2940  -27.9810 O.co2 146  ASP146     -0.2456
    166  OD2      -43.0840   -6.6870  -29.9120 O.co2 146  ASP146     -0.2456
    167  N        -46.0130   -9.1520  -26.3720 N.am  147  GLY147     -0.1954
    168  CA       -47.2640   -9.6930  -25.9110 C.3   147  GLY147      0.1869
    169  C        -47.4170   -9.6790  -24.4030 C.2   147  GLY147      0.2309
    170  O        -48.4580   -9.2290  -23.8670 O.2   147  GLY147     -0.2863
    171  N        -45.7860   -7.9740  -22.2290 N.3   149  PHE149     -0.1227
    172  CA       -45.8260   -6.6110  -21.7800 C.3   149  PHE149      0.1736
    173  C        -47.2580   -6.0850  -21.9760 C.2   149  PHE149      0.2595
    174  O        -47.8530   -5.5160  -21.0540 O.2   149  PHE149     -0.2718
    175  CB       -44.8530   -5.8060  -22.6100 C.3   149  PHE149      0.0547
    176  CG       -44.8610   -4.3260  -22.2950 C.ar  149  PHE149     -0.0202
    177  CD1      -43.8000   -3.7530  -21.5190 C.ar  149  PHE149     -0.0042
    178  CD2      -45.8520   -3.4990  -22.8070 C.ar  149  PHE149     -0.0042
    179  CE1      -43.7660   -2.4010  -21.2230 C.ar  149  PHE149     -0.0003
    180  CE2      -45.8370   -2.0910  -22.5190 C.ar  149  PHE149     -0.0003
    181  CZ       -44.8140   -1.5370  -21.7320 C.ar  149  PHE149     -0.0000
    182  N        -47.8160   -6.2860  -23.1880 N.am  150  LEU150     -0.1966
    183  CA       -49.1930   -5.8690  -23.4960 C.3   150  LEU150      0.1728
    184  C        -50.2780   -6.4800  -22.6070 C.2   150  LEU150      0.2616
    185  O        -51.1470   -5.7580  -22.1580 O.2   150  LEU150     -0.2715
    186  CB       -49.5050   -6.2240  -24.9220 C.3   150  LEU150      0.0311
    187  CG       -49.1960   -5.1990  -26.0300 C.3   150  LEU150      0.0022
    188  CD1      -48.3060   -4.0420  -25.6550 C.3   150  LEU150      0.0001
    189  CD2      -48.6400   -5.9570  -27.2960 C.3   150  LEU150      0.0001
    190  N        -50.2330   -7.7920  -22.3230 N.am  151  ALA151     -0.1977
    191  CA       -51.2560   -8.4110  -21.4820 C.3   151  ALA151      0.1597
    192  C        -51.0920   -7.8620  -20.0920 C.2   151  ALA151      0.2287
    193  O        -52.0230   -7.6180  -19.4110 O.2   151  ALA151     -0.2864
    194  CB       -51.1170   -9.9290  -21.4940 C.3   151  ALA151      0.0319
    195  N        -52.5870   -4.4580  -20.2190 N.3   154  GLU154     -0.1245
    196  CA       -54.0490   -4.5180  -20.3300 C.3   154  GLU154      0.1567
    197  C        -54.7860   -4.8650  -18.9820 C.2   154  GLU154      0.2260
    198  O        -55.8090   -4.2680  -18.6650 O.2   154  GLU154     -0.2867
    199  CB       -54.4250   -5.5270  -21.3680 C.3   154  GLU154      0.0388
    200  CG       -54.0050   -5.1920  -22.7540 C.3   154  GLU154      0.1160
    201  CD       -54.8080   -3.9630  -23.3360 C.2   154  GLU154      0.3649
    202  OE1      -54.1470   -2.9990  -23.8970 O.co2 154  GLU154     -0.2457
    203  OE2      -56.0800   -3.9860  -23.2290 O.co2 154  GLU154     -0.2457
    204  N        -44.0750   -6.1780  -14.4990 N.3   178  MET178     -0.1245
    205  CA       -43.5150   -6.2870  -15.8800 C.3   178  MET178      0.1570
    206  C        -41.9740   -6.1210  -15.9180 C.2   178  MET178      0.2261
    207  O        -41.2810   -6.8250  -16.6620 O.2   178  MET178     -0.2867
    208  CB       -44.1950   -5.3170  -16.8370 C.3   178  MET178      0.0387
    209  CG       -43.4870   -5.1520  -18.1700 C.3   178  MET178      0.0595
    210  SD       -42.1680   -3.8900  -18.1760 S.3   178  MET178     -0.1393
    211  CE       -43.0790   -2.5310  -17.5560 C.3   178  MET178      0.0692
    212  N        -39.6240   -9.0810  -17.5980 N.3   182  LEU182     -0.1245
    213  CA       -39.1590   -8.9030  -18.9700 C.3   182  LEU182      0.1561
    214  C        -37.7360   -8.3860  -19.0680 C.2   182  LEU182      0.2260
    215  O        -37.0780   -8.5410  -20.1060 O.2   182  LEU182     -0.2867
    216  CB       -40.1540   -8.0030  -19.7210 C.3   182  LEU182      0.0270
    217  CG       -41.2820   -8.7460  -20.4660 C.3   182  LEU182      0.0019
    218  CD1      -41.7800  -10.0010  -19.8040 C.3   182  LEU182      0.0001
    219  CD2      -42.4100   -7.8080  -20.7020 C.3   182  LEU182      0.0001
@<TRIPOS>BOND
     1     1     2    1
     2     5     2    1
     3     5     6    1
     4     2     3    1
     5     3     4    2
     6     8     6   ar
     7     8    10   ar
     8     6     7   ar
     9    10    11   ar
    10     7     9   ar
    11    11     9   ar
    12    11    12    1
    13   107   108    2
    14   107   106    1
    15    17    18    1
    16    17    14    1
    17   100   101    1
    18   103   102    2
    19   101   102    1
    20   101   104    1
    21    13    14    1
    22   102   105   am
    23    18    19    1
    24    15    14    1
    25    15    16    2
    26   105   106    1
    27    19    20    1
    28   106   109    1
    29    21    20    1
    30    86    88    1
    31    86    85    1
    32    84    83    2
    33    82    81    1
    34    82    83    1
    35    82    85    1
    36   110   109    1
    37   109   111    1
    38    83    89   am
    39    85    87    1
    40    92    91    2
    41    34    35    1
    42    34    31    1
    43    91    90    1
    44   150   149    2
    45    22    23    1
    46    89    90    1
    47    30    31    1
    48    30    24   am
    49    90    93    1
    50    31    32    1
    51   166   164   ar
    52    32    33    2
    53   149   148    1
    54   112   113    1
    55    26    23    1
    56    26    27    1
    57    23    24    1
    58    24    25    2
    59   116   113    1
    60   116   117    1
    61    93    94    1
    62   164   165   ar
    63   164   163    1
    64   148   151    1
    65   148   147    1
    66   114   113    1
    67   114   115    2
    68   151   152    1
    69    94    95    1
    70    28    27    1
    71    74    73    2
    72   119   117    1
    73    27    29    1
    74    71    72    1
    75   153   152    1
    76   153   154    1
    77   163   160    1
    78    73    72    1
    79   117   118    1
    80    72    75    1
    81   189   187    1
    82    98    97    1
    83    95    96    1
    84   160   159    1
    85   160   161    1
    86   159   157   am
    87   132   133    1
    88   132   129    1
    89    97    96    2
    90    97    99    1
    91   167   161   am
    92   167   168    1
    93   155   156    1
    94    36    37    1
    95    43    42    1
    96   120   121    1
    97    75    76    1
    98   187   188    1
    99   187   186    1
   100   161   162    2
   101    40    41    1
   102    40    37    1
   103   168   169    1
   104    42    41    1
   105    38    37    1
   106    38    39    2
   107   128   129    1
   108   128   122   am
   109   130   129    1
   110   130   131    2
   111    76    78   ar
   112    76    77   ar
   113   156   157    1
   114   157   158    2
   115    68    66   ar
   116    68    69   ar
   117    78    80   ar
   118   186   183    1
   119    70    69    1
   120    66    64   ar
   121   121   122    1
   122   121   124    1
   123    77    79   ar
   124   122   123    2
   125    80    79   ar
   126   126   125    1
   127   169   170    2
   128    69    67   ar
   129   124   125    1
   130   202   201   ar
   131   145   144    1
   132    56    58    1
   133    56    55    1
   134   183   182    1
   135   183   184    1
   136   125   127    1
   137    64    63    1
   138    64    65   ar
   139   144   146    1
   140   144   141    1
   141   201   203   ar
   142   201   200    1
   143   182   173   am
   144   143   142    2
   145    57    55    1
   146    67    65   ar
   147    63    60    1
   148   178   180   ar
   149   178   176   ar
   150   200   199    1
   151    60    59    1
   152    60    61    1
   153   175   176    1
   154   175   172    1
   155   184   190   am
   156   184   185    2
   157    62    61    2
   158   180   181   ar
   159   142   141    1
   160    55    52    1
   161   190   191    1
   162   176   177   ar
   163   141   140    1
   164   171   172    1
   165   140   136   am
   166   173   172    1
   167   173   174    2
   168   134   135    1
   169   181   179   ar
   170    52    53    1
   171    52    51    1
   172   177   179   ar
   173   194   191    1
   174   191   192    1
   175    54    53    2
   176   199   196    1
   177   139   138    1
   178   136   135    1
   179   136   137    2
   180   135   138    1
   181   219   217    1
   182   217   218    1
   183   217   216    1
   184   196   195    1
   185   196   197    1
   186   215   214    2
   187   192   193    2
   188   216   213    1
   189    49    48    1
   190    50    48    1
   191    45    44    1
   192    45    48    1
   193    45    46    1
   194   214   213    1
   195    47    46    2
   196   197   198    2
   197   213   212    1
   198   210   209    1
   199   210   211    1
   200   209   208    1
   201   208   205    1
   202   207   206    2
   203   206   205    1
   204   205   204    1
