@<TRIPOS>MOLECULE
tmp/3vw1D00.pdb
 200 186 0 0 0
SMALL
GASTEIGER

@<TRIPOS>ATOM
      1  N         -4.0660   -9.5720    6.3860 N.3    52  TYR52      -0.1241
      2  CA        -3.7280   -8.8930    7.6160 C.3    52  TYR52       0.1605
      3  C         -4.8280   -7.9070    8.0060 C.2    52  TYR52       0.2264
      4  O         -5.2990   -7.9140    9.1300 O.2    52  TYR52      -0.2867
      5  CB        -2.3440   -8.1970    7.4730 C.3    52  TYR52       0.0534
      6  CG        -1.9720   -7.3680    8.6700 C.ar   52  TYR52      -0.0201
      7  CD1       -1.5950   -7.9740    9.8530 C.ar   52  TYR52      -0.0009
      8  CD2       -2.0230   -5.9630    8.6320 C.ar   52  TYR52      -0.0009
      9  CE1       -1.2530   -7.2310   10.9970 C.ar   52  TYR52       0.0417
     10  CE2       -1.6470   -5.1830    9.7930 C.ar   52  TYR52       0.0417
     11  CZ        -1.2650   -5.8450   10.9380 C.ar   52  TYR52       0.1957
     12  OH        -0.9500   -5.1110   12.0620 O.3    52  TYR52      -0.2866
     13  N         -7.2060   -8.2590   11.2510 N.3    56  LYS56      -0.1245
     14  CA        -7.2870   -7.0930   12.1140 C.3    56  LYS56       0.1561
     15  C         -8.7530   -6.6470   12.2690 C.2    56  LYS56       0.2260
     16  O         -9.2610   -6.3530   13.4040 O.2    56  LYS56      -0.2867
     17  CB        -6.4870   -5.9290   11.5240 C.3    56  LYS56       0.0271
     18  CG        -5.1390   -5.7010   12.1620 C.3    56  LYS56       0.0035
     19  CD        -5.1390   -4.3960   12.9800 C.3    56  LYS56       0.0206
     20  CE        -6.0920   -4.3970   14.1670 C.3    56  LYS56       0.1093
     21  NZ        -6.2980   -2.9560   14.6720 N.3    56  LYS56      -0.1314
     22  N        -10.5410   -9.0110   14.4370 N.3    59  LEU59      -0.1231
     23  CA       -10.2110   -8.7340   15.8790 C.3    59  LEU59       0.1693
     24  C        -10.9620   -7.5200   16.3960 C.2    59  LEU59       0.2592
     25  O        -11.5610   -7.5890   17.4530 O.2    59  LEU59      -0.2718
     26  CB        -8.7060   -8.5470   16.0580 C.3    59  LEU59       0.0284
     27  CG        -8.2400   -7.8870   17.3210 C.3    59  LEU59       0.0019
     28  CD1       -8.6860   -8.7210   18.4800 C.3    59  LEU59       0.0001
     29  CD2       -6.6800   -7.6880   17.2410 C.3    59  LEU59       0.0001
     30  N        -10.8570   -6.4030   15.7020 N.am   60  CYS60      -0.1970
     31  CA       -11.5880   -5.1840   16.1330 C.3    60  CYS60       0.1712
     32  C        -13.1130   -5.4090   16.3000 C.2    60  CYS60       0.2296
     33  O        -13.6880   -5.1000   17.3580 O.2    60  CYS60      -0.2864
     34  CB       -11.3250   -3.9770   15.2450 C.3    60  CYS60       0.0983
     35  SG        -9.6010   -3.3200   15.4500 S.3    60  CYS60      -0.0798
     36  N        -14.2830   -6.9200   19.4750 N.3    63  MET63      -0.1245
     37  CA       -13.9340   -6.2110   20.7140 C.3    63  MET63       0.1570
     38  C        -14.8530   -5.0780   20.8900 C.2    63  MET63       0.2261
     39  O        -15.2200   -4.7610   22.0150 O.2    63  MET63      -0.2867
     40  CB       -12.5020   -5.6690   20.6800 C.3    63  MET63       0.0387
     41  CG       -12.3580   -4.1700   20.8990 C.3    63  MET63       0.0595
     42  SD       -12.3160   -3.6440   22.6010 S.3    63  MET63      -0.1393
     43  CE       -13.2670   -2.1360   22.4940 C.3    63  MET63       0.0692
     44  N         -7.3540   -0.0370   28.7660 N.3    78  THR78      -0.1218
     45  CA        -6.3190   -0.9330   28.2720 C.3    78  THR78       0.1862
     46  C         -6.5770   -2.3680   28.7180 C.2    78  THR78       0.2287
     47  O         -6.4240   -3.3080   27.9270 O.2    78  THR78      -0.2866
     48  CB        -4.9620   -0.5090   28.7210 C.3    78  THR78       0.1770
     49  OG1       -4.7840    0.8960   28.4330 O.3    78  THR78      -0.2211
     50  CG2       -3.8160   -1.3710   28.0040 C.3    78  THR78       0.0375
     51  N         -9.1530   -3.8450   26.5550 N.3    81  ILE81      -0.1245
     52  CA        -8.5130   -4.0900   25.2360 C.3    81  ILE81       0.1561
     53  C         -7.6970   -5.3700   25.3030 C.2    81  ILE81       0.2260
     54  O         -7.6890   -6.1550   24.3450 O.2    81  ILE81      -0.2867
     55  CB        -7.6290   -2.9020   24.8340 C.3    81  ILE81       0.0252
     56  CG1       -8.5400   -1.7300   24.4820 C.3    81  ILE81       0.0019
     57  CG2       -6.7450   -3.2510   23.6610 C.3    81  ILE81       0.0019
     58  CD1       -7.8290   -0.6080   23.7020 C.3    81  ILE81       0.0001
     59  N        -10.1250   -8.4890   25.6620 N.3    84  SER84      -0.1202
     60  CA       -10.7210   -8.8190   24.3050 C.3    84  SER84       0.2020
     61  C         -9.7060   -9.4540   23.3460 C.2    84  SER84       0.2618
     62  O        -10.0300  -10.3990   22.5830 O.2    84  SER84      -0.2717
     63  CB       -11.2750   -7.5620   23.6300 C.3    84  SER84       0.2103
     64  OG       -12.3800   -7.0940   24.3590 O.3    84  SER84      -0.2182
     65  N         -8.4810   -8.9820   23.4170 N.am   85  TYR85      -0.1975
     66  CA        -7.4190   -9.5910   22.5840 C.3    85  TYR85       0.1639
     67  C         -7.2450  -11.0490   23.0250 C.2    85  TYR85       0.2290
     68  O         -7.2740  -11.9810   22.2110 O.2    85  TYR85      -0.2864
     69  CB        -6.0860   -8.7810   22.6330 C.3    85  TYR85       0.0560
     70  CG        -5.1760   -9.3940   21.6040 C.ar   85  TYR85      -0.0198
     71  CD1       -5.1990   -8.9300   20.2870 C.ar   85  TYR85      -0.0009
     72  CD2       -4.3860  -10.5440   21.8910 C.ar   85  TYR85      -0.0009
     73  CE1       -4.4720   -9.5580   19.3020 C.ar   85  TYR85       0.0417
     74  CE2       -3.6220  -11.1530   20.8810 C.ar   85  TYR85       0.0417
     75  CZ        -3.7070  -10.6750   19.6180 C.ar   85  TYR85       0.1957
     76  OH        -3.0780  -11.3510   18.6120 O.3    85  TYR85      -0.2866
     77  N         -1.9660  -13.7300   12.2500 N.3    99  ILE99      -0.1245
     78  CA        -1.7370  -12.2940   12.3150 C.3    99  ILE99       0.1561
     79  C         -0.3840  -11.9060   13.0190 C.2    99  ILE99       0.2260
     80  O          0.2420  -10.9110   12.6810 O.2    99  ILE99      -0.2867
     81  CB        -2.8820  -11.5760   12.9960 C.3    99  ILE99       0.0252
     82  CG1       -2.9040  -10.1180   12.5350 C.3    99  ILE99       0.0019
     83  CG2       -2.7480  -11.6600   14.5240 C.3    99  ILE99       0.0019
     84  CD1       -4.2770   -9.3890   12.9060 C.3    99  ILE99       0.0001
     85  N          2.4610   -9.6490   10.8680 N.3   103  ALA103     -0.1245
     86  CA         2.9780   -8.4200   11.4090 C.3   103  ALA103      0.1562
     87  C          4.4970   -8.3030   11.2200 C.2   103  ALA103      0.2260
     88  O          4.9890   -7.2100   11.0790 O.2   103  ALA103     -0.2867
     89  CB         2.6470   -8.3240   12.9250 C.3   103  ALA103      0.0290
     90  N         -9.3200    1.5400   14.2120 N.3   120  PHE120     -0.1241
     91  CA        -9.8450    1.6330   15.5780 C.3   120  PHE120      0.1605
     92  C         -9.2950    2.9020   16.2170 C.2   120  PHE120      0.2264
     93  O         -8.3950    2.8200   17.1090 O.2   120  PHE120     -0.2867
     94  CB        -9.4290    0.4050   16.3890 C.3   120  PHE120      0.0534
     95  CG       -10.1830    0.2090   17.6660 C.ar  120  PHE120     -0.0203
     96  CD1       -9.9170   -0.8840   18.4530 C.ar  120  PHE120     -0.0042
     97  CD2      -11.1680    1.0900   18.0650 C.ar  120  PHE120     -0.0042
     98  CE1      -10.6030   -1.0910   19.6710 C.ar  120  PHE120     -0.0003
     99  CE2      -11.8670    0.8990   19.2610 C.ar  120  PHE120     -0.0003
    100  CZ       -11.5720   -0.1970   20.0770 C.ar  120  PHE120     -0.0000
    101  N         -8.6170    3.1140   20.0130 N.3   123  LEU123     -0.1245
    102  CA        -7.4340    2.4360   20.4620 C.3   123  LEU123      0.1561
    103  C         -6.2090    3.2760   20.1380 C.2   123  LEU123      0.2260
    104  O         -5.3890    3.5280   21.0170 O.2   123  LEU123     -0.2867
    105  CB        -7.3510    1.0420   19.8430 C.3   123  LEU123      0.0270
    106  CG        -6.1460    0.1190   20.0680 C.3   123  LEU123      0.0019
    107  CD1       -5.6660    0.1260   21.4940 C.3   123  LEU123      0.0001
    108  CD2       -6.4800   -1.2860   19.5950 C.3   123  LEU123      0.0001
    109  N         -5.7530    5.9530   22.6150 N.3   126  LEU126     -0.1231
    110  CA        -5.3830    5.4260   23.8990 C.3   126  LEU126      0.1693
    111  C         -3.8540    5.1700   23.9690 C.2   126  LEU126      0.2592
    112  O         -3.2180    5.5410   24.9160 O.2   126  LEU126     -0.2718
    113  CB        -6.1910    4.1500   24.1590 C.3   126  LEU126      0.0284
    114  CG        -5.8010    3.3070   25.3710 C.3   126  LEU126      0.0019
    115  CD1       -5.8330    4.0840   26.6440 C.3   126  LEU126      0.0001
    116  CD2       -6.7400    2.1270   25.4530 C.3   126  LEU126      0.0001
    117  N         -3.3000    4.5240   22.9430 N.am  127  CYS127     -0.1970
    118  CA        -1.9000    4.1650   22.9170 C.3   127  CYS127      0.1712
    119  C         -1.0810    5.4330   22.9140 C.2   127  CYS127      0.2296
    120  O         -0.1900    5.5890   23.7520 O.2   127  CYS127     -0.2864
    121  CB        -1.6050    3.3220   21.6760 C.3   127  CYS127      0.0983
    122  SG        -2.1120    1.6260   21.8720 S.3   127  CYS127     -0.0798
    123  N         -0.8450    6.5210   26.4110 N.3   130  SER130     -0.1202
    124  CA        -0.4230    5.6210   27.5090 C.3   130  SER130      0.2020
    125  C          0.9940    4.9590   27.3240 C.2   130  SER130      0.2618
    126  O          1.7780    4.8460   28.2670 O.2   130  SER130     -0.2717
    127  CB        -1.4600    4.5400   27.6420 C.3   130  SER130      0.2103
    128  OG        -2.6900    5.0950   28.0910 O.3   130  SER130     -0.2182
    129  N          1.2540    4.5080   26.1070 N.am  131  VAL131     -0.1979
    130  CA         2.4420    3.7290   25.7700 C.3   131  VAL131      0.1595
    131  C          3.7240    4.6240   25.8240 C.2   131  VAL131      0.2287
    132  O          3.7030    5.8120   25.4860 O.2   131  VAL131     -0.2864
    133  CB         2.2500    3.0990   24.3530 C.3   131  VAL131      0.0276
    134  CG1        3.5380    2.3380   23.8820 C.3   131  VAL131      0.0022
    135  CG2        0.9910    2.1680   24.3660 C.3   131  VAL131      0.0022
    136  N          7.9940    0.6020   16.9150 N.3   141  ARG141     -0.1245
    137  CA         6.5710    0.2910   17.0390 C.3   141  ARG141      0.1563
    138  C          6.3120   -1.1900   16.8550 C.2   141  ARG141      0.2260
    139  O          5.5900   -1.7480   17.6210 O.2   141  ARG141     -0.2867
    140  CB         5.7430    1.1160   16.0000 C.3   141  ARG141      0.0307
    141  CG         4.5180    0.3440   15.4890 C.3   141  ARG141      0.0489
    142  CD         3.4070    0.3270   16.5260 C.3   141  ARG141      0.2205
    143  NE         2.6430    1.5660   16.5340 N.pl3 141  ARG141     -0.0865
    144  CZ         1.6160    1.8050   17.3450 C.cat 141  ARG141      0.5346
    145  NH1        0.9840    2.9810   17.2870 N.pl3 141  ARG141      0.1354
    146  NH2        1.2210    0.8670   18.2130 N.pl3 141  ARG141      0.1354
    147  N          7.3880   -3.0790   19.8850 N.3   144  GLY144     -0.1210
    148  CA         6.4600   -2.8300   21.0000 C.3   144  GLY144      0.1956
    149  C          5.1930   -3.6950   20.8360 C.2   144  GLY144      0.2611
    150  O          4.6720   -4.2400   21.8280 O.2   144  GLY144     -0.2717
    151  N          4.7020   -3.8130   19.6020 N.am  145  ASP145     -0.1973
    152  CA         3.5870   -4.7060   19.3020 C.3   145  ASP145      0.1709
    153  C          4.0140   -6.1670   19.5010 C.2   145  ASP145      0.2293
    154  O          3.2280   -6.9630   19.9910 O.2   145  ASP145     -0.2864
    155  CB         3.1540   -4.5360   17.8070 C.3   145  ASP145      0.1436
    156  CG         2.5080   -3.1860   17.5340 C.2   145  ASP145      0.3671
    157  OD1        2.2010   -2.4540   18.4710 O.co2 145  ASP145     -0.2456
    158  OD2        2.3600   -2.8330   16.3460 O.co2 145  ASP145     -0.2456
    159  N          4.0210   -7.0250   23.1190 N.3   148  PHE148     -0.1227
    160  CA         2.6490   -7.1550   23.5240 C.3   148  PHE148      0.1736
    161  C          2.0670   -8.5080   23.1720 C.2   148  PHE148      0.2595
    162  O          1.4400   -9.1520   24.0010 O.2   148  PHE148     -0.2718
    163  CB         1.8200   -6.0230   22.8370 C.3   148  PHE148      0.0547
    164  CG         0.3230   -6.1290   23.1130 C.ar  148  PHE148     -0.0202
    165  CD1       -0.2480   -5.4730   24.1500 C.ar  148  PHE148     -0.0042
    166  CD2       -0.4830   -6.8070   22.2440 C.ar  148  PHE148     -0.0042
    167  CE1       -1.6240   -5.5110   24.3660 C.ar  148  PHE148     -0.0003
    168  CE2       -1.8850   -6.8310   22.4520 C.ar  148  PHE148     -0.0003
    169  CZ        -2.4310   -6.2290   23.5530 C.ar  148  PHE148     -0.0000
    170  N          2.2460   -8.9050   21.9130 N.am  149  LEU149     -0.1980
    171  CA         1.6860  -10.1240   21.3670 C.3   149  LEU149      0.1596
    172  C          2.3490  -11.3720   21.9690 C.2   149  LEU149      0.2287
    173  O          1.6880  -12.3800   22.1460 O.2   149  LEU149     -0.2864
    174  CB         1.8960  -10.1560   19.8210 C.3   149  LEU149      0.0297
    175  CG         1.1270   -9.1060   19.0340 C.3   149  LEU149      0.0022
    176  CD1        1.5840   -9.0550   17.5100 C.3   149  LEU149      0.0001
    177  CD2       -0.4020   -9.3640   19.1420 C.3   149  LEU149      0.0001
    178  N          2.4200   -6.6850   31.1060 N.3   177  MET177     -0.1245
    179  CA         2.4020   -5.9310   29.8240 C.3   177  MET177      0.1570
    180  C          2.3280   -4.4380   30.1420 C.2   177  MET177      0.2261
    181  O          3.0350   -3.6370   29.5730 O.2   177  MET177     -0.2867
    182  CB         1.2070   -6.3330   28.9740 C.3   177  MET177      0.0387
    183  CG         1.0940   -5.6120   27.6300 C.3   177  MET177      0.0595
    184  SD         0.1440   -4.0290   27.8410 S.3   177  MET177     -0.1393
    185  CE         1.2960   -2.8210   27.4280 C.3   177  MET177      0.0692
    186  N          5.2820   -1.7730   28.8170 N.3   181  LEU181     -0.1231
    187  CA         5.1270   -0.8880   27.6670 C.3   181  LEU181      0.1693
    188  C          4.4900    0.5100   27.8930 C.2   181  LEU181      0.2592
    189  O          4.4830    1.2950   26.9820 O.2   181  LEU181     -0.2718
    190  CB         4.2180   -1.6130   26.6500 C.3   181  LEU181      0.0284
    191  CG         4.6860   -3.0430   26.3130 C.3   181  LEU181      0.0019
    192  CD1        3.6500   -3.8000   25.4040 C.3   181  LEU181      0.0001
    193  CD2        6.0740   -3.0480   25.6880 C.3   181  LEU181      0.0001
    194  N          3.9720    0.8100   29.0900 N.am  182  THR182     -0.1953
    195  CA         3.3440    2.0980   29.3080 C.3   182  THR182      0.1897
    196  C          4.1640    2.9840   30.2480 C.2   182  THR182      0.2313
    197  O          5.0390    2.5290   30.9720 O.2   182  THR182     -0.2863
    198  CB         1.9150    1.9740   29.8880 C.3   182  THR182      0.1794
    199  OG1        1.9500    1.5340   31.2500 O.3   182  THR182     -0.2208
    200  CG2        1.1150    1.0100   29.1030 C.3   182  THR182      0.0378
@<TRIPOS>BOND
     1     1     2    1
     2     5     2    1
     3     5     6    1
     4     2     3    1
     5     3     4    2
     6     8     6   ar
     7     8    10   ar
     8     6     7   ar
     9    10    11   ar
    10     7     9   ar
    11    85    86    1
    12    11     9   ar
    13    11    12    1
    14    88    87    2
    15    87    86    1
    16    13    14    1
    17    86    89    1
    18    17    14    1
    19    17    18    1
    20    14    15    1
    21    18    19    1
    22    77    78    1
    23    15    16    2
    24    78    81    1
    25    78    79    1
    26    82    84    1
    27    82    81    1
    28    80    79    2
    29    19    20    1
    30    81    83    1
    31    20    21    1
    32    90    91    1
    33    22    23    1
    34    34    35    1
    35    34    31    1
    36   141   140    1
    37   141   142    1
    38    91    92    1
    39    91    94    1
    40    30    31    1
    41    30    24   am
    42    23    26    1
    43    23    24    1
    44   140   137    1
    45    26    27    1
    46    31    32    1
    47    92    93    2
    48    32    33    2
    49   158   156   ar
    50    94    95    1
    51    24    25    2
    52   142   143    1
    53   143   144    2
    54   138   137    1
    55   138   139    2
    56   136   137    1
    57    29    27    1
    58   145   144    1
    59    27    28    1
    60   144   146    1
    61   176   175    1
    62   156   155    1
    63   156   157   ar
    64    95    97   ar
    65    95    96   ar
    66   155   152    1
    67    97    99   ar
    68    96    98   ar
    69    76    75    1
    70   175   177    1
    71   175   174    1
    72    99   100   ar
    73   152   153    1
    74   152   151    1
    75    73    75   ar
    76    73    71   ar
    77    36    37    1
    78   153   154    2
    79   108   106    1
    80   151   149   am
    81    75    74   ar
    82    98   100   ar
    83   174   171    1
    84   105   106    1
    85   105   102    1
    86   147   148    1
    87   101   102    1
    88   106   107    1
    89   103   102    1
    90   103   104    2
    91    71    70   ar
    92    40    37    1
    93    40    41    1
    94    37    38    1
    95   149   148    1
    96   149   150    2
    97    74    72   ar
    98    38    39    2
    99    41    42    1
   100   171   170    1
   101   171   172    1
   102    70    72   ar
   103    70    69    1
   104   121   122    1
   105   121   118    1
   106   170   161   am
   107   172   173    2
   108    68    67    2
   109   166   168   ar
   110   166   164   ar
   111   168   169   ar
   112    43    42    1
   113    62    61    2
   114    66    69    1
   115    66    67    1
   116    66    65    1
   117   109   110    1
   118   163   164    1
   119   163   160    1
   120   119   118    1
   121   119   120    2
   122   118   117    1
   123   117   111   am
   124   164   165   ar
   125   159   160    1
   126   161   160    1
   127   161   162    2
   128    61    65   am
   129    61    60    1
   130   169   167   ar
   131    63    60    1
   132    63    64    1
   133    57    55    1
   134    58    56    1
   135   134   133    1
   136   110   111    1
   137   110   113    1
   138   111   112    2
   139   165   167   ar
   140   113   114    1
   141    60    59    1
   142    54    53    2
   143   133   135    1
   144   133   130    1
   145    56    55    1
   146    55    52    1
   147    52    53    1
   148    52    51    1
   149   114   116    1
   150   114   115    1
   151   192   191    1
   152   132   131    2
   153   193   191    1
   154   130   131    1
   155   130   129    1
   156   129   125   am
   157   191   190    1
   158   123   124    1
   159   190   187    1
   160   189   188    2
   161   125   124    1
   162   125   126    2
   163   185   184    1
   164   124   127    1
   165   183   184    1
   166   183   182    1
   167   127   128    1
   168   187   188    1
   169   187   186    1
   170   188   194   am
   171    47    46    2
   172    50    48    1
   173    45    46    1
   174    45    48    1
   175    45    44    1
   176    49    48    1
   177   182   179    1
   178   194   195    1
   179   200   198    1
   180   195   198    1
   181   195   196    1
   182   181   180    2
   183   179   180    1
   184   179   178    1
   185   198   199    1
   186   196   197    2
