@<TRIPOS>MOLECULE
tmp/3vw2D00.pdb
 194 182 0 0 0
SMALL
GASTEIGER

@<TRIPOS>ATOM
      1  N         -6.0190   -9.0830    5.6560 N.3    52  TYR52      -0.1241
      2  CA        -5.7750   -8.3470    6.8650 C.3    52  TYR52       0.1605
      3  C         -6.9270   -7.3940    7.2180 C.2    52  TYR52       0.2264
      4  O         -7.4310   -7.4280    8.3390 O.2    52  TYR52      -0.2867
      5  CB        -4.4530   -7.5750    6.7730 C.3    52  TYR52       0.0534
      6  CG        -4.1460   -6.8310    8.0260 C.ar   52  TYR52      -0.0201
      7  CD1       -3.8430   -7.5260    9.2150 C.ar   52  TYR52      -0.0009
      8  CD2       -4.1750   -5.4230    8.0560 C.ar   52  TYR52      -0.0009
      9  CE1       -3.5840   -6.8390   10.3920 C.ar   52  TYR52       0.0417
     10  CE2       -3.9010   -4.7220    9.2460 C.ar   52  TYR52       0.0417
     11  CZ        -3.6360   -5.4370   10.4190 C.ar   52  TYR52       0.1957
     12  OH        -3.3950   -4.7450   11.5880 O.3    52  TYR52      -0.2866
     13  N         -9.3980   -7.7920   10.3070 N.3    56  LYS56      -0.1245
     14  CA        -9.4340   -6.6850   11.1950 C.3    56  LYS56       0.1561
     15  C        -10.9250   -6.2340   11.3680 C.2    56  LYS56       0.2260
     16  O        -11.4120   -5.9660   12.4810 O.2    56  LYS56      -0.2867
     17  CB        -8.5680   -5.5760   10.6400 C.3    56  LYS56       0.0271
     18  CG        -8.3850   -4.3560   11.5100 C.3    56  LYS56       0.0035
     19  CD        -7.4710   -4.6080   12.7160 C.3    56  LYS56       0.0206
     20  CE        -7.5450   -3.3530   13.6680 C.3    56  LYS56       0.1093
     21  NZ        -7.0630   -3.6090   15.1240 N.3    56  LYS56      -0.1314
     22  N        -12.8470   -8.6510   13.5070 N.3    59  LEU59      -0.1245
     23  CA       -12.4790   -8.4390   14.9000 C.3    59  LEU59       0.1561
     24  C        -13.1400   -7.2180   15.4800 C.2    59  LEU59       0.2260
     25  O        -13.7510   -7.2870   16.5520 O.2    59  LEU59      -0.2867
     26  CB       -10.9720   -8.2890   14.9920 C.3    59  LEU59       0.0270
     27  CG       -10.5000   -7.7060   16.2850 C.3    59  LEU59       0.0019
     28  CD1      -10.6700   -8.7600   17.4800 C.3    59  LEU59       0.0001
     29  CD2       -9.0430   -7.2180   16.0970 C.3    59  LEU59       0.0001
     30  N        -16.1260   -6.3340   18.4410 N.3    63  MET63      -0.1245
     31  CA       -15.6260   -5.5790   19.6260 C.3    63  MET63       0.1570
     32  C        -16.4540   -4.3640   19.8410 C.2    63  MET63       0.2261
     33  O        -16.7440   -3.9910   20.9740 O.2    63  MET63      -0.2867
     34  CB       -14.1710   -5.0840   19.4730 C.3    63  MET63       0.0387
     35  CG       -13.1000   -6.1850   19.5620 C.3    63  MET63       0.0595
     36  SD       -11.3990   -5.5430   19.6640 S.3    63  MET63      -0.1393
     37  CE       -11.1360   -4.6790   18.0770 C.3    63  MET63       0.0692
     38  N         -9.4710    0.4420   27.5380 N.3    78  THR78      -0.1218
     39  CA        -8.4350   -0.4660   27.0260 C.3    78  THR78       0.1862
     40  C         -8.7010   -1.9060   27.4530 C.2    78  THR78       0.2287
     41  O         -8.5950   -2.8190   26.6400 O.2    78  THR78      -0.2866
     42  CB        -7.0760   -0.0410   27.4950 C.3    78  THR78       0.1770
     43  OG1       -6.8670    1.2850   27.0580 O.3    78  THR78      -0.2211
     44  CG2       -5.9940   -0.8950   26.8580 C.3    78  THR78       0.0375
     45  N        -11.4800   -3.5580   25.4370 N.3    81  ILE81      -0.1245
     46  CA       -10.8810   -3.8780   24.1450 C.3    81  ILE81       0.1561
     47  C        -10.0330   -5.1690   24.2570 C.2    81  ILE81       0.2260
     48  O        -10.1790   -6.0700   23.4170 O.2    81  ILE81      -0.2867
     49  CB        -9.9290   -2.7800   23.7270 C.3    81  ILE81       0.0252
     50  CG1      -10.5330   -1.3960   24.0260 C.3    81  ILE81       0.0019
     51  CG2       -9.5350   -2.9730   22.2750 C.3    81  ILE81       0.0019
     52  CD1      -11.9700   -1.1500   23.4500 C.3    81  ILE81       0.0001
     53  N        -10.6120   -8.6530   22.2560 N.3    85  TYR85      -0.1241
     54  CA        -9.5440   -9.2790   21.4600 C.3    85  TYR85       0.1605
     55  C         -9.3140  -10.7420   21.8620 C.2    85  TYR85       0.2264
     56  O         -9.3920  -11.7000   21.0270 O.2    85  TYR85      -0.2867
     57  CB        -8.1930   -8.4520   21.5060 C.3    85  TYR85       0.0534
     58  CG        -7.2530   -9.0760   20.5190 C.ar   85  TYR85      -0.0201
     59  CD1       -7.2630   -8.6710   19.1780 C.ar   85  TYR85      -0.0009
     60  CD2       -6.4670  -10.1400   20.8610 C.ar   85  TYR85      -0.0009
     61  CE1       -6.4540   -9.3020   18.2440 C.ar   85  TYR85       0.0417
     62  CE2       -5.6650  -10.7790   19.9190 C.ar   85  TYR85       0.0417
     63  CZ        -5.6380  -10.3440   18.6400 C.ar   85  TYR85       0.1957
     64  OH        -4.9740  -11.0890   17.7260 O.3    85  TYR85      -0.2866
     65  N         -4.0990  -13.1340   11.3290 N.3    99  ILE99      -0.1245
     66  CA        -3.9400  -11.6890   11.5800 C.3    99  ILE99       0.1561
     67  C         -2.6400  -11.3320   12.3490 C.2    99  ILE99       0.2260
     68  O         -1.9770  -10.3710   11.9940 O.2    99  ILE99      -0.2867
     69  CB        -5.2300  -11.1020   12.3220 C.3    99  ILE99       0.0252
     70  CG1       -5.3210   -9.6140   12.1350 C.3    99  ILE99       0.0019
     71  CG2       -5.2620  -11.4040   13.7730 C.3    99  ILE99       0.0019
     72  CD1       -4.1760   -8.8840   12.7880 C.3    99  ILE99       0.0001
     73  N         -0.2740   -8.8620   10.5070 N.3   103  ALA103     -0.1245
     74  CA        -0.0390   -7.5980   11.1540 C.3   103  ALA103      0.1562
     75  C          1.4410   -7.1870   11.0560 C.2   103  ALA103      0.2260
     76  O          1.7440   -6.0240   10.7590 O.2   103  ALA103     -0.2867
     77  CB        -0.4960   -7.6620   12.6000 C.3   103  ALA103      0.0290
     78  N        -10.2580    3.0860   19.2900 N.3   123  LEU123     -0.1245
     79  CA        -8.9900    2.4120   19.5790 C.3   123  LEU123      0.1561
     80  C         -7.8440    3.3210   19.1840 C.2   123  LEU123      0.2260
     81  O         -6.9860    3.6240   20.0020 O.2   123  LEU123     -0.2867
     82  CB        -8.8780    1.0520   18.8540 C.3   123  LEU123      0.0270
     83  CG        -7.6350    0.1530   19.0810 C.3   123  LEU123      0.0019
     84  CD1       -7.2940   -0.0180   20.5830 C.3   123  LEU123      0.0001
     85  CD2       -7.7700   -1.2150   18.3840 C.3   123  LEU123      0.0001
     86  N         -5.1500    4.7630   21.8910 N.3   127  CYS127     -0.1235
     87  CA        -3.7300    4.4750   21.7840 C.3   127  CYS127      0.1677
     88  C         -2.8950    5.7330   21.7750 C.2   127  CYS127      0.2270
     89  O         -1.8590    5.7970   22.4240 O.2   127  CYS127     -0.2867
     90  CB        -3.4510    3.6350   20.5380 C.3   127  CYS127      0.0956
     91  SG        -4.2540    2.0150   20.6200 S.3   127  CYS127     -0.0801
     92  N         -2.3910    6.8920   25.5020 N.3   130  SER130     -0.1202
     93  CA        -1.9130    5.9600   26.5120 C.3   130  SER130      0.2020
     94  C         -0.5790    5.3320   26.1760 C.2   130  SER130      0.2618
     95  O          0.3030    5.2530   27.0310 O.2   130  SER130     -0.2717
     96  CB        -2.9770    4.8870   26.7320 C.3   130  SER130      0.2103
     97  OG        -4.1340    5.4790   27.3530 O.3   130  SER130     -0.2182
     98  N         -0.4440    4.8930   24.9380 N.am  131  VAL131     -0.1979
     99  CA         0.7300    4.2000   24.4320 C.3   131  VAL131      0.1595
    100  C          2.0220    5.0380   24.4930 C.2   131  VAL131      0.2287
    101  O          2.0130    6.2200   24.1350 O.2   131  VAL131     -0.2864
    102  CB         0.5010    3.7280   22.9660 C.3   131  VAL131      0.0276
    103  CG1        1.6730    2.8960   22.4640 C.3   131  VAL131      0.0022
    104  CG2       -0.8040    2.8710   22.8890 C.3   131  VAL131      0.0022
    105  N          6.3660    3.5610   20.5930 N.3   135  PHE135     -0.1241
    106  CA         5.6390    2.4430   19.9850 C.3   135  PHE135      0.1605
    107  C          4.5990    3.0290   19.0250 C.2   135  PHE135      0.2264
    108  O          3.7840    2.3410   18.4700 O.2   135  PHE135     -0.2867
    109  CB         4.9870    1.5850   21.0650 C.3   135  PHE135      0.0534
    110  CG         5.9560    0.7110   21.8430 C.ar  135  PHE135     -0.0203
    111  CD1        6.8600   -0.1390   21.1910 C.ar  135  PHE135     -0.0042
    112  CD2        5.9130    0.6900   23.2290 C.ar  135  PHE135     -0.0042
    113  CE1        7.6890   -0.9520   21.8940 C.ar  135  PHE135     -0.0003
    114  CE2        6.7580   -0.1240   23.9510 C.ar  135  PHE135     -0.0003
    115  CZ         7.6530   -0.9570   23.2720 C.ar  135  PHE135     -0.0000
    116  N          6.2920    0.8990   15.5430 N.3   141  ARG141     -0.1245
    117  CA         4.8800    0.5850   15.6980 C.3   141  ARG141      0.1563
    118  C          4.6050   -0.9020   15.4530 C.2   141  ARG141      0.2260
    119  O          3.7960   -1.5000   16.1610 O.2   141  ARG141     -0.2867
    120  CB         4.0270    1.4470   14.7450 C.3   141  ARG141      0.0307
    121  CG         2.5750    0.9990   14.6000 C.3   141  ARG141      0.0489
    122  CD         1.8420    1.0340   15.9800 C.3   141  ARG141      0.2205
    123  NE         0.5000    0.4200   15.9460 N.pl3 141  ARG141     -0.0865
    124  CZ        -0.5440    0.9140   15.2520 C.cat 141  ARG141      0.5346
    125  NH1       -1.6990    0.2590   15.2920 N.pl3 141  ARG141      0.1354
    126  NH2       -0.4410    2.0460   14.5130 N.pl3 141  ARG141      0.1354
    127  N          5.5950   -2.7480   18.6420 N.3   144  GLY144     -0.1210
    128  CA         4.6620   -2.5780   19.7280 C.3   144  GLY144      0.1956
    129  C          3.4040   -3.4060   19.4780 C.2   144  GLY144      0.2611
    130  O          2.8370   -3.9600   20.4490 O.2   144  GLY144     -0.2717
    131  N          3.0340   -3.5690   18.2040 N.am  145  ASP145     -0.1973
    132  CA         1.9540   -4.4720   17.8330 C.3   145  ASP145      0.1709
    133  C          2.3560   -5.9010   18.0660 C.2   145  ASP145      0.2293
    134  O          1.5970   -6.6890   18.7090 O.2   145  ASP145     -0.2864
    135  CB         1.6200   -4.3150   16.3340 C.3   145  ASP145      0.1436
    136  CG         0.9880   -2.9530   16.0130 C.2   145  ASP145      0.3671
    137  OD1        0.7260   -2.1860   16.9350 O.co2 145  ASP145     -0.2456
    138  OD2        0.7950   -2.6290   14.8010 O.co2 145  ASP145     -0.2456
    139  N          2.1850   -6.5600   21.8680 N.3   148  PHE148     -0.1227
    140  CA         0.7910   -6.6730   22.2420 C.3   148  PHE148      0.1736
    141  C          0.2660   -8.0300   21.8270 C.2   148  PHE148      0.2595
    142  O         -0.1850   -8.8000   22.6460 O.2   148  PHE148     -0.2718
    143  CB        -0.0290   -5.5150   21.5620 C.3   148  PHE148      0.0547
    144  CG        -1.5010   -5.6330   21.8300 C.ar  148  PHE148     -0.0202
    145  CD1       -2.0650   -5.0460   22.9630 C.ar  148  PHE148     -0.0042
    146  CD2       -2.2840   -6.3600   20.9910 C.ar  148  PHE148     -0.0042
    147  CE1       -3.3690   -5.1990   23.2750 C.ar  148  PHE148     -0.0003
    148  CE2       -3.6770   -6.5220   21.3040 C.ar  148  PHE148     -0.0003
    149  CZ        -4.2040   -5.9330   22.4290 C.ar  148  PHE148     -0.0000
    150  N          0.4080   -8.3560   20.5360 N.am  149  LEU149     -0.1980
    151  CA         0.0050   -9.6360   19.9530 C.3   149  LEU149      0.1596
    152  C          0.6030  -10.8540   20.6150 C.2   149  LEU149      0.2287
    153  O         -0.0990  -11.8830   20.8780 O.2   149  LEU149     -0.2864
    154  CB         0.4210   -9.6420   18.4830 C.3   149  LEU149      0.0297
    155  CG        -0.4990   -9.1620   17.3760 C.3   149  LEU149      0.0022
    156  CD1       -1.5550   -8.2370   17.7980 C.3   149  LEU149      0.0001
    157  CD2        0.2770   -8.6440   16.1210 C.3   149  LEU149      0.0001
    158  N          0.4280   -6.2980   29.8820 N.3   177  MET177     -0.1230
    159  CA         0.5130   -5.5980   28.5800 C.3   177  MET177      0.1702
    160  C          0.4310   -4.1260   28.8130 C.2   177  MET177      0.2592
    161  O          1.1830   -3.3300   28.2010 O.2   177  MET177     -0.2718
    162  CB        -0.5680   -6.0970   27.6520 C.3   177  MET177      0.0401
    163  CG        -0.8100   -5.3420   26.3330 C.3   177  MET177      0.0596
    164  SD        -1.8130   -3.8360   26.5280 S.3   177  MET177     -0.1393
    165  CE        -0.6910   -2.5320   26.3320 C.3   177  MET177      0.0692
    166  N         -0.4390   -3.7210   29.7510 N.am  178  TRP178     -0.1976
    167  CA        -0.6290   -2.2990   29.9840 C.3   178  TRP178      0.1640
    168  C          0.6480   -1.6890   30.5770 C.2   178  TRP178      0.2290
    169  O          1.0570   -0.6050   30.2120 O.2   178  TRP178     -0.2864
    170  CB        -1.8220   -2.0820   30.9430 C.3   178  TRP178      0.0576
    171  CG        -2.0750   -0.7020   31.3410 C.ar  178  TRP178      0.0006
    172  CD1       -1.7120   -0.0860   32.5410 C.ar  178  TRP178      0.0946
    173  CD2       -2.8280    0.2720   30.6030 C.ar  178  TRP178      0.0152
    174  NE1       -2.1730    1.2440   32.5410 N.ar  178  TRP178     -0.2442
    175  CE2       -2.8760    1.4650   31.3760 C.ar  178  TRP178      0.0810
    176  CE3       -3.5110    0.2350   29.3890 C.ar  178  TRP178      0.0012
    177  CZ2       -3.5300    2.5690   30.9610 C.ar  178  TRP178      0.0191
    178  CZ3       -4.1300    1.3640   28.9580 C.ar  178  TRP178      0.0001
    179  CH2       -4.1410    2.5170   29.7490 C.ar  178  TRP178      0.0015
    180  N          3.3290   -1.4590   27.4900 N.3   181  LEU181     -0.1231
    181  CA         3.1230   -0.5710   26.3660 C.3   181  LEU181      0.1693
    182  C          2.6090    0.8440   26.6640 C.2   181  LEU181      0.2592
    183  O          2.5620    1.6820   25.7360 O.2   181  LEU181     -0.2718
    184  CB         2.1630   -1.2370   25.3790 C.3   181  LEU181      0.0284
    185  CG         2.5150   -2.6690   24.9400 C.3   181  LEU181      0.0019
    186  CD1        1.4750   -3.1770   23.8880 C.3   181  LEU181      0.0001
    187  CD2        3.9410   -2.7870   24.3720 C.3   181  LEU181      0.0001
    188  N          2.2000    1.1360   27.9020 N.am  182  THR182     -0.1953
    189  CA         1.6630    2.4690   28.1340 C.3   182  THR182      0.1897
    190  C          2.5120    3.3860   29.0070 C.2   182  THR182      0.2313
    191  O          3.5140    2.9750   29.6030 O.2   182  THR182     -0.2863
    192  CB         0.2320    2.4420   28.7100 C.3   182  THR182      0.1794
    193  OG1        0.2480    2.0260   30.1000 O.3   182  THR182     -0.2208
    194  CG2       -0.6670    1.5180   27.8070 C.3   182  THR182      0.0378
@<TRIPOS>BOND
     1     1     2    1
     2     5     2    1
     3     5     6    1
     4     2     3    1
     5     3     4    2
     6     6     8   ar
     7     6     7   ar
     8     8    10   ar
     9     7     9   ar
    10    10    11   ar
    11    13    14    1
    12     9    11   ar
    13    11    12    1
    14    73    74    1
    15    17    14    1
    16    17    18    1
    17    76    75    2
    18    75    74    1
    19    74    77    1
    20    14    15    1
    21    65    66    1
    22    15    16    2
    23    18    19    1
    24    66    69    1
    25    66    67    1
    26    68    67    2
    27    70    69    1
    28    70    72    1
    29    69    71    1
    30    19    20    1
    31    22    23    1
    32    20    21    1
    33   126   124    1
    34   121   120    1
    35   121   122    1
    36   120   117    1
    37   138   136   ar
    38    23    26    1
    39    23    24    1
    40    26    27    1
    41   124   125    1
    42   124   123    2
    43   118   117    1
    44   118   119    2
    45    24    25    2
    46   116   117    1
    47   123   122    1
    48   136   135    1
    49   136   137   ar
    50    29    27    1
    51   157   155    1
    52    27    28    1
    53   135   132    1
    54   155   156    1
    55   155   154    1
    56    64    63    1
    57   132   133    1
    58   132   131    1
    59   133   134    2
    60    37    36    1
    61   131   129   am
    62    61    63   ar
    63    61    59   ar
    64    85    83    1
    65    30    31    1
    66   108   107    2
    67   154   151    1
    68    63    62   ar
    69   127   128    1
    70    82    83    1
    71    82    79    1
    72   107   106    1
    73    83    84    1
    74    59    58   ar
    75    80    79    1
    76    80    81    2
    77    78    79    1
    78    34    35    1
    79    34    31    1
    80   129   128    1
    81   129   130    2
    82    35    36    1
    83    31    32    1
    84    32    33    2
    85    62    60   ar
    86   151   150    1
    87   151   152    1
    88   106   105    1
    89   106   109    1
    90    58    60   ar
    91    58    57    1
    92   150   141   am
    93    90    91    1
    94    90    87    1
    95   152   153    2
    96   146   148   ar
    97   146   144   ar
    98    56    55    2
    99   109   110    1
   100   111   110   ar
   101   111   113   ar
   102   148   149   ar
   103    54    57    1
   104    54    55    1
   105    54    53    1
   106   143   144    1
   107   143   140    1
   108    88    87    1
   109    88    89    2
   110    87    86    1
   111   141   140    1
   112   141   142    2
   113   144   145   ar
   114   110   112   ar
   115   139   140    1
   116   113   115   ar
   117    51    49    1
   118   149   147   ar
   119   103   102    1
   120   104   102    1
   121   145   147   ar
   122   102    99    1
   123   112   114   ar
   124   115   114   ar
   125    48    47    2
   126    52    50    1
   127    49    50    1
   128    49    46    1
   129   186   185    1
   130   101   100    2
   131    46    47    1
   132    46    45    1
   133   187   185    1
   134    99   100    1
   135    99    98    1
   136    98    94   am
   137   185   184    1
   138   184   181    1
   139    92    93    1
   140   183   182    2
   141    94    93    1
   142    94    95    2
   143   165   164    1
   144   163   164    1
   145   163   162    1
   146   181   182    1
   147   181   180    1
   148    93    96    1
   149    41    40    2
   150   182   188   am
   151    96    97    1
   152    44    42    1
   153    39    40    1
   154    39    42    1
   155    39    38    1
   156    43    42    1
   157   162   159    1
   158   194   192    1
   159   188   189    1
   160   189   192    1
   161   189   190    1
   162   161   160    2
   163   159   160    1
   164   159   158    1
   165   192   193    1
   166   160   166   am
   167   178   176   ar
   168   178   179   ar
   169   190   191    2
   170   176   173   ar
   171   179   177   ar
   172   166   167    1
   173   167   168    1
   174   167   170    1
   175   169   168    2
   176   173   171   ar
   177   173   175   ar
   178   170   171    1
   179   177   175   ar
   180   171   172   ar
   181   175   174   ar
   182   174   172   ar
