@<TRIPOS>MOLECULE
tmp/3vw9B01.pdb
 105 99 0 0 0
SMALL
GASTEIGER

@<TRIPOS>ATOM
      1  N         19.2070   -3.4720  -11.3810 N.3   119  HIS119     -0.1241
      2  CA        20.3060   -3.0500  -12.2410 C.3   119  HIS119      0.1621
      3  C         20.9070   -4.2040  -13.0090 C.2   119  HIS119      0.2264
      4  O         20.6740   -5.3750  -12.6760 O.2   119  HIS119     -0.2867
      5  CB        21.4520   -2.4010  -11.3590 C.3   119  HIS119      0.0745
      6  CG        21.9730   -3.2370  -10.2100 C.ar  119  HIS119      0.0817
      7  ND1       21.4750   -3.0850   -8.9190 N.ar  119  HIS119     -0.2268
      8  CD2       22.9920   -4.1390  -10.1780 C.ar  119  HIS119      0.1154
      9  CE1       22.1730   -3.9240   -8.1540 C.ar  119  HIS119      0.1986
     10  NE2       23.0890   -4.5900   -8.8640 N.ar  119  HIS119     -0.2212
     11  N         24.9680    7.6510  -10.5040 N.3   142  VAL142     -0.1231
     12  CA        24.1200    7.4520   -9.3170 C.3   142  VAL142      0.1692
     13  C         25.0680    7.4410   -8.0940 C.2   142  VAL142      0.2591
     14  O         24.7570    8.0320   -7.0440 O.2   142  VAL142     -0.2718
     15  CB        23.3200    6.1340   -9.4480 C.3   142  VAL142      0.0266
     16  CG1       22.7510    5.6770   -8.1150 C.3   142  VAL142      0.0020
     17  CG2       22.2030    6.3000  -10.4630 C.3   142  VAL142      0.0020
     18  N         26.2220    6.7560   -8.2390 N.am  143  LYS143     -0.1980
     19  CA        27.2270    6.6380   -7.1890 C.3   143  LYS143      0.1596
     20  C         28.5930    6.6330   -7.8390 C.2   143  LYS143      0.2287
     21  O         28.8970    5.7350   -8.6470 O.2   143  LYS143     -0.2864
     22  CB        27.0020    5.3320   -6.3840 C.3   143  LYS143      0.0298
     23  CG        27.9760    5.1140   -5.2110 C.3   143  LYS143      0.0038
     24  CD        28.0870    3.6240   -4.8660 C.3   143  LYS143      0.0206
     25  CE        29.0440    3.3140   -3.7010 C.3   143  LYS143      0.1093
     26  NZ        30.4160    3.8510   -3.9040 N.3   143  LYS143     -0.1314
     27  N         30.7170    2.1410    0.5830 N.3   150  MET150     -0.1245
     28  CA        31.4600    1.1430   -0.1750 C.3   150  MET150      0.1570
     29  C         32.3770    1.7220   -1.2370 C.2   150  MET150      0.2261
     30  O         31.9210    2.1860   -2.2790 O.2   150  MET150     -0.2867
     31  CB        30.4860    0.1190   -0.7460 C.3   150  MET150      0.0387
     32  CG        31.1620   -1.1300   -1.1830 C.3   150  MET150      0.0595
     33  SD        29.8900   -2.2550   -1.7770 S.3   150  MET150     -0.1393
     34  CE        29.1520   -2.7780   -0.2540 C.3   150  MET150      0.0692
     35  N         33.3260    0.9960   -5.9810 N.3   153  LEU153     -0.1245
     36  CA        32.1360    0.4190   -6.6050 C.3   153  LEU153      0.1561
     37  C         31.2760    1.5740   -7.0730 C.2   153  LEU153      0.2260
     38  O         31.0060    2.4870   -6.2950 O.2   153  LEU153     -0.2867
     39  CB        31.3770   -0.4690   -5.5830 C.3   153  LEU153      0.0270
     40  CG        30.2120   -1.3920   -6.0520 C.3   153  LEU153      0.0019
     41  CD1       28.9000   -0.7040   -6.1520 C.3   153  LEU153      0.0001
     42  CD2       30.5260   -2.1500   -7.2590 C.3   153  LEU153      0.0001
     43  N         27.8390    3.2040   -9.6510 N.3   155  PHE155     -0.1241
     44  CA        26.5860    2.9830  -10.3770 C.3   155  PHE155      0.1605
     45  C         26.4300    4.1370  -11.3250 C.2   155  PHE155      0.2264
     46  O         26.4900    5.3000  -10.9030 O.2   155  PHE155     -0.2867
     47  CB        25.3320    2.9120   -9.4960 C.3   155  PHE155      0.0534
     48  CG        25.1800    1.6490   -8.6970 C.ar  155  PHE155     -0.0203
     49  CD1       25.8010    1.5140   -7.4640 C.ar  155  PHE155     -0.0042
     50  CD2       24.4040    0.5900   -9.1720 C.ar  155  PHE155     -0.0042
     51  CE1       25.6440    0.3510   -6.7140 C.ar  155  PHE155     -0.0003
     52  CE2       24.2530   -0.5770   -8.4160 C.ar  155  PHE155     -0.0003
     53  CZ        24.8800   -0.6880   -7.1950 C.ar  155  PHE155     -0.0000
     54  N         19.8880    1.7340  -13.9610 N.3   163  TRP163     -0.1241
     55  CA        21.1430    1.7020  -13.2230 C.3   163  TRP163      0.1605
     56  C         22.0550    0.5740  -13.7220 C.2   163  TRP163      0.2264
     57  O         21.6100   -0.5470  -14.0040 O.2   163  TRP163     -0.2867
     58  CB        20.8630    1.4620  -11.7470 C.3   163  TRP163      0.0550
     59  CG        20.2260    2.6260  -11.0400 C.ar  163  TRP163      0.0003
     60  CD1       19.6490    3.7340  -11.6010 C.ar  163  TRP163      0.0946
     61  CD2       20.1390    2.8030   -9.6190 C.ar  163  TRP163      0.0152
     62  NE1       19.1570    4.5620  -10.6080 N.ar  163  TRP163     -0.2442
     63  CE2       19.4570    4.0190   -9.3870 C.ar  163  TRP163      0.0810
     64  CE3       20.4970    2.0080   -8.5180 C.ar  163  TRP163      0.0012
     65  CZ2       19.1660    4.4790   -8.0940 C.ar  163  TRP163      0.0191
     66  CZ3       20.2360    2.4820   -7.2370 C.ar  163  TRP163      0.0001
     67  CH2       19.5560    3.6910   -7.0420 C.ar  163  TRP163      0.0015
     68  N         25.6970   -1.1320  -12.5080 N.3   165  GLU165     -0.1245
     69  CA        26.7570   -1.2720  -11.5110 C.3   165  GLU165      0.1567
     70  C         28.0760   -1.4610  -12.2420 C.2   165  GLU165      0.2260
     71  O         28.1320   -2.1740  -13.2560 O.2   165  GLU165     -0.2867
     72  CB        26.4860   -2.4990  -10.6360 C.3   165  GLU165      0.0388
     73  CG        27.4060   -2.5880   -9.4240 C.3   165  GLU165      0.1160
     74  CD        27.0870   -3.7940   -8.5750 C.2   165  GLU165      0.3649
     75  OE1       25.8850   -4.0360   -8.3350 O.co2 165  GLU165     -0.2457
     76  OE2       28.0290   -4.5150   -8.1730 O.co2 165  GLU165     -0.2457
     77  N         31.7530   -2.8150  -11.2770 N.3   167  LEU167     -0.1245
     78  CA        32.4450   -3.4850  -10.1800 C.3   167  LEU167      0.1561
     79  C         33.7330   -4.1320  -10.6410 C.2   167  LEU167      0.2260
     80  O         33.8530   -4.5170  -11.7990 O.2   167  LEU167     -0.2867
     81  CB        31.5220   -4.5640   -9.5620 C.3   167  LEU167      0.0270
     82  CG        31.0710   -5.6950  -10.4960 C.3   167  LEU167      0.0019
     83  CD1       31.2000   -7.0520   -9.8070 C.3   167  LEU167      0.0001
     84  CD2       29.6390   -5.4630  -11.0480 C.3   167  LEU167      0.0001
     85  N         36.6190   -6.1160   -4.2630 N.3   172  MET172     -0.1230
     86  CA        35.3160   -5.9300   -3.6320 C.3   172  MET172      0.1702
     87  C         35.5700   -5.5860   -2.1630 C.2   172  MET172      0.2592
     88  O         36.6440   -5.9010   -1.6370 O.2   172  MET172     -0.2718
     89  CB        34.4400   -7.1930   -3.7310 C.3   172  MET172      0.0401
     90  CG        34.0950   -7.6370   -5.1570 C.3   172  MET172      0.0596
     91  SD        33.3650   -6.3860   -6.2710 S.3   172  MET172     -0.1393
     92  CE        31.7770   -6.1200   -5.5440 C.3   172  MET172      0.0692
     93  N         34.5990   -4.9340   -1.5110 N.am  173  ALA173     -0.1980
     94  CA        34.6910   -4.5560   -0.0950 C.3   173  ALA173      0.1597
     95  C         34.6370   -5.8000    0.8010 C.2   173  ALA173      0.2287
     96  O         34.0040   -6.7920    0.4300 O.2   173  ALA173     -0.2864
     97  CB        33.5470   -3.6180    0.2590 C.3   173  ALA173      0.0319
     98  N         33.3990   -8.2850    3.6090 N.3   175  LEU175     -0.1245
     99  CA        32.0880   -8.6110    4.1850 C.3   175  LEU175      0.1561
    100  C         32.1970   -8.7610    5.7080 C.2   175  LEU175      0.2260
    101  O         33.1640   -9.3540    6.1950 O.2   175  LEU175     -0.2867
    102  CB        31.5100   -9.9070    3.5760 C.3   175  LEU175      0.0270
    103  CG        31.1170   -9.9020    2.0910 C.3   175  LEU175      0.0019
    104  CD1       30.5630  -11.2530    1.6790 C.3   175  LEU175      0.0001
    105  CD2       30.0780   -8.8590    1.8000 C.3   175  LEU175      0.0001
@<TRIPOS>BOND
     1    57    56    2
     2    54    55    1
     3    56    55    1
     4    71    70    2
     5    55    58    1
     6     3     4    2
     7     3     2    1
     8    68    69    1
     9    70    69    1
    10     2     1    1
    11     2     5    1
    12    80    79    2
    13    58    59    1
    14    60    59   ar
    15    60    62   ar
    16    69    72    1
    17     5     6    1
    18    45    46    2
    19    45    44    1
    20    77    78    1
    21    84    82    1
    22    59    61   ar
    23    79    78    1
    24    72    73    1
    25    62    63   ar
    26    11    12    1
    27    82    83    1
    28    82    81    1
    29    17    15    1
    30    44    43    1
    31    44    47    1
    32     6     8   ar
    33     6     7   ar
    34    78    81    1
    35     8    10   ar
    36    61    63   ar
    37    61    64   ar
    38    47    48    1
    39    15    12    1
    40    15    16    1
    41    73    74    1
    42    63    65   ar
    43    12    13    1
    44    50    48   ar
    45    50    52   ar
    46     7     9   ar
    47    10     9   ar
    48    48    49   ar
    49    21    20    2
    50    74    75   ar
    51    74    76   ar
    52    64    66   ar
    53    52    53   ar
    54    18    13   am
    55    18    19    1
    56    13    14    2
    57    65    67   ar
    58    20    19    1
    59    49    51   ar
    60    42    40    1
    61    66    67   ar
    62    53    51   ar
    63    19    22    1
    64    37    36    1
    65    37    38    2
    66    36    35    1
    67    36    39    1
    68    22    23    1
    69    91    92    1
    70    91    90    1
    71    41    40    1
    72    40    39    1
    73    23    24    1
    74    90    89    1
    75    24    25    1
    76    85    86    1
    77    26    25    1
    78    89    86    1
    79    86    87    1
    80    30    29    2
    81    87    88    2
    82    87    93   am
    83    33    32    1
    84    33    34    1
    85    93    94    1
    86    29    28    1
    87    32    31    1
    88    31    28    1
    89    28    27    1
    90    94    97    1
    91    94    95    1
    92    96    95    2
    93   104   103    1
    94   105   103    1
    95   103   102    1
    96   102    99    1
    97    98    99    1
    98    99   100    1
    99   100   101    2
