@<TRIPOS>MOLECULE
tmp/3vw9B00.pdb
 97 89 0 0 0
SMALL
GASTEIGER

@<TRIPOS>ATOM
      1  N         19.8100  -13.8960  -21.8660 N.3    26  GLN26      -0.1245
      2  CA        19.4890  -12.4850  -22.0810 C.3    26  GLN26       0.1566
      3  C         18.8360  -11.8470  -20.8800 C.2    26  GLN26       0.2260
      4  O         18.1910  -12.5220  -20.0530 O.2    26  GLN26      -0.2867
      5  CB        18.5180  -12.3530  -23.2880 C.3    26  GLN26       0.0367
      6  CG        17.3070  -13.2750  -23.1870 C.3    26  GLN26       0.0905
      7  CD        16.3000  -13.0290  -24.2700 C.2    26  GLN26       0.2608
      8  OE1       15.2170  -12.5130  -23.9930 O.2    26  GLN26      -0.2717
      9  NE2       16.6190  -13.4100  -25.5080 N.am   26  GLN26      -0.0878
     10  N         16.2340   -8.4600  -20.7550 N.3    28  MET28      -0.1245
     11  CA        15.5320   -7.4880  -21.6010 C.3    28  MET28       0.1570
     12  C         15.1410   -6.2240  -20.8580 C.2    28  MET28       0.2261
     13  O         14.5530   -6.2810  -19.7630 O.2    28  MET28      -0.2867
     14  CB        14.2770   -8.1380  -22.2090 C.3    28  MET28       0.0387
     15  CG        13.5520   -7.2860  -23.2700 C.3    28  MET28       0.0595
     16  SD        12.5480   -5.9160  -22.6290 S.3    28  MET28      -0.1393
     17  CE        10.8650   -6.5420  -22.8420 C.3    28  MET28       0.0692
     18  N         16.2360   -7.4050  -34.7700 N.3    53  CYS53      -0.1235
     19  CA        15.0440   -8.0930  -35.2950 C.3    53  CYS53       0.1677
     20  C         13.8840   -7.1430  -35.2700 C.2    53  CYS53       0.2270
     21  O         13.6390   -6.5090  -34.2520 O.2    53  CYS53      -0.2867
     22  CB        14.7350   -9.3410  -34.4730 C.3    53  CYS53       0.0956
     23  SG        16.0430  -10.5820  -34.5160 S.3    53  CYS53      -0.0801
     24  N          9.6900   -6.6200  -35.8830 N.3    55  PHE55      -0.1241
     25  CA         8.4150   -7.3340  -35.8620 C.3    55  PHE55       0.1605
     26  C          7.3070   -6.3470  -36.2760 C.2    55  PHE55       0.2264
     27  O          6.7740   -5.6210  -35.4280 O.2    55  PHE55      -0.2867
     28  CB         8.1790   -7.9570  -34.4730 C.3    55  PHE55       0.0534
     29  CG         9.2400   -8.9540  -34.0790 C.ar   55  PHE55      -0.0203
     30  CD1       10.4170   -8.5370  -33.4650 C.ar   55  PHE55      -0.0042
     31  CD2        9.0800  -10.3100  -34.3490 C.ar   55  PHE55      -0.0042
     32  CE1       11.4150   -9.4570  -33.1320 C.ar   55  PHE55      -0.0003
     33  CE2       10.0710  -11.2310  -33.9980 C.ar   55  PHE55      -0.0003
     34  CZ        11.2390  -10.7960  -33.3990 C.ar   55  PHE55      -0.0000
     35  N          3.8670   -6.8080  -34.3720 N.3    58  MET58      -0.1245
     36  CA         4.0150   -6.5940  -32.9280 C.3    58  MET58       0.1570
     37  C          4.3550   -5.1030  -32.6760 C.2    58  MET58       0.2261
     38  O          4.1920   -4.6160  -31.5560 O.2    58  MET58      -0.2867
     39  CB         5.1250   -7.4970  -32.3580 C.3    58  MET58       0.0387
     40  CG         4.8670   -8.9840  -32.5400 C.3    58  MET58       0.0595
     41  SD         4.0630   -9.7000  -31.0980 S.3    58  MET58      -0.1393
     42  CE         5.4510  -10.2780  -30.2130 C.3    58  MET58       0.0692
     43  N          7.4190   -3.5630  -32.9110 N.3    60  PHE60      -0.1241
     44  CA         8.6360   -3.3590  -32.1290 C.3    60  PHE60       0.1605
     45  C          9.8770   -3.8980  -32.7990 C.2    60  PHE60       0.2264
     46  O          9.8150   -4.7290  -33.7270 O.2    60  PHE60      -0.2867
     47  CB         8.5110   -3.8690  -30.6680 C.3    60  PHE60       0.0534
     48  CG         8.3430   -5.3520  -30.4030 C.ar   60  PHE60      -0.0203
     49  CD1        9.3420   -6.2570  -30.7440 C.ar   60  PHE60      -0.0042
     50  CD2        7.2770   -5.8170  -29.6440 C.ar   60  PHE60      -0.0042
     51  CE1        9.2110   -7.6200  -30.4510 C.ar   60  PHE60      -0.0003
     52  CE2        7.1600   -7.1740  -29.3210 C.ar   60  PHE60      -0.0003
     53  CZ         8.1290   -8.0660  -29.7270 C.ar   60  PHE60      -0.0000
     54  N         13.8320   -5.5070  -31.7160 N.3    62  LEU62      -0.1245
     55  CA        14.6810   -6.0560  -30.6560 C.3    62  LEU62       0.1561
     56  C         16.1290   -5.8780  -31.0610 C.2    62  LEU62       0.2260
     57  O         16.5020   -6.2450  -32.1810 O.2    62  LEU62      -0.2867
     58  CB        14.4150   -7.5560  -30.4010 C.3    62  LEU62       0.0270
     59  CG        12.9640   -7.9590  -30.1100 C.3    62  LEU62       0.0019
     60  CD1       12.8680   -9.4640  -29.9000 C.3    62  LEU62       0.0001
     61  CD2       12.4110   -7.2290  -28.8730 C.3    62  LEU62       0.0001
     62  N         20.0010   -6.8860  -29.8430 N.3    64  PHE64      -0.1241
     63  CA        20.7890   -7.7400  -28.9540 C.3    64  PHE64       0.1605
     64  C         22.2080   -7.2140  -28.9190 C.2    64  PHE64       0.2264
     65  O         22.8760   -7.1450  -29.9700 O.2    64  PHE64      -0.2867
     66  CB        20.7600   -9.1980  -29.4310 C.3    64  PHE64       0.0534
     67  CG        19.3800   -9.7850  -29.3030 C.ar   64  PHE64      -0.0203
     68  CD1       18.4510   -9.6430  -30.3310 C.ar   64  PHE64      -0.0042
     69  CD2       18.9760  -10.3940  -28.1210 C.ar   64  PHE64      -0.0042
     70  CE1       17.1490  -10.1310  -30.1910 C.ar   64  PHE64      -0.0003
     71  CE2       17.6800  -10.8850  -27.9860 C.ar   64  PHE64      -0.0003
     72  CZ        16.7620  -10.7090  -29.0040 C.ar   64  PHE64      -0.0000
     73  N         21.1040  -15.3300  -36.4340 N.3    81  ILE81      -0.1245
     74  CA        20.1140  -15.4080  -35.3510 C.3    81  ILE81       0.1561
     75  C         20.4720  -16.5210  -34.3720 C.2    81  ILE81       0.2260
     76  O         20.4890  -16.2790  -33.1540 O.2    81  ILE81      -0.2867
     77  CB        18.6680  -15.5620  -35.9130 C.3    81  ILE81       0.0252
     78  CG1       18.1870  -14.2180  -36.4920 C.3    81  ILE81       0.0019
     79  CG2       17.6860  -16.0840  -34.8360 C.3    81  ILE81       0.0019
     80  CD1       16.8580  -14.3300  -37.3170 C.3    81  ILE81       0.0001
     81  N         21.4820  -15.5680  -30.5240 N.3    85  LEU85      -0.1245
     82  CA        20.5510  -16.0420  -29.4940 C.3    85  LEU85       0.1561
     83  C         21.0870  -17.1990  -28.6520 C.2    85  LEU85       0.2260
     84  O         20.4040  -17.6510  -27.7300 O.2    85  LEU85      -0.2867
     85  CB        19.1470  -16.3120  -30.0650 C.3    85  LEU85       0.0270
     86  CG        18.2190  -15.0920  -30.3070 C.3    85  LEU85       0.0019
     87  CD1       17.7910  -14.4370  -28.9910 C.3    85  LEU85       0.0001
     88  CD2       18.8450  -14.0240  -31.2480 C.3    85  LEU85       0.0001
     89  N         19.0940   -7.4860  -24.2380 N.3    92  GLU92      -0.1245
     90  CA        18.0920   -7.2980  -25.2640 C.3    92  GLU92       0.1567
     91  C         17.3850   -5.9560  -25.0010 C.2    92  GLU92       0.2260
     92  O         16.7950   -5.7670  -23.9390 O.2    92  GLU92      -0.2867
     93  CB        17.0970   -8.4520  -25.2440 C.3    92  GLU92       0.0388
     94  CG        15.9490   -8.2730  -26.2200 C.3    92  GLU92       0.1160
     95  CD        14.8250   -9.2570  -25.9700 C.2    92  GLU92       0.3649
     96  OE1       14.9840  -10.1310  -25.0890 O.co2  92  GLU92      -0.2457
     97  OE2       13.8160   -9.1990  -26.7010 O.co2  92  GLU92      -0.2457
@<TRIPOS>BOND
     1    80    78    1
     2    78    77    1
     3    73    74    1
     4    26    25    1
     5    26    27    2
     6    77    74    1
     7    77    79    1
     8    24    25    1
     9    25    28    1
    10    74    75    1
    11    19    20    1
    12    19    18    1
    13    19    22    1
    14    20    21    2
    15    23    22    1
    16    28    29    1
    17    75    76    2
    18    35    36    1
    19    31    29   ar
    20    31    33   ar
    21    29    30   ar
    22    33    34   ar
    23    46    45    2
    24    30    32   ar
    25    34    32   ar
    26    36    37    1
    27    36    39    1
    28    43    44    1
    29    45    44    1
    30    37    38    2
    31    40    39    1
    32    40    41    1
    33    57    56    2
    34    44    47    1
    35    54    55    1
    36    88    86    1
    37    41    42    1
    38    56    55    1
    39    49    51   ar
    40    49    48   ar
    41    47    48    1
    42    55    58    1
    43    81    82    1
    44    51    53   ar
    45    48    50   ar
    46    58    59    1
    47    68    70   ar
    48    68    67   ar
    49    86    85    1
    50    86    87    1
    51    70    72   ar
    52    59    60    1
    53    59    61    1
    54    85    82    1
    55    65    64    2
    56    62    63    1
    57    53    52   ar
    58    50    52   ar
    59    82    83    1
    60    66    67    1
    61    66    63    1
    62    67    69   ar
    63    72    71   ar
    64    63    64    1
    65    83    84    2
    66    69    71   ar
    67    97    95   ar
    68    94    95    1
    69    94    93    1
    70    95    96   ar
    71     9     7   am
    72    90    93    1
    73    90    91    1
    74    90    89    1
    75    91    92    2
    76     7     8    2
    77     7     6    1
    78     5     6    1
    79     5     2    1
    80    15    16    1
    81    15    14    1
    82    17    16    1
    83    14    11    1
    84     2     1    1
    85     2     3    1
    86    11    12    1
    87    11    10    1
    88     3     4    2
    89    12    13    2
