@<TRIPOS>MOLECULE
tmp/3vwdA00.pdb
 241 241 0 0 0
SMALL
GASTEIGER

@<TRIPOS>ATOM
      1  N        -26.6850    3.4010   -3.1550 N.3    58  ALA58      -0.1231
      2  CA       -25.3390    2.9000   -3.4330 C.3    58  ALA58       0.1694
      3  C        -24.5740    2.6270   -2.1400 C.2    58  ALA58       0.2591
      4  O        -23.8110    1.6580   -2.0440 O.2    58  ALA58      -0.2718
      5  CB       -24.5850    3.8910   -4.3020 C.3    58  ALA58       0.0304
      6  N        -24.7860    3.4860   -1.1490 N.am   59  GLN59      -0.1979
      7  CA       -24.0600    3.4180    0.1080 C.3    59  GLN59       0.1601
      8  C        -24.7730    2.6240    1.1970 C.2    59  GLN59       0.2287
      9  O        -24.2990    2.5740    2.3290 O.2    59  GLN59      -0.2864
     10  CB       -23.7790    4.8240    0.6280 C.3    59  GLN59       0.0394
     11  CG       -22.8580    5.6290   -0.2480 C.3    59  GLN59       0.0908
     12  CD       -22.5180    6.9390    0.3880 C.2    59  GLN59       0.2608
     13  OE1      -21.8690    6.9800    1.4270 O.2    59  GLN59      -0.2717
     14  NE2      -22.9710    8.0210   -0.2180 N.am   59  GLN59      -0.0878
     15  N        -28.3060   11.4320    2.6590 N.3    65  ILE65      -0.1245
     16  CA       -27.5380   12.4750    3.3250 C.3    65  ILE65       0.1561
     17  C        -27.4760   13.7540    2.4830 C.2    65  ILE65       0.2260
     18  O        -27.0340   14.7960    2.9670 O.2    65  ILE65      -0.2867
     19  CB       -26.1230   11.9810    3.7190 C.3    65  ILE65       0.0252
     20  CG1      -25.3490   11.4870    2.4930 C.3    65  ILE65       0.0019
     21  CG2      -26.2210   10.8960    4.7930 C.3    65  ILE65       0.0019
     22  CD1      -23.9090   11.0430    2.7930 C.3    65  ILE65       0.0001
     23  N        -15.2500   16.3120    2.3960 N.3   120  ILE120     -0.1231
     24  CA       -15.9890   15.5610    1.3950 C.3   120  ILE120      0.1692
     25  C        -17.1580   14.8830    2.1060 C.2   120  ILE120      0.2592
     26  O        -16.9580   14.0570    3.0050 O.2   120  ILE120     -0.2718
     27  CB       -15.0980   14.5220    0.6830 C.3   120  ILE120      0.0266
     28  CG1      -13.8100   15.1770    0.1520 C.3   120  ILE120      0.0019
     29  CG2      -15.8950   13.7980   -0.4100 C.3   120  ILE120      0.0020
     30  CD1      -14.0220   16.3360   -0.7980 C.3   120  ILE120      0.0001
     31  N        -18.3760   15.2470    1.7150 N.am  121  LEU121     -0.1966
     32  CA       -19.5840   14.8550    2.4440 C.3   121  LEU121      0.1728
     33  C        -20.4350   13.7820    1.7630 C.2   121  LEU121      0.2616
     34  O        -21.0190   12.9350    2.4400 O.2   121  LEU121     -0.2715
     35  CB       -20.4340   16.0990    2.7210 C.3   121  LEU121      0.0311
     36  CG       -19.7390   17.2010    3.5180 C.3   121  LEU121      0.0022
     37  CD1      -20.6130   18.4470    3.5650 C.3   121  LEU121      0.0001
     38  CD2      -19.4060   16.7140    4.9250 C.3   121  LEU121      0.0001
     39  N        -20.5270   13.8220    0.4400 N.am  122  ASP122     -0.1957
     40  CA       -21.2560   12.7990   -0.3190 C.3   122  ASP122      0.1840
     41  C        -20.6380   12.7970   -1.7090 C.2   122  ASP122      0.2622
     42  O        -20.0930   13.8140   -2.1480 O.2   122  ASP122     -0.2715
     43  CB       -22.7620   13.1260   -0.3350 C.3   122  ASP122      0.1450
     44  CG       -23.6390   11.9650   -0.7740 C.2   122  ASP122      0.3671
     45  OD1      -23.1340   10.8630   -1.0650 O.co2 122  ASP122     -0.2456
     46  OD2      -24.8740   12.1740   -0.8150 O.co2 122  ASP122     -0.2456
     47  N        -20.6970   11.6650   -2.3980 N.am  123  PHE123     -0.1960
     48  CA       -19.9500   11.4990   -3.6490 C.3   123  PHE123      0.1771
     49  C        -20.5130   10.2530   -4.3170 C.2   123  PHE123      0.2620
     50  O        -20.5570    9.1910   -3.7010 O.2   123  PHE123     -0.2715
     51  CB       -18.4620   11.3340   -3.2950 C.3   123  PHE123      0.0574
     52  CG       -17.4820   11.3700   -4.4540 C.ar  123  PHE123     -0.0200
     53  CD1      -17.8210   11.7860   -5.7390 C.ar  123  PHE123     -0.0042
     54  CD2      -16.1670   10.9860   -4.2110 C.ar  123  PHE123     -0.0042
     55  CE1      -16.8400   11.7980   -6.7590 C.ar  123  PHE123     -0.0003
     56  CE2      -15.2100   10.9840   -5.2000 C.ar  123  PHE123     -0.0003
     57  CZ       -15.5410   11.4050   -6.4780 C.ar  123  PHE123     -0.0000
     58  N        -20.9860   10.3790   -5.5520 N.am  124  TYR124     -0.1960
     59  CA       -21.6600    9.2680   -6.2100 C.3   124  TYR124      0.1771
     60  C        -21.5670    9.3910   -7.7110 C.2   124  TYR124      0.2619
     61  O        -21.8150   10.4620   -8.2660 O.2   124  TYR124     -0.2715
     62  CB       -23.1290    9.2370   -5.7890 C.3   124  TYR124      0.0574
     63  CG       -24.0080    8.3090   -6.6020 C.ar  124  TYR124     -0.0198
     64  CD1      -23.9000    6.9220   -6.4910 C.ar  124  TYR124     -0.0009
     65  CD2      -24.9640    8.8150   -7.4660 C.ar  124  TYR124     -0.0009
     66  CE1      -24.7260    6.0740   -7.2260 C.ar  124  TYR124      0.0417
     67  CE2      -25.7880    7.9720   -8.2090 C.ar  124  TYR124      0.0417
     68  CZ       -25.6660    6.6070   -8.0810 C.ar  124  TYR124      0.1957
     69  OH       -26.5000    5.8070   -8.8210 O.3   124  TYR124     -0.2866
     70  N        -21.1970    8.2840   -8.3490 N.am  125  ILE125     -0.1977
     71  CA       -21.2380    8.1460   -9.8000 C.3   125  ILE125      0.1596
     72  C        -22.1660    6.9720  -10.1050 C.2   125  ILE125      0.2287
     73  O        -22.0720    5.9170   -9.4620 O.2   125  ILE125     -0.2864
     74  CB       -19.8280    7.8620  -10.3670 C.3   125  ILE125      0.0276
     75  CG1      -18.8770    9.0430  -10.1070 C.3   125  ILE125      0.0022
     76  CG2      -19.8870    7.4630  -11.8390 C.3   125  ILE125      0.0022
     77  CD1      -19.2450   10.3480  -10.8050 C.3   125  ILE125      0.0001
     78  N        -19.4840    3.7810  -13.1490 N.3   130  GLN130     -0.1231
     79  CA       -18.4050    3.8220  -12.1710 C.3   130  GLN130      0.1698
     80  C        -17.1360    3.2500  -12.7780 C.2   130  GLN130      0.2592
     81  O        -17.1900    2.4300  -13.7000 O.2   130  GLN130     -0.2718
     82  CB       -18.7620    3.0320  -10.9140 C.3   130  GLN130      0.0381
     83  CG       -19.6720    3.7890   -9.9800 C.3   130  GLN130      0.0905
     84  CD       -20.1380    2.9750   -8.7880 C.2   130  GLN130      0.2608
     85  OE1      -19.5210    1.9740   -8.3960 O.2   130  GLN130     -0.2717
     86  NE2      -21.2460    3.4040   -8.2010 N.am  130  GLN130     -0.0878
     87  N        -15.9960    3.6680  -12.2370 N.am  131  ARG131     -0.1966
     88  CA       -14.7000    3.1190  -12.6180 C.3   131  ARG131      0.1729
     89  C        -14.3760    3.4130  -14.0780 C.2   131  ARG131      0.2616
     90  O        -13.7060    2.6250  -14.7410 O.2   131  ARG131     -0.2715
     91  CB       -14.6100    1.6180  -12.3050 C.3   131  ARG131      0.0348
     92  CG       -13.3600    1.2540  -11.5420 C.3   131  ARG131      0.0492
     93  CD       -13.3830   -0.1760  -11.0530 C.3   131  ARG131      0.2205
     94  NE       -12.1790   -0.4600  -10.2910 N.pl3 131  ARG131     -0.0865
     95  CZ       -12.0060   -1.5330   -9.5290 C.cat 131  ARG131      0.5346
     96  NH1      -12.9700   -2.4400   -9.4110 N.pl3 131  ARG131      0.1354
     97  NH2      -10.8660   -1.6770   -8.8720 N.pl3 131  ARG131      0.1354
     98  N        -14.8280    4.5730  -14.5570 N.am  132  HIS132     -0.1959
     99  CA       -14.5520    5.0530  -15.9140 C.3   132  HIS132      0.1787
    100  C        -13.8250    6.4040  -15.9010 C.2   132  HIS132      0.2621
    101  O        -13.5900    6.9880  -16.9490 O.2   132  HIS132     -0.2715
    102  CB       -15.8550    5.2270  -16.7100 C.3   132  HIS132      0.0785
    103  CG       -16.5200    3.9420  -17.1010 C.ar  132  HIS132      0.0821
    104  ND1      -17.5230    3.8860  -18.0460 N.ar  132  HIS132     -0.2267
    105  CD2      -16.3480    2.6730  -16.6610 C.ar  132  HIS132      0.1154
    106  CE1      -17.9260    2.6350  -18.1840 C.ar  132  HIS132      0.1986
    107  NE2      -17.2270    1.8780  -17.3570 N.ar  132  HIS132     -0.2212
    108  N        -13.5010    6.9220  -14.7210 N.am  133  GLY133     -0.1940
    109  CA       -12.7980    8.1900  -14.6060 C.3   133  GLY133      0.2014
    110  C        -13.6730    9.3910  -14.2830 C.2   133  GLY133      0.2639
    111  O        -13.1590   10.4950  -14.1220 O.2   133  GLY133     -0.2714
    112  N        -14.9850    9.1980  -14.1710 N.am  134  HIS134     -0.1959
    113  CA       -15.8720   10.3210  -13.8970 C.3   134  HIS134      0.1787
    114  C        -15.7220   10.8830  -12.4860 C.2   134  HIS134      0.2621
    115  O        -15.7900   12.1000  -12.2940 O.2   134  HIS134     -0.2715
    116  CB       -17.3320    9.9660  -14.1650 C.3   134  HIS134      0.0785
    117  CG       -17.5990    9.5450  -15.5750 C.ar  134  HIS134      0.0821
    118  ND1      -17.3110   10.3450  -16.6610 N.ar  134  HIS134     -0.2267
    119  CD2      -18.1350    8.4090  -16.0780 C.ar  134  HIS134      0.1154
    120  CE1      -17.6510    9.7120  -17.7710 C.ar  134  HIS134      0.1986
    121  NE2      -18.1540    8.5370  -17.4440 N.ar  134  HIS134     -0.2212
    122  N        -15.5390   10.0130  -11.4950 N.am  135  GLY135     -0.1940
    123  CA       -15.2980   10.4850  -10.1440 C.3   135  GLY135      0.2014
    124  C        -14.0810   11.3990  -10.0870 C.2   135  GLY135      0.2638
    125  O        -14.1130   12.4600   -9.4570 O.2   135  GLY135     -0.2714
    126  N        -13.0030   11.0050  -10.7590 N.am  136  ARG136     -0.1977
    127  CA       -11.8090   11.8410  -10.7820 C.3   136  ARG136      0.1597
    128  C        -12.0390   13.1670  -11.5180 C.2   136  ARG136      0.2287
    129  O        -11.5130   14.2060  -11.1050 O.2   136  ARG136     -0.2864
    130  CB       -10.6100   11.0900  -11.3570 C.3   136  ARG136      0.0334
    131  CG        -9.3030   11.8600  -11.2590 C.3   136  ARG136      0.0492
    132  CD        -8.1180   11.0170  -11.6900 C.3   136  ARG136      0.2205
    133  NE        -6.9420   11.8520  -11.8890 N.pl3 136  ARG136     -0.0865
    134  CZ        -6.4890   12.2210  -13.0820 C.cat 136  ARG136      0.5346
    135  NH1       -7.0930   11.7880  -14.1820 N.pl3 136  ARG136      0.1354
    136  NH2       -5.4150   12.9920  -13.1730 N.pl3 136  ARG136      0.1354
    137  N        -12.7020   13.6200    5.3630 N.3   155  ILE155     -0.1231
    138  CA       -13.6940   12.8300    4.6310 C.3   155  ILE155      0.1692
    139  C        -14.7250   12.2890    5.6130 C.2   155  ILE155      0.2592
    140  O        -14.3660   11.6330    6.5850 O.2   155  ILE155     -0.2718
    141  CB       -13.0390   11.6230    3.9120 C.3   155  ILE155      0.0266
    142  CG1      -11.6960   12.0040    3.2630 C.3   155  ILE155      0.0019
    143  CG2      -14.0050   11.0150    2.9090 C.3   155  ILE155      0.0020
    144  CD1      -11.8010   12.9590    2.1060 C.3   155  ILE155      0.0001
    145  N        -16.0040   12.5640    5.3750 N.am  156  ASP156     -0.1960
    146  CA       -17.0600   12.0530    6.2500 C.3   156  ASP156      0.1840
    147  C        -17.3570   10.5910    5.9140 C.2   156  ASP156      0.2622
    148  O        -17.9540   10.3040    4.8770 O.2   156  ASP156     -0.2715
    149  CB       -18.3330   12.8960    6.0970 C.3   156  ASP156      0.1450
    150  CG       -19.3750   12.5930    7.1560 C.2   156  ASP156      0.3671
    151  OD1      -19.1390   11.7040    8.0000 O.co2 156  ASP156     -0.2456
    152  OD2      -20.4450   13.2410    7.1300 O.co2 156  ASP156     -0.2456
    153  N        -16.9580    9.6730    6.7970 N.am  157  ARG157     -0.1964
    154  CA       -17.3000    8.2510    6.6630 C.3   157  ARG157      0.1714
    155  C        -17.0010    7.6930    5.2690 C.2   157  ARG157      0.2458
    156  O        -17.9060    7.2320    4.5620 O.2   157  ARG157     -0.2730
    157  CB       -18.7710    8.0240    7.0230 C.3   157  ARG157      0.0347
    158  CG       -19.0960    8.3610    8.4780 C.3   157  ARG157      0.0492
    159  CD       -20.5590    8.0870    8.7840 C.3   157  ARG157      0.2205
    160  NE       -20.9060    8.4410   10.1550 N.pl3 157  ARG157     -0.0865
    161  CZ       -21.3230    9.6450   10.5280 C.cat 157  ARG157      0.5346
    162  NH1      -21.4430   10.6120    9.6270 N.pl3 157  ARG157      0.1354
    163  NH2      -21.6180    9.8840   11.8010 N.pl3 157  ARG157      0.1354
    164  N        -15.7230    7.7230    4.8580 N.am  158  PRO158     -0.2716
    165  CA       -15.4200    7.2170    3.5140 C.3   158  PRO158      0.1536
    166  C        -15.7410    5.7320    3.3470 C.2   158  PRO158      0.2599
    167  O        -15.5460    4.9310    4.2570 O.2   158  PRO158     -0.2715
    168  CB       -13.9080    7.4270    3.3930 C.3   158  PRO158      0.0310
    169  CG       -13.4170    7.4300    4.8010 C.3   158  PRO158      0.0237
    170  CD       -14.5050    8.1310    5.5780 C.3   158  PRO158      0.0939
    171  N        -16.2320    5.3760    2.1690 N.am  159  SER159     -0.1936
    172  CA       -16.4530    3.9820    1.8180 C.3   159  SER159      0.2055
    173  C        -15.1520    3.3330    1.3720 C.2   159  SER159      0.2643
    174  O        -14.1480    4.0050    1.1010 O.2   159  SER159     -0.2714
    175  CB       -17.4560    3.8990    0.6740 C.3   159  SER159      0.2130
    176  OG       -16.8990    4.5000   -0.4850 O.3   159  SER159     -0.2179
    177  N        -15.1790    2.0090    1.2700 N.am  160  GLN160     -0.1963
    178  CA       -14.0300    1.2660    0.7620 C.3   160  GLN160      0.1733
    179  C        -13.6450    1.7210   -0.6480 C.2   160  GLN160      0.2616
    180  O        -12.4580    1.8770   -0.9530 O.2   160  GLN160     -0.2715
    181  CB       -14.3010   -0.2380    0.7950 C.3   160  GLN160      0.0408
    182  CG       -14.4620   -0.7950    2.2080 C.3   160  GLN160      0.0908
    183  CD       -13.1830   -0.7120    3.0240 C.2   160  GLN160      0.2608
    184  OE1      -12.0810   -0.8650    2.4960 O.2   160  GLN160     -0.2717
    185  NE2      -13.3250   -0.4720    4.3180 N.am  160  GLN160     -0.0878
    186  N        -14.6380    1.9300   -1.5110 N.am  161  LYS161     -0.1963
    187  CA       -14.3470    2.4040   -2.8640 C.3   161  LYS161      0.1728
    188  C        -13.6450    3.7560   -2.8180 C.2   161  LYS161      0.2616
    189  O        -12.6940    3.9980   -3.5600 O.2   161  LYS161     -0.2715
    190  CB       -15.6190    2.5190   -3.7090 C.3   161  LYS161      0.0311
    191  CG       -16.2000    1.1830   -4.1630 C.3   161  LYS161      0.0038
    192  CD       -17.5030    1.3940   -4.9310 C.3   161  LYS161      0.0206
    193  CE       -18.1170    0.0680   -5.3470 C.3   161  LYS161      0.1093
    194  NZ       -19.4260    0.2330   -6.0340 N.3   161  LYS161     -0.1314
    195  N        -14.1070    4.6450   -1.9410 N.am  162  LEU162     -0.1977
    196  CA       -13.5030    5.9730   -1.8650 C.3   162  LEU162      0.1596
    197  C        -12.0810    5.9240   -1.2960 C.2   162  LEU162      0.2287
    198  O        -11.2030    6.6560   -1.7540 O.2   162  LEU162     -0.2864
    199  CB       -14.3860    6.9540   -1.0720 C.3   162  LEU162      0.0297
    200  CG       -13.8620    8.3960   -1.0300 C.3   162  LEU162      0.0022
    201  CD1      -13.6270    8.9500   -2.4420 C.3   162  LEU162      0.0001
    202  CD2      -14.8270    9.2830   -0.2460 C.3   162  LEU162      0.0001
    203  N         -9.9410    3.5040   -1.6720 N.3   164  LYS164     -0.1231
    204  CA        -9.0890    3.0620   -2.7730 C.3   164  LYS164      0.1693
    205  C         -8.8430    4.1840   -3.7780 C.2   164  LYS164      0.2592
    206  O         -7.7180    4.3870   -4.2290 O.2   164  LYS164     -0.2718
    207  CB        -9.7000    1.8590   -3.4870 C.3   164  LYS164      0.0285
    208  CG        -9.7820    0.6040   -2.6430 C.3   164  LYS164      0.0035
    209  CD        -8.4140    0.1150   -2.2090 C.3   164  LYS164      0.0206
    210  CE        -8.5290   -1.2230   -1.4940 C.3   164  LYS164      0.1093
    211  NZ        -7.2480   -1.6600   -0.8720 N.3   164  LYS164     -0.1314
    212  N         -9.9080    4.9040   -4.1200 N.am  165  PHE165     -0.1976
    213  CA        -9.8540    6.0440   -5.0420 C.3   165  PHE165      0.1639
    214  C         -8.8370    7.0920   -4.5690 C.2   165  PHE165      0.2290
    215  O         -8.0150    7.5800   -5.3530 O.2   165  PHE165     -0.2864
    216  CB       -11.2760    6.6170   -5.1200 C.3   165  PHE165      0.0560
    217  CG       -11.4290    7.9000   -5.9100 C.ar  165  PHE165     -0.0200
    218  CD1      -11.1840    9.1360   -5.3200 C.ar  165  PHE165     -0.0042
    219  CD2      -11.9350    7.8760   -7.2060 C.ar  165  PHE165     -0.0042
    220  CE1      -11.3780   10.3160   -6.0280 C.ar  165  PHE165     -0.0003
    221  CE2      -12.1380    9.0530   -7.9110 C.ar  165  PHE165     -0.0003
    222  CZ       -11.8570   10.2750   -7.3150 C.ar  165  PHE165     -0.0000
    223  N         -5.2570    5.7250   -4.8220 N.3   168  LYS168     -0.1231
    224  CA        -4.7970    5.6490   -6.2050 C.3   168  LYS168      0.1693
    225  C         -4.4770    7.0140   -6.8020 C.2   168  LYS168      0.2592
    226  O         -3.3930    7.2310   -7.3490 O.2   168  LYS168     -0.2718
    227  CB        -5.8080    4.9470   -7.1090 C.3   168  LYS168      0.0285
    228  CG        -5.3560    4.9890   -8.5640 C.3   168  LYS168      0.0035
    229  CD        -6.3410    4.3500   -9.5100 C.3   168  LYS168      0.0206
    230  CE        -5.8020    4.3660  -10.9340 C.3   168  LYS168      0.1093
    231  NZ        -6.7720    3.7610  -11.8830 N.3   168  LYS168     -0.1314
    232  N         -5.4210    7.9400   -6.7140 N.am  169  HIS169     -0.1976
    233  CA        -5.2690    9.2020   -7.4240 C.3   169  HIS169      0.1656
    234  C         -4.3900   10.2190   -6.7150 C.2   169  HIS169      0.2291
    235  O         -3.7410   11.0370   -7.3710 O.2   169  HIS169     -0.2864
    236  CB        -6.6350    9.8170   -7.7180 C.3   169  HIS169      0.0771
    237  CG        -7.5160    8.9560   -8.5620 C.ar  169  HIS169      0.0820
    238  ND1       -7.0870    8.3670   -9.7330 N.ar  169  HIS169     -0.2267
    239  CD2       -8.8050    8.5850   -8.4000 C.ar  169  HIS169      0.1154
    240  CE1       -8.0800    7.6700  -10.2550 C.ar  169  HIS169      0.1986
    241  NE2       -9.1340    7.7870   -9.4680 N.ar  169  HIS169     -0.2212
@<TRIPOS>BOND
     1   106   104   ar
     2   106   107   ar
     3   104   103   ar
     4   120   121   ar
     5   120   118   ar
     6   121   119   ar
     7   107   105   ar
     8   103   102    1
     9   103   105   ar
    10   101   100    2
    11   102    99    1
    12   118   117   ar
    13   119   117   ar
    14    99   100    1
    15    99    98    1
    16   100   108   am
    17   117   116    1
    18    90    89    2
    19   108   109    1
    20   109   110    1
    21    98    89   am
    22   110   112   am
    23   110   111    2
    24   135   134    1
    25   112   113    1
    26   116   113    1
    27    89    88    1
    28   113   114    1
    29    81    80    2
    30   136   134    1
    31    78    79    1
    32   134   133    2
    33    80    87   am
    34    80    79    1
    35    88    91    1
    36    88    87    1
    37   114   115    2
    38   114   122   am
    39    91    92    1
    40    79    82    1
    41   133   132    1
    42   231   230    1
    43    76    74    1
    44   132   131    1
    45    92    93    1
    46   128   129    2
    47   128   127    1
    48   122   123    1
    49   130   131    1
    50   130   127    1
    51    93    94    1
    52   230   229    1
    53    82    83    1
    54    77    75    1
    55   127   126    1
    56   126   124   am
    57    74    75    1
    58    74    71    1
    59    94    95    2
    60   240   238   ar
    61   240   241   ar
    62   123   124    1
    63    72    71    1
    64    72    73    2
    65   124   125    2
    66    83    84    1
    67    71    70    1
    68   238   237   ar
    69    95    96    1
    70    95    97    1
    71   229   228    1
    72   241   239   ar
    73    69    68    1
    74    84    85    2
    75    84    86   am
    76   228   227    1
    77   237   239   ar
    78   237   236    1
    79    70    60   am
    80    61    60    2
    81    67    68   ar
    82    67    65   ar
    83    68    66   ar
    84   221   222   ar
    85   221   219   ar
    86   236   233    1
    87    60    59    1
    88    65    63   ar
    89   233   234    1
    90   233   232    1
    91   235   234    2
    92   226   225    2
    93   222   220   ar
    94    66    64   ar
    95   219   217   ar
    96   227   224    1
    97   225   232   am
    98   225   224    1
    99    55    57   ar
   100    55    53   ar
   101    63    64   ar
   102    63    62    1
   103    57    56   ar
   104    59    62    1
   105    59    58    1
   106   224   223    1
   107   194   193    1
   108   220   218   ar
   109   217   218   ar
   110   217   216    1
   111    53    52   ar
   112    58    49   am
   113   215   214    2
   114   193   192    1
   115    56    54   ar
   116   216   213    1
   117   213   214    1
   118   213   212    1
   119   192   191    1
   120    52    54   ar
   121    52    51    1
   122    49    50    2
   123    49    48    1
   124     5     2    1
   125   206   205    2
   126   191   190    1
   127   212   205   am
   128   205   204    1
   129   190   187    1
   130    48    51    1
   131    48    47    1
   132   189   188    2
   133   207   204    1
   134   207   208    1
   135     2     1    1
   136     2     3    1
   137   187   188    1
   138   187   186    1
   139   188   195   am
   140   204   203    1
   141   208   209    1
   142   201   200    1
   143    47    41   am
   144   209   210    1
   145    42    41    2
   146     3     4    2
   147     3     6   am
   148   195   196    1
   149   196   197    1
   150   196   199    1
   151   198   197    2
   152    41    40    1
   153   186   179   am
   154   210   211    1
   155     6     7    1
   156   199   200    1
   157    45    44   ar
   158   200   202    1
   159   180   179    2
   160    46    44   ar
   161    30    28    1
   162    44    43    1
   163   179   178    1
   164   176   175    1
   165    29    27    1
   166    43    40    1
   167    40    39    1
   168    11    12    1
   169    11    10    1
   170    14    12   am
   171     7    10    1
   172     7     8    1
   173    28    27    1
   174    12    13    2
   175    39    33   am
   176   175   172    1
   177    27    24    1
   178   178   181    1
   179   178   177    1
   180   181   182    1
   181   174   173    2
   182     8     9    2
   183   177   173   am
   184   173   172    1
   185    24    25    1
   186    24    23    1
   187    31    25   am
   188    31    32    1
   189    33    34    2
   190    33    32    1
   191   172   171    1
   192    25    26    2
   193   144   142    1
   194   171   166   am
   195   182   183    1
   196    32    35    1
   197    17    18    2
   198    17    16    1
   199    20    22    1
   200    20    19    1
   201   184   183    2
   202    15    16    1
   203    35    36    1
   204   143   141    1
   205   183   185   am
   206   142   141    1
   207    16    19    1
   208   166   165    1
   209   166   167    2
   210   168   165    1
   211   168   169    1
   212   165   164    1
   213    36    37    1
   214    36    38    1
   215    19    21    1
   216   141   138    1
   217   156   155    2
   218   138   137    1
   219   138   139    1
   220   169   170    1
   221   164   155   am
   222   164   170    1
   223   148   147    2
   224   155   154    1
   225   145   139   am
   226   145   146    1
   227   139   140    2
   228   147   146    1
   229   147   153   am
   230   149   146    1
   231   149   150    1
   232   154   153    1
   233   154   157    1
   234   157   158    1
   235   152   150   ar
   236   150   151   ar
   237   158   159    1
   238   159   160    1
   239   162   161    1
   240   160   161    2
   241   161   163    1
