@<TRIPOS>MOLECULE
tmp/3vwoA00.pdb
 138 133 0 0 0
SMALL
GASTEIGER

@<TRIPOS>ATOM
      1  N        -22.6830   -1.1530  -10.2200 N.3    33  GLU33      -0.1245
      2  CA       -21.9650   -2.2230  -10.9100 C.3    33  GLU33       0.1567
      3  C        -22.2680   -2.2940  -12.4070 C.2    33  GLU33       0.2260
      4  O        -21.3830   -2.6010  -13.2090 O.2    33  GLU33      -0.2867
      5  CB       -22.2610   -3.5770  -10.2520 C.3    33  GLU33       0.0388
      6  CG       -21.6000   -3.7620   -8.8650 C.3    33  GLU33       0.1160
      7  CD       -20.0900   -3.9060   -8.9530 C.2    33  GLU33       0.3649
      8  OE1      -19.5760   -4.1520  -10.0630 O.co2  33  GLU33      -0.2457
      9  OE2      -19.4120   -3.7690   -7.9160 O.co2  33  GLU33      -0.2457
     10  N        -24.1360   -8.0330  -10.0120 N.3    53  PHE53      -0.1227
     11  CA       -23.0830   -7.7180   -9.0470 C.3    53  PHE53       0.1736
     12  C        -21.6860   -8.0470   -9.5690 C.2    53  PHE53       0.2595
     13  O        -20.7020   -7.8960   -8.8540 O.2    53  PHE53      -0.2718
     14  CB       -23.3640   -8.4070   -7.7090 C.3    53  PHE53       0.0547
     15  CG       -24.5900   -7.8860   -7.0370 C.ar   53  PHE53      -0.0202
     16  CD1      -24.5290   -6.7370   -6.2580 C.ar   53  PHE53      -0.0042
     17  CD2      -25.8100   -8.5060   -7.2160 C.ar   53  PHE53      -0.0042
     18  CE1      -25.6640   -6.2360   -5.6590 C.ar   53  PHE53      -0.0003
     19  CE2      -26.9490   -8.0090   -6.6170 C.ar   53  PHE53      -0.0003
     20  CZ       -26.8760   -6.8680   -5.8410 C.ar   53  PHE53      -0.0000
     21  N        -21.6130   -8.4860  -10.8220 N.am   54  ASN54      -0.1960
     22  CA       -20.3350   -8.8000  -11.4640 C.3    54  ASN54       0.1819
     23  C        -19.5140   -9.8440  -10.6990 C.2    54  ASN54       0.2621
     24  O        -18.3040   -9.6960  -10.5140 O.2    54  ASN54      -0.2715
     25  CB       -19.5170   -7.5270  -11.7140 C.3    54  ASN54       0.1195
     26  CG       -20.0750   -6.6940  -12.8570 C.2    54  ASN54       0.2630
     27  OD1      -20.4590   -7.2270  -13.8960 O.2    54  ASN54      -0.2716
     28  ND2      -20.1300   -5.3850  -12.6640 N.am   54  ASN54      -0.0877
     29  N        -20.1940  -10.9010  -10.2700 N.am   55  ILE55      -0.1963
     30  CA       -19.5720  -11.9640   -9.4920 C.3    55  ILE55       0.1727
     31  C        -18.9120  -12.9790  -10.4200 C.2    55  ILE55       0.2616
     32  O        -19.5810  -13.6120  -11.2430 O.2    55  ILE55      -0.2715
     33  CB       -20.6050  -12.7060   -8.6440 C.3    55  ILE55       0.0290
     34  CG1      -21.4100  -11.7130   -7.8050 C.3    55  ILE55       0.0022
     35  CG2      -19.9060  -13.7350   -7.7420 C.3    55  ILE55       0.0023
     36  CD1      -20.5650  -10.8910   -6.8760 C.3    55  ILE55       0.0001
     37  N        -17.6000  -13.1380  -10.2870 N.am   56  LYS56      -0.1977
     38  CA       -16.8800  -14.1020  -11.1070 C.3    56  LYS56       0.1596
     39  C        -17.1950  -15.5250  -10.6720 C.2    56  LYS56       0.2287
     40  O        -17.6450  -15.7550   -9.5530 O.2    56  LYS56      -0.2864
     41  CB       -15.3730  -13.8560  -11.0390 C.3    56  LYS56       0.0298
     42  CG       -14.9110  -12.6100  -11.7840 C.3    56  LYS56       0.0038
     43  CD       -13.3960  -12.5760  -11.8970 C.3    56  LYS56       0.0206
     44  CE       -12.7870  -11.6200  -10.8940 C.3    56  LYS56       0.1093
     45  NZ       -13.0640  -10.2080  -11.2740 N.3    56  LYS56      -0.1314
     46  N        -13.1590   -7.6460  -18.2250 N.3    70  THR70      -0.1218
     47  CA       -13.2800   -7.0020  -16.9250 C.3    70  THR70       0.1862
     48  C        -12.0410   -6.1730  -16.5870 C.2    70  THR70       0.2287
     49  O        -10.9240   -6.5140  -16.9780 O.2    70  THR70      -0.2866
     50  CB       -13.5460   -8.0290  -15.8120 C.3    70  THR70       0.1770
     51  OG1      -13.9280   -7.3460  -14.6110 O.3    70  THR70      -0.2211
     52  CG2      -12.3120   -8.8810  -15.5590 C.3    70  THR70       0.0375
     53  N         -9.6510   -4.4780  -13.6310 N.3    72  GLU72      -0.1245
     54  CA        -9.2780   -4.6200  -12.2260 C.3    72  GLU72       0.1567
     55  C         -8.0570   -3.7670  -11.9260 C.2    72  GLU72       0.2260
     56  O         -7.2640   -3.4780  -12.8170 O.2    72  GLU72      -0.2867
     57  CB        -9.0080   -6.0890  -11.8940 C.3    72  GLU72       0.0388
     58  CG       -10.2110   -7.0000  -12.1190 C.3    72  GLU72       0.1160
     59  CD        -9.8900   -8.4650  -11.9010 C.2    72  GLU72       0.3649
     60  OE1       -8.7070   -8.7870  -11.6600 O.co2  72  GLU72      -0.2457
     61  OE2      -10.8220   -9.2940  -11.9730 O.co2  72  GLU72      -0.2457
     62  N        -23.0620  -15.2910   -0.9580 N.3   101  LEU101     -0.1245
     63  CA       -21.6510  -14.9290   -0.9530 C.3   101  LEU101      0.1561
     64  C        -21.2980  -13.9510    0.1640 C.2   101  LEU101      0.2260
     65  O        -20.4030  -14.2120    0.9760 O.2   101  LEU101     -0.2867
     66  CB       -21.2790  -14.3000   -2.3040 C.3   101  LEU101      0.0270
     67  CG       -19.7940  -14.0020   -2.5110 C.3   101  LEU101      0.0019
     68  CD1      -18.9520  -15.2120   -2.1340 C.3   101  LEU101      0.0001
     69  CD2      -19.5290  -13.6170   -3.9550 C.3   101  LEU101      0.0001
     70  N        -19.2600  -15.3880    3.5310 N.3   105  SER105     -0.1217
     71  CA       -17.8160  -15.1750    3.4740 C.3   105  SER105      0.1889
     72  C        -17.3500  -14.3750    4.6880 C.2   105  SER105      0.2288
     73  O        -17.8580  -13.2830    4.9420 O.2   105  SER105     -0.2866
     74  CB       -17.4270  -14.4220    2.1990 C.3   105  SER105      0.2089
     75  OG       -17.7860  -15.1720    1.0520 O.3   105  SER105     -0.2183
     76  N        -14.8040  -12.5320    5.3380 N.3   107  ARG107     -0.1231
     77  CA       -14.2800  -11.1880    5.1020 C.3   107  ARG107      0.1694
     78  C        -15.3580  -10.1060    5.0050 C.2   107  ARG107      0.2592
     79  O        -15.0570   -8.9170    5.1270 O.2   107  ARG107     -0.2718
     80  CB       -13.4050  -11.1600    3.8430 C.3   107  ARG107      0.0321
     81  CG       -14.1610  -11.3730    2.5530 C.3   107  ARG107      0.0489
     82  CD       -13.1760  -11.5130    1.3760 C.3   107  ARG107      0.2205
     83  NE       -12.0770  -10.5580    1.5040 N.pl3 107  ARG107     -0.0865
     84  CZ       -10.8150  -10.8830    1.7740 C.cat 107  ARG107      0.5346
     85  NH1      -10.4640  -12.1530    1.9220 N.pl3 107  ARG107      0.1354
     86  NH2       -9.8990   -9.9310    1.8860 N.pl3 107  ARG107      0.1354
     87  N        -16.6050  -10.5080    4.7750 N.am  108  TYR108     -0.1976
     88  CA       -17.7020   -9.5450    4.6830 C.3   108  TYR108      0.1639
     89  C        -18.6000   -9.5520    5.9120 C.2   108  TYR108      0.2290
     90  O        -19.7180   -9.0550    5.8580 O.2   108  TYR108     -0.2864
     91  CB       -18.5600   -9.8050    3.4420 C.3   108  TYR108      0.0560
     92  CG       -17.7650   -9.6880    2.1690 C.ar  108  TYR108     -0.0198
     93  CD1      -17.1030   -8.5090    1.8600 C.ar  108  TYR108     -0.0009
     94  CD2      -17.6630  -10.7540    1.2880 C.ar  108  TYR108     -0.0009
     95  CE1      -16.3590   -8.3930    0.7110 C.ar  108  TYR108      0.0417
     96  CE2      -16.9090  -10.6500    0.1330 C.ar  108  TYR108      0.0417
     97  CZ       -16.2650   -9.4650   -0.1490 C.ar  108  TYR108      0.1957
     98  OH       -15.5190   -9.3470   -1.2980 O.3   108  TYR108     -0.2866
     99  N        -12.9210   -6.0950    0.7280 N.3   128  GLY128     -0.1210
    100  CA       -12.2780   -6.4370   -0.5290 C.3   128  GLY128      0.1956
    101  C        -13.2330   -6.7290   -1.6690 C.2   128  GLY128      0.2612
    102  O        -12.8950   -7.4710   -2.5980 O.2   128  GLY128     -0.2717
    103  N        -14.4230   -6.1390   -1.6230 N.am  129  TYR129     -0.1962
    104  CA       -15.4110   -6.4120   -2.6550 C.3   129  TYR129      0.1771
    105  C        -14.9360   -5.9210   -4.0090 C.2   129  TYR129      0.2619
    106  O        -15.2400   -6.5300   -5.0300 O.2   129  TYR129     -0.2715
    107  CB       -16.7720   -5.7880   -2.3390 C.3   129  TYR129      0.0574
    108  CG       -17.8620   -6.3210   -3.2440 C.ar  129  TYR129     -0.0198
    109  CD1      -18.5260   -7.5000   -2.9330 C.ar  129  TYR129     -0.0009
    110  CD2      -18.2010   -5.6690   -4.4220 C.ar  129  TYR129     -0.0009
    111  CE1      -19.5110   -8.0060   -3.7590 C.ar  129  TYR129      0.0417
    112  CE2      -19.1850   -6.1690   -5.2580 C.ar  129  TYR129      0.0417
    113  CZ       -19.8390   -7.3370   -4.9180 C.ar  129  TYR129      0.1957
    114  OH       -20.8150   -7.8440   -5.7440 O.3   129  TYR129     -0.2866
    115  N        -14.2000   -4.8150   -4.0170 N.am  130  ALA130     -0.1963
    116  CA       -13.7480   -4.2300   -5.2780 C.3   130  ALA130      0.1728
    117  C        -12.3010   -3.7570   -5.2130 C.2   130  ALA130      0.2616
    118  O        -11.7630   -3.5080   -4.1340 O.2   130  ALA130     -0.2715
    119  CB       -14.6640   -3.0860   -5.6920 C.3   130  ALA130      0.0334
    120  N        -11.6830   -3.6330   -6.3830 N.am  131  THR131     -0.1951
    121  CA       -10.3000   -3.1840   -6.4860 C.3   131  THR131      0.1897
    122  C        -10.2190   -1.6800   -6.7540 C.2   131  THR131      0.2313
    123  O         -9.1770   -1.0600   -6.5420 O.2   131  THR131     -0.2863
    124  CB        -9.5420   -3.9590   -7.5800 C.3   131  THR131      0.1794
    125  OG1      -10.2900   -3.9190   -8.8020 O.3   131  THR131     -0.2208
    126  CG2       -9.3530   -5.4110   -7.1620 C.3   131  THR131      0.0378
    127  N        -14.4270    2.8870   -4.6190 N.3   135  TYR135     -0.1241
    128  CA       -15.6660    2.1220   -4.7160 C.3   135  TYR135      0.1605
    129  C        -16.6870    2.5180   -3.6550 C.2   135  TYR135      0.2264
    130  O        -17.8520    2.7610   -3.9680 O.2   135  TYR135     -0.2867
    131  CB       -15.3730    0.6240   -4.6180 C.3   135  TYR135      0.0534
    132  CG       -16.5740   -0.2530   -4.8850 C.ar  135  TYR135     -0.0201
    133  CD1      -17.0260   -0.4600   -6.1820 C.ar  135  TYR135     -0.0009
    134  CD2      -17.2530   -0.8810   -3.8440 C.ar  135  TYR135     -0.0009
    135  CE1      -18.1190   -1.2590   -6.4410 C.ar  135  TYR135      0.0417
    136  CE2      -18.3570   -1.6890   -4.0960 C.ar  135  TYR135      0.0417
    137  CZ       -18.7810   -1.8750   -5.3990 C.ar  135  TYR135      0.1957
    138  OH       -19.8710   -2.6710   -5.6700 O.3   135  TYR135     -0.2866
@<TRIPOS>BOND
     1    46    47    1
     2    49    48    2
     3    47    48    1
     4    47    50    1
     5    50    52    1
     6    50    51    1
     7    27    26    2
     8    53    54    1
     9     4     3    2
    10    26    28   am
    11    26    25    1
    12    56    55    2
    13     3     2    1
    14    54    55    1
    15    54    57    1
    16    58    59    1
    17    58    57    1
    18    61    59   ar
    19    59    60   ar
    20    43    42    1
    21    43    44    1
    22    42    41    1
    23    25    22    1
    24    22    21    1
    25    22    23    1
    26    45    44    1
    27    32    31    2
    28    38    41    1
    29    38    39    1
    30    38    37    1
    31     2     5    1
    32     2     1    1
    33    21    12   am
    34    23    24    2
    35    23    29   am
    36    39    40    2
    37    31    37   am
    38    31    30    1
    39    29    30    1
    40     5     6    1
    41     8     7   ar
    42    10    11    1
    43    12    11    1
    44    12    13    2
    45    30    33    1
    46    11    14    1
    47     7     6    1
    48     7     9   ar
    49   125   124    1
    50    33    34    1
    51    33    35    1
    52    34    36    1
    53    14    15    1
    54   124   126    1
    55   124   121    1
    56    17    15   ar
    57    17    19   ar
    58    15    16   ar
    59   122   123    2
    60   122   121    1
    61    19    20   ar
    62   121   120    1
    63   135   133   ar
    64   135   137   ar
    65   120   117   am
    66    16    18   ar
    67   133   132   ar
    68    20    18   ar
    69   114   113    1
    70   119   116    1
    71   138   137    1
    72   137   136   ar
    73   116   117    1
    74   116   115    1
    75   112   113   ar
    76   112   110   ar
    77   117   118    2
    78   106   105    2
    79   113   111   ar
    80   132   131    1
    81   132   134   ar
    82   128   127    1
    83   128   131    1
    84   128   129    1
    85   110   108   ar
    86   136   134   ar
    87   115   105   am
    88   105   104    1
    89   130   129    2
    90    69    67    1
    91   111   109   ar
    92   108   109   ar
    93   108   107    1
    94   104   107    1
    95   104   103    1
    96   102   101    2
    97    67    66    1
    98    67    68    1
    99    66    63    1
   100   101   103   am
   101   101   100    1
   102    98    97    1
   103    62    63    1
   104    63    64    1
   105   100    99    1
   106    97    96   ar
   107    97    95   ar
   108    96    94   ar
   109    64    65    2
   110    95    93   ar
   111    75    74    1
   112    94    92   ar
   113    82    83    1
   114    82    81    1
   115    83    84    2
   116    84    86    1
   117    84    85    1
   118    93    92   ar
   119    92    91    1
   120    74    71    1
   121    81    80    1
   122    91    88    1
   123    71    70    1
   124    71    72    1
   125    80    77    1
   126    88    87    1
   127    88    89    1
   128    72    73    2
   129    87    78   am
   130    78    77    1
   131    78    79    2
   132    77    76    1
   133    90    89    2
