@<TRIPOS>MOLECULE
tmp/3vwqA00.pdb
 125 121 0 0 0
SMALL
GASTEIGER

@<TRIPOS>ATOM
      1  N         53.8310   15.2420   14.7560 N.3   103  MET103     -0.1230
      2  CA        52.6310   15.9290   14.2960 C.3   103  MET103      0.1702
      3  C         52.8710   16.3290   12.8330 C.2   103  MET103      0.2592
      4  O         53.4670   15.5510   12.0860 O.2   103  MET103     -0.2718
      5  CB        52.3130   17.1350   15.1890 C.3   103  MET103      0.0401
      6  CG        51.7280   16.7210   16.5430 C.3   103  MET103      0.0596
      7  SD        50.1750   15.7850   16.3710 S.3   103  MET103     -0.1393
      8  CE        49.5470   15.8170   18.0810 C.3   103  MET103      0.0692
      9  N         52.4530   17.5220   12.4150 N.am  104  ALA104     -0.1980
     10  CA        52.6170   17.9200   11.0120 C.3   104  ALA104      0.1597
     11  C         54.0350   18.0450   10.4450 C.2   104  ALA104      0.2287
     12  O         54.1980   18.3020    9.2520 O.2   104  ALA104     -0.2864
     13  CB        51.8340   19.2000   10.7300 C.3   104  ALA104      0.0319
     14  N         37.0570   20.7570   16.0170 N.3   162  TYR162     -0.1241
     15  CA        37.2820   19.4170   16.5500 C.3   162  TYR162      0.1605
     16  C         36.2440   18.9710   17.5780 C.2   162  TYR162      0.2264
     17  O         35.7880   17.8270   17.5450 O.2   162  TYR162     -0.2867
     18  CB        38.6850   19.3260   17.1590 C.3   162  TYR162      0.0534
     19  CG        39.2100   17.9110   17.2840 C.ar  162  TYR162     -0.0201
     20  CD1       38.6240   17.0000   18.1620 C.ar  162  TYR162     -0.0009
     21  CD2       40.2850   17.4780   16.5100 C.ar  162  TYR162     -0.0009
     22  CE1       39.0940   15.6930   18.2650 C.ar  162  TYR162      0.0417
     23  CE2       40.7630   16.1730   16.6040 C.ar  162  TYR162      0.0417
     24  CZ        40.1630   15.2870   17.4830 C.ar  162  TYR162      0.1957
     25  OH        40.6280   13.9940   17.5760 O.3   162  TYR162     -0.2866
     26  N         37.9700   17.3600   10.8970 N.3   169  VAL169     -0.1245
     27  CA        39.2110   17.1080   11.6080 C.3   169  VAL169      0.1561
     28  C         39.0630   15.9440   12.5870 C.2   169  VAL169      0.2260
     29  O         39.9500   15.1000   12.6870 O.2   169  VAL169     -0.2867
     30  CB        39.6910   18.3690   12.3560 C.3   169  VAL169      0.0252
     31  CG1       38.6400   18.8070   13.3580 C.3   169  VAL169      0.0019
     32  CG2       41.0260   18.1010   13.0260 C.3   169  VAL169      0.0019
     33  N         38.5260   12.7400   10.5700 N.3   172  HIS172     -0.1226
     34  CA        39.7830   12.2890    9.9850 C.3   172  HIS172      0.1752
     35  C         40.4970   11.3910   11.0040 C.2   172  HIS172      0.2596
     36  O         40.9540   10.2940   10.6690 O.2   172  HIS172     -0.2718
     37  CB        40.6460   13.5110    9.6400 C.3   172  HIS172      0.0759
     38  CG        41.8690   13.1940    8.8360 C.ar  172  HIS172      0.0818
     39  ND1       42.7640   14.1640    8.4390 N.ar  172  HIS172     -0.2268
     40  CD2       42.3490   12.0220    8.3560 C.ar  172  HIS172      0.1154
     41  CE1       43.7420   13.6040    7.7500 C.ar  172  HIS172      0.1986
     42  NE2       43.5140   12.3040    7.6860 N.ar  172  HIS172     -0.2212
     43  N         40.5740   11.8530   12.2500 N.am  173  ASP173     -0.1974
     44  CA        41.2270   11.0940   13.3140 C.3   173  ASP173      0.1709
     45  C         40.5420    9.7500   13.5690 C.2   173  ASP173      0.2293
     46  O         41.2090    8.7270   13.7140 O.2   173  ASP173     -0.2864
     47  CB        41.2460   11.9020   14.6180 C.3   173  ASP173      0.1436
     48  CG        42.2940   13.0010   14.6170 C.2   173  ASP173      0.3671
     49  OD1       42.9990   13.1610   13.5990 O.co2 173  ASP173     -0.2456
     50  OD2       42.4120   13.7040   15.6440 O.co2 173  ASP173     -0.2456
     51  N         43.1440    7.4380   15.3920 N.3   178  TRP178     -0.1241
     52  CA        43.6890    8.3490   16.3900 C.3   178  TRP178      0.1605
     53  C         42.6500    8.6440   17.4680 C.2   178  TRP178      0.2264
     54  O         42.9760    9.1740   18.5300 O.2   178  TRP178     -0.2867
     55  CB        44.1410    9.6540   15.7270 C.3   178  TRP178      0.0550
     56  CG        45.6020    9.6740   15.3830 C.ar  178  TRP178      0.0003
     57  CD1       46.3630    8.6220   14.9500 C.ar  178  TRP178      0.0946
     58  CD2       46.4770   10.8050   15.4400 C.ar  178  TRP178      0.0152
     59  NE1       47.6590    9.0290   14.7390 N.ar  178  TRP178     -0.2442
     60  CE2       47.7570   10.3650   15.0300 C.ar  178  TRP178      0.0810
     61  CE3       46.3030   12.1520   15.7950 C.ar  178  TRP178      0.0012
     62  CZ2       48.8600   11.2240   14.9670 C.ar  178  TRP178      0.0191
     63  CZ3       47.4020   13.0070   15.7320 C.ar  178  TRP178      0.0001
     64  CH2       48.6640   12.5370   15.3200 C.ar  178  TRP178      0.0015
     65  N         45.4090   25.2600    4.6170 N.3   207  TYR207     -0.1241
     66  CA        46.0810   24.1800    5.3190 C.3   207  TYR207      0.1605
     67  C         45.0530   23.1000    5.6190 C.2   207  TYR207      0.2264
     68  O         44.0510   23.3580    6.2860 O.2   207  TYR207     -0.2867
     69  CB        46.6900   24.6980    6.6180 C.3   207  TYR207      0.0534
     70  CG        47.5330   23.6740    7.3370 C.ar  207  TYR207     -0.0201
     71  CD1       48.7200   23.2050    6.7760 C.ar  207  TYR207     -0.0009
     72  CD2       47.1440   23.1710    8.5780 C.ar  207  TYR207     -0.0009
     73  CE1       49.5010   22.2590    7.4350 C.ar  207  TYR207      0.0417
     74  CE2       47.9180   22.2250    9.2430 C.ar  207  TYR207      0.0417
     75  CZ        49.0920   21.7760    8.6660 C.ar  207  TYR207      0.1957
     76  OH        49.8600   20.8460    9.3210 O.3   207  TYR207     -0.2866
     77  N         45.1660   18.8080    6.5130 N.3   209  SER209     -0.1217
     78  CA        45.9070   17.5600    6.6710 C.3   209  SER209      0.1889
     79  C         45.5170   16.4570    5.6940 C.2   209  SER209      0.2288
     80  O         46.3130   15.5620    5.4200 O.2   209  SER209     -0.2866
     81  CB        45.7810   17.0510    8.1090 C.3   209  SER209      0.2089
     82  OG        46.4080   17.9430    9.0130 O.3   209  SER209     -0.2183
     83  N         49.6660    7.2210    8.8380 N.3   256  PHE256     -0.1241
     84  CA        49.0280    8.5280    9.0040 C.3   256  PHE256      0.1605
     85  C         50.0790    9.5490    8.5650 C.2   256  PHE256      0.2264
     86  O         50.7190   10.1980    9.3920 O.2   256  PHE256     -0.2867
     87  CB        48.6740    8.7170   10.4840 C.3   256  PHE256      0.0534
     88  CG        47.6280    9.7660   10.7500 C.ar  256  PHE256     -0.0203
     89  CD1       46.3720    9.6910   10.1560 C.ar  256  PHE256     -0.0042
     90  CD2       47.8720   10.7800   11.6700 C.ar  256  PHE256     -0.0042
     91  CE1       45.3710   10.6110   10.4840 C.ar  256  PHE256     -0.0003
     92  CE2       46.8800   11.7000   12.0030 C.ar  256  PHE256     -0.0003
     93  CZ        45.6290   11.6110   11.4100 C.ar  256  PHE256     -0.0000
     94  N         50.0590   12.5680    7.3760 N.3   258  ASN258     -0.1225
     95  CA        49.9290   13.9700    7.7690 C.3   258  ASN258      0.1788
     96  C         50.4410   14.3300    9.1580 C.2   258  ASN258      0.2636
     97  O         50.7030   15.5010    9.4290 O.2   258  ASN258     -0.2714
     98  CB        48.4650   14.4110    7.6520 C.3   258  ASN258      0.1169
     99  CG        47.6130   13.8920    8.7910 C.2   258  ASN258      0.2627
    100  OD1       47.5310   14.5110    9.8510 O.2   258  ASN258     -0.2716
    101  ND2       46.9880   12.7390    8.5840 N.am  258  ASN258     -0.0877
    102  N         50.5860   13.3540   10.0470 N.am  259  GLY259     -0.1732
    103  CA        51.0630   13.7090   11.3740 C.2   259  GLY259      0.1340
    104  C         51.4080   12.6090   12.3560 C.2   259  GLY259      0.2521
    105  O         51.6460   12.9020   13.5260 O.2   259  GLY259     -0.2816
    106  N         56.4450   22.2440   10.4380 N.3   335  ILE335     -0.1231
    107  CA        55.7700   22.6660   11.6620 C.3   335  ILE335      0.1692
    108  C         54.6650   21.6950   12.0440 C.2   335  ILE335      0.2593
    109  O         53.9600   21.1870   11.1810 O.2   335  ILE335     -0.2718
    110  CB        55.1310   24.0670   11.4920 C.3   335  ILE335      0.0266
    111  CG1       56.1810   25.0670   11.0010 C.3   335  ILE335      0.0019
    112  CG2       54.5400   24.5390   12.8220 C.3   335  ILE335      0.0020
    113  CD1       55.6190   26.4600   10.7380 C.3   335  ILE335      0.0001
    114  N         54.5290   21.4430   13.3450 N.am  336  GLY336     -0.1942
    115  CA        53.4920   20.5510   13.8370 C.3   336  GLY336      0.2014
    116  C         52.8520   21.1460   15.0800 C.2   336  GLY336      0.2638
    117  O         53.5150   21.8730   15.8210 O.2   336  GLY336     -0.2714
    118  N         51.5750   20.8500   15.3120 N.am  337  ILE337     -0.1977
    119  CA        50.8780   21.3850   16.4820 C.3   337  ILE337      0.1596
    120  C         51.5500   20.9860   17.7930 C.2   337  ILE337      0.2287
    121  O         52.2820   19.9910   17.8600 O.2   337  ILE337     -0.2864
    122  CB        49.3920   20.9470   16.5170 C.3   337  ILE337      0.0276
    123  CG1       49.2810   19.4240   16.4210 C.3   337  ILE337      0.0022
    124  CG2       48.6270   21.6130   15.3790 C.3   337  ILE337      0.0022
    125  CD1       47.8680   18.9180   16.5670 C.3   337  ILE337      0.0001
@<TRIPOS>BOND
     1    65    66    1
     2    66    67    1
     3    66    69    1
     4    80    79    2
     5    67    68    2
     6    79    78    1
     7    77    78    1
     8    69    70    1
     9    78    81    1
    10    71    70   ar
    11    71    73   ar
    12    70    72   ar
    13    94    95    1
    14    73    75   ar
    15    98    95    1
    16    98    99    1
    17    42    41   ar
    18    42    40   ar
    19    41    39   ar
    20    95    96    1
    21    81    82    1
    22    40    38   ar
    23    39    38   ar
    24    85    84    1
    25    85    86    2
    26    72    74   ar
    27   101    99   am
    28    75    74   ar
    29    75    76    1
    30    99   100    2
    31    38    37    1
    32    83    84    1
    33    84    87    1
    34    96    97    2
    35    96   102    1
    36    12    11    2
    37    37    34    1
    38    34    33    1
    39    34    35    1
    40   102   103    2
    41    89    91   ar
    42    89    88   ar
    43   106   107    1
    44    11    10    1
    45    87    88    1
    46    91    93   ar
    47    36    35    2
    48    13    10    1
    49   113   111    1
    50    88    90   ar
    51    26    27    1
    52   111   110    1
    53    35    43   am
    54    10     9    1
    55   109   108    2
    56   103   104    1
    57    93    92   ar
    58   110   107    1
    59   110   112    1
    60    27    30    1
    61    27    28    1
    62   107   108    1
    63    90    92   ar
    64   108   114   am
    65     4     3    2
    66    43    44    1
    67   104   105    2
    68    30    32    1
    69    30    31    1
    70     9     3   am
    71    28    29    2
    72     3     2    1
    73    44    45    1
    74    44    47    1
    75   114   115    1
    76    45    46    2
    77    49    48   ar
    78   115   116    1
    79     2     1    1
    80     2     5    1
    81    48    47    1
    82    48    50   ar
    83    59    57   ar
    84    59    60   ar
    85    57    56   ar
    86    62    60   ar
    87    62    64   ar
    88    60    58   ar
    89   116   118   am
    90   116   117    2
    91     5     6    1
    92   118   119    1
    93    64    63   ar
    94   124   122    1
    95    56    58   ar
    96    56    55    1
    97    51    52    1
    98    58    61   ar
    99    55    52    1
   100    63    61   ar
   101    14    15    1
   102     7     6    1
   103     7     8    1
   104    52    53    1
   105   123   122    1
   106   123   125    1
   107   119   122    1
   108   119   120    1
   109    21    23   ar
   110    21    19   ar
   111    15    18    1
   112    15    16    1
   113    23    24   ar
   114    18    19    1
   115    19    20   ar
   116    53    54    2
   117    24    25    1
   118    24    22   ar
   119    17    16    2
   120   120   121    2
   121    20    22   ar
