@<TRIPOS>MOLECULE
tmp/3vwsA00.pdb
 157 151 0 0 0
SMALL
GASTEIGER

@<TRIPOS>ATOM
      1  N         25.2490   67.5170   24.9460 N.3    70  ARG70      -0.1245
      2  CA        26.3210   68.4740   25.2130 C.3    70  ARG70       0.1563
      3  C         26.0520   69.3180   26.4850 C.2    70  ARG70       0.2260
      4  O         26.9970   69.7910   27.1170 O.2    70  ARG70      -0.2867
      5  CB        26.4900   69.3820   23.9850 C.3    70  ARG70       0.0307
      6  CG        27.8680   69.9980   23.8380 C.3    70  ARG70       0.0489
      7  CD        27.7570   71.5050   23.8670 C.3    70  ARG70       0.2205
      8  NE        28.7840   72.1500   23.0480 N.pl3  70  ARG70      -0.0865
      9  CZ        29.9900   72.4970   23.4870 C.cat  70  ARG70       0.5346
     10  NH1       30.8540   73.0830   22.6710 N.pl3  70  ARG70       0.1354
     11  NH2       30.3380   72.2650   24.7480 N.pl3  70  ARG70       0.1354
     12  N         42.1940   61.4000    9.3610 N.3   116  PHE116     -0.1241
     13  CA        41.6190   62.5000   10.1470 C.3   116  PHE116      0.1605
     14  C         41.5960   63.8030    9.3640 C.2   116  PHE116      0.2264
     15  O         40.5840   64.5200    9.3960 O.2   116  PHE116     -0.2867
     16  CB        42.3940   62.6760   11.4460 C.3   116  PHE116      0.0534
     17  CG        41.7660   63.6080   12.4570 C.ar  116  PHE116     -0.0203
     18  CD1       40.8220   63.1410   13.3660 C.ar  116  PHE116     -0.0042
     19  CD2       42.1720   64.9360   12.5490 C.ar  116  PHE116     -0.0042
     20  CE1       40.2730   63.9890   14.3300 C.ar  116  PHE116     -0.0003
     21  CE2       41.6420   65.7800   13.5260 C.ar  116  PHE116     -0.0003
     22  CZ        40.6820   65.3030   14.4030 C.ar  116  PHE116     -0.0000
     23  N         38.9660   63.5580    6.5810 N.3   119  LYS119     -0.1231
     24  CA        37.6410   63.7040    7.2010 C.3   119  LYS119      0.1693
     25  C         37.3790   65.1700    7.5490 C.2   119  LYS119      0.2591
     26  O         36.3000   65.6810    7.2550 O.2   119  LYS119     -0.2718
     27  CB        37.5110   62.8430    8.4720 C.3   119  LYS119      0.0285
     28  CG        37.2970   61.3640    8.2020 C.3   119  LYS119      0.0035
     29  CD        37.0580   60.5970    9.4960 C.3   119  LYS119      0.0206
     30  CE        35.5930   60.4600    9.8460 C.3   119  LYS119      0.1093
     31  NZ        34.9490   59.3760    9.0550 N.3   119  LYS119     -0.1314
     32  N         38.3600   65.8450    8.1770 N.am  120  VAL120     -0.1980
     33  CA        38.2270   67.2570    8.5430 C.3   120  VAL120      0.1595
     34  C         37.9310   68.0920    7.2810 C.2   120  VAL120      0.2287
     35  O         36.8630   68.6940    7.2080 O.2   120  VAL120     -0.2864
     36  CB        39.4190   67.7730    9.3800 C.3   120  VAL120      0.0276
     37  CG1       39.5930   69.2800    9.2570 C.3   120  VAL120      0.0022
     38  CG2       39.2690   67.3700   10.8380 C.3   120  VAL120      0.0022
     39  N         34.5490   67.3110    5.3750 N.3   123  ASN123     -0.1240
     40  CA        33.3830   67.7390    6.1510 C.3   123  ASN123      0.1653
     41  C         33.3810   69.2530    6.4060 C.2   123  ASN123      0.2266
     42  O         32.3210   69.8060    6.7100 O.2   123  ASN123     -0.2867
     43  CB        33.2290   66.9170    7.4470 C.3   123  ASN123      0.1155
     44  CG        33.0560   65.4180    7.2310 C.2   123  ASN123      0.2627
     45  OD1       32.8890   64.9210    6.1100 O.2   123  ASN123     -0.2716
     46  ND2       33.0850   64.6530    8.3060 N.am  123  ASN123     -0.0877
     47  N         32.6800   71.3920   11.5630 N.3   129  VAL129     -0.1231
     48  CA        32.9850   69.9640   11.7260 C.3   129  VAL129      0.1692
     49  C         32.9020   69.5920   13.2200 C.2   129  VAL129      0.2592
     50  O         32.5530   68.4520   13.5530 O.2   129  VAL129     -0.2718
     51  CB        34.3830   69.5790   11.1340 C.3   129  VAL129      0.0266
     52  CG1       34.4960   68.0740   10.8970 C.3   129  VAL129      0.0020
     53  CG2       34.6890   70.3410    9.8510 C.3   129  VAL129      0.0020
     54  N         33.2360   70.5550   14.1090 N.am  130  PHE130     -0.1962
     55  CA        33.2720   70.3430   15.5590 C.3   130  PHE130      0.1771
     56  C         32.6060   71.4270   16.4110 C.2   130  PHE130      0.2620
     57  O         32.5360   72.5870   15.9940 O.2   130  PHE130     -0.2715
     58  CB        34.7220   70.1300   16.0170 C.3   130  PHE130      0.0574
     59  CG        35.4100   68.9260   15.4130 C.ar  130  PHE130     -0.0200
     60  CD1       35.0420   67.6340   15.7800 C.ar  130  PHE130     -0.0042
     61  CD2       36.4260   69.0830   14.4810 C.ar  130  PHE130     -0.0042
     62  CE1       35.6840   66.5250   15.2260 C.ar  130  PHE130     -0.0003
     63  CE2       37.0590   67.9710   13.9200 C.ar  130  PHE130     -0.0003
     64  CZ        36.6930   66.7030   14.3020 C.ar  130  PHE130     -0.0000
     65  N         32.1470   71.0400   17.6310 N.am  131  THR131     -0.1951
     66  CA        31.5010   71.9410   18.6010 C.3   131  THR131      0.1897
     67  C         32.4560   73.0240   19.1180 C.2   131  THR131      0.2313
     68  O         32.0000   74.1250   19.4390 O.2   131  THR131     -0.2863
     69  CB        30.7930   71.1780   19.7560 C.3   131  THR131      0.1794
     70  OG1       31.7350   70.4140   20.5230 O.3   131  THR131     -0.2208
     71  CG2       29.5990   70.3260   19.2820 C.3   131  THR131      0.0378
     72  N         42.1060   70.2180   22.6020 N.3   186  TRP186     -0.1241
     73  CA        40.8050   69.5920   22.3660 C.3   186  TRP186      0.1605
     74  C         40.8530   68.7410   21.0960 C.2   186  TRP186      0.2264
     75  O         40.5950   67.5430   21.1650 O.2   186  TRP186     -0.2867
     76  CB        39.6720   70.6310   22.2830 C.3   186  TRP186      0.0550
     77  CG        38.3100   70.0020   22.1830 C.ar  186  TRP186      0.0003
     78  CD1       37.5340   69.5630   23.2150 C.ar  186  TRP186      0.0946
     79  CD2       37.6150   69.6470   20.9800 C.ar  186  TRP186      0.0152
     80  NE1       36.3690   69.0060   22.7310 N.ar  186  TRP186     -0.2442
     81  CE2       36.4040   69.0230   21.3610 C.ar  186  TRP186      0.0810
     82  CE3       37.8860   69.8160   19.6110 C.ar  186  TRP186      0.0012
     83  CZ2       35.4510   68.6040   20.4250 C.ar  186  TRP186      0.0191
     84  CZ3       36.9560   69.3730   18.6870 C.ar  186  TRP186      0.0001
     85  CH2       35.7570   68.7720   19.0940 C.ar  186  TRP186      0.0015
     86  N         40.6980   64.6060   20.5240 N.3   190  ARG190     -0.1245
     87  CA        39.7980   63.9280   19.5850 C.3   190  ARG190      0.1563
     88  C         40.5790   63.0960   18.5750 C.2   190  ARG190      0.2260
     89  O         40.2410   61.9300   18.3620 O.2   190  ARG190     -0.2867
     90  CB        38.8270   64.9100   18.9170 C.3   190  ARG190      0.0307
     91  CG        37.3920   64.7930   19.4530 C.3   190  ARG190      0.0489
     92  CD        37.1400   65.4460   20.8030 C.3   190  ARG190      0.2205
     93  NE        37.4670   64.6070   21.9630 N.pl3 190  ARG190     -0.0865
     94  CZ        37.8040   65.1020   23.1560 C.cat 190  ARG190      0.5346
     95  NH1       37.8860   66.4150   23.3380 N.pl3 190  ARG190      0.1354
     96  NH2       38.0840   64.2880   24.1660 N.pl3 190  ARG190      0.1354
     97  N         40.3390   59.0770   18.0260 N.3   194  PHE194     -0.1241
     98  CA        40.1540   58.6450   16.6440 C.3   194  PHE194      0.1605
     99  C         41.2220   57.6390   16.2170 C.2   194  PHE194      0.2264
    100  O         40.8890   56.6000   15.6520 O.2   194  PHE194     -0.2867
    101  CB        40.0670   59.8430   15.6780 C.3   194  PHE194      0.0534
    102  CG        40.0230   59.4690   14.2080 C.ar  194  PHE194     -0.0203
    103  CD1       38.8420   59.0250   13.6180 C.ar  194  PHE194     -0.0042
    104  CD2       41.1720   59.5320   13.4200 C.ar  194  PHE194     -0.0042
    105  CE1       38.8180   58.6460   12.2740 C.ar  194  PHE194     -0.0003
    106  CE2       41.1360   59.1650   12.0700 C.ar  194  PHE194     -0.0003
    107  CZ        39.9540   58.7540   11.5020 C.ar  194  PHE194     -0.0000
    108  N         34.2010   52.8770   13.4880 N.3   201  ASN201     -0.1240
    109  CA        33.4070   53.5630   12.4830 C.3   201  ASN201      0.1653
    110  C         34.0330   53.4620   11.0650 C.2   201  ASN201      0.2266
    111  O         33.3270   53.0450   10.1530 O.2   201  ASN201     -0.2867
    112  CB        33.0460   54.9970   12.9150 C.3   201  ASN201      0.1155
    113  CG        31.8760   55.0640   13.9080 C.2   201  ASN201      0.2627
    114  OD1       31.3090   54.0440   14.3610 O.2   201  ASN201     -0.2716
    115  ND2       31.4660   56.2790   14.2550 N.am  201  ASN201     -0.0877
    116  N         30.1050   61.7330   26.3690 N.3   309  SER309     -0.1202
    117  CA        29.3080   62.0390   25.1720 C.3   309  SER309      0.2020
    118  C         30.0490   62.8450   24.1030 C.2   309  SER309      0.2619
    119  O         29.6420   62.8320   22.9360 O.2   309  SER309     -0.2717
    120  CB        28.0240   62.7670   25.5650 C.3   309  SER309      0.2103
    121  OG        27.4030   62.1680   26.6910 O.3   309  SER309     -0.2182
    122  N         31.0870   63.5730   24.5180 N.am  310  GLY310     -0.1956
    123  CA        31.8740   64.4200   23.6280 C.3   310  GLY310      0.1869
    124  C         33.0070   63.7060   22.9210 C.2   310  GLY310      0.2309
    125  O         33.4770   64.1630   21.8730 O.2   310  GLY310     -0.2863
    126  N         35.1950   60.7020   20.9160 N.3   312  VAL312     -0.1245
    127  CA        35.1210   59.8530   19.6970 C.3   312  VAL312      0.1561
    128  C         34.9370   58.3790   20.1590 C.2   312  VAL312      0.2260
    129  O         35.5520   57.9820   21.1540 O.2   312  VAL312     -0.2867
    130  CB        36.4180   59.9730   18.8170 C.3   312  VAL312      0.0252
    131  CG1       36.3660   59.0670   17.5850 C.3   312  VAL312      0.0019
    132  CG2       36.6990   61.4150   18.4010 C.3   312  VAL312      0.0019
    133  N         25.6380   71.6010    5.9190 N.3   501  ARG501     -0.1245
    134  CA        24.8440   70.4320    6.2190 C.3   501  ARG501      0.1563
    135  C         23.4180   70.7060    6.6540 C.2   501  ARG501      0.2260
    136  O         23.1360   71.7110    7.3130 O.2   501  ARG501     -0.2867
    137  CB        25.5860   69.4560    7.1460 C.3   501  ARG501      0.0307
    138  CG        26.0000   69.9960    8.5030 C.3   501  ARG501      0.0489
    139  CD        27.1840   69.2080    9.0580 C.3   501  ARG501      0.2205
    140  NE        26.9690   67.7610    8.9850 N.pl3 501  ARG501     -0.0865
    141  CZ        27.9340   66.8580    8.8620 C.cat 501  ARG501      0.5346
    142  NH1       29.2050   67.2370    8.8110 N.pl3 501  ARG501      0.1354
    143  NH2       27.6370   65.5690    8.7950 N.pl3 501  ARG501      0.1354
    144  N         23.1720   66.3510   11.0930 N.3   504  TRP504     -0.1241
    145  CA        24.3760   65.7860   11.6900 C.3   504  TRP504      0.1605
    146  C         24.2000   64.2880   11.9020 C.2   504  TRP504      0.2264
    147  O         25.1090   63.6250   12.4130 O.2   504  TRP504     -0.2867
    148  CB        24.6440   66.4550   13.0360 C.3   504  TRP504      0.0550
    149  CG        25.3220   67.7760   12.9270 C.ar  504  TRP504      0.0003
    150  CD1       24.7620   69.0060   13.1140 C.ar  504  TRP504      0.0946
    151  CD2       26.7080   68.0000   12.6530 C.ar  504  TRP504      0.0152
    152  NE1       25.7230   69.9850   12.9960 N.ar  504  TRP504     -0.2442
    153  CE2       26.9290   69.3950   12.7210 C.ar  504  TRP504      0.0810
    154  CE3       27.7970   67.1510   12.3880 C.ar  504  TRP504      0.0012
    155  CZ2       28.1900   69.9630   12.5030 C.ar  504  TRP504      0.0191
    156  CZ3       29.0430   67.7140   12.1690 C.ar  504  TRP504      0.0001
    157  CH2       29.2350   69.1010   12.2460 C.ar  504  TRP504      0.0015
@<TRIPOS>BOND
     1    39    40    1
     2   133   134    1
     3    45    44    2
     4    40    41    1
     5    40    43    1
     6   134   135    1
     7   134   137    1
     8    41    42    2
     9    23    24    1
    10   135   136    2
    11   137   138    1
    12    24    25    1
    13    24    27    1
    14    35    34    2
    15    44    43    1
    16    44    46   am
    17    26    25    2
    18    34    33    1
    19    25    32   am
    20    32    33    1
    21    28    27    1
    22    28    29    1
    23   138   139    1
    24    33    36    1
    25   143   141    1
    26   142   141    1
    27   141   140    2
    28   140   139    1
    29    31    30    1
    30    37    36    1
    31    12    13    1
    32    14    15    2
    33    14    13    1
    34    36    38    1
    35    29    30    1
    36    53    51    1
    37    13    16    1
    38   111   110    2
    39    52    51    1
    40   110   109    1
    41   144   145    1
    42    51    48    1
    43    16    17    1
    44   107   106   ar
    45   107   105   ar
    46    47    48    1
    47   145   146    1
    48   145   148    1
    49    48    49    1
    50   146   147    2
    51   106   104   ar
    52   156   157   ar
    53   156   154   ar
    54   157   155   ar
    55   105   103   ar
    56   154   151   ar
    57    17    19   ar
    58    17    18   ar
    59   109   112    1
    60   109   108    1
    61   155   153   ar
    62    19    21   ar
    63   151   153   ar
    64   151   149   ar
    65   153   152   ar
    66   112   113    1
    67   149   148    1
    68   149   150   ar
    69   152   150   ar
    70    49    50    2
    71    49    54   am
    72    18    20   ar
    73   104   102   ar
    74    21    22   ar
    75   103   102   ar
    76   113   115   am
    77   113   114    2
    78    63    64   ar
    79    63    61   ar
    80    54    55    1
    81   102   101    1
    82    64    62   ar
    83    20    22   ar
    84    61    59   ar
    85    62    60   ar
    86    59    60   ar
    87    59    58    1
    88    55    58    1
    89    55    56    1
    90   100    99    2
    91   101    98    1
    92    57    56    2
    93    99    98    1
    94    56    65   am
    95    98    97    1
    96   131   130    1
    97    65    66    1
    98    89    88    2
    99   132   130    1
   100    88    87    1
   101    66    67    1
   102    66    69    1
   103    84    85   ar
   104    84    82   ar
   105   130   127    1
   106    90    91    1
   107    90    87    1
   108    85    83   ar
   109    67    68    2
   110    71    69    1
   111    91    92    1
   112    87    86    1
   113    82    79   ar
   114   127   128    1
   115   127   126    1
   116    69    70    1
   117   128   129    2
   118    83    81   ar
   119    92    93    1
   120    79    81   ar
   121    79    77   ar
   122    74    75    2
   123    74    73    1
   124    81    80   ar
   125   125   124    2
   126    93    94    2
   127    77    76    1
   128    77    78   ar
   129    76    73    1
   130    73    72    1
   131    10     9    1
   132    80    78   ar
   133   124   123    1
   134   119   118    2
   135     8     9    2
   136     8     7    1
   137    94    95    1
   138    94    96    1
   139     9    11    1
   140   123   122    1
   141     6     7    1
   142     6     5    1
   143     5     2    1
   144   118   122   am
   145   118   117    1
   146     1     2    1
   147   117   120    1
   148   117   116    1
   149     2     3    1
   150   120   121    1
   151     3     4    2
