@<TRIPOS>MOLECULE
tmp/3vwsA01.pdb
 177 173 0 0 0
SMALL
GASTEIGER

@<TRIPOS>ATOM
      1  N         38.9660   63.5580    6.5810 N.3   119  LYS119     -0.1245
      2  CA        37.6410   63.7040    7.2010 C.3   119  LYS119      0.1561
      3  C         37.3790   65.1700    7.5490 C.2   119  LYS119      0.2260
      4  O         36.3000   65.6810    7.2550 O.2   119  LYS119     -0.2867
      5  CB        37.5110   62.8430    8.4720 C.3   119  LYS119      0.0271
      6  CG        37.2970   61.3640    8.2020 C.3   119  LYS119      0.0035
      7  CD        37.0580   60.5970    9.4960 C.3   119  LYS119      0.0206
      8  CE        35.5930   60.4600    9.8460 C.3   119  LYS119      0.1093
      9  NZ        34.9490   59.3760    9.0550 N.3   119  LYS119     -0.1314
     10  N         34.5490   67.3110    5.3750 N.3   123  ASN123     -0.1240
     11  CA        33.3830   67.7390    6.1510 C.3   123  ASN123      0.1653
     12  C         33.3810   69.2530    6.4060 C.2   123  ASN123      0.2266
     13  O         32.3210   69.8060    6.7100 O.2   123  ASN123     -0.2867
     14  CB        33.2290   66.9170    7.4470 C.3   123  ASN123      0.1155
     15  CG        33.0560   65.4180    7.2310 C.2   123  ASN123      0.2627
     16  OD1       32.8890   64.9210    6.1100 O.2   123  ASN123     -0.2716
     17  ND2       33.0850   64.6530    8.3060 N.am  123  ASN123     -0.0877
     18  N         33.2360   70.5550   14.1090 N.3   130  PHE130     -0.1241
     19  CA        33.2720   70.3430   15.5590 C.3   130  PHE130      0.1605
     20  C         32.6060   71.4270   16.4110 C.2   130  PHE130      0.2264
     21  O         32.5360   72.5870   15.9940 O.2   130  PHE130     -0.2867
     22  CB        34.7220   70.1300   16.0170 C.3   130  PHE130      0.0534
     23  CG        35.4100   68.9260   15.4130 C.ar  130  PHE130     -0.0203
     24  CD1       35.0420   67.6340   15.7800 C.ar  130  PHE130     -0.0042
     25  CD2       36.4260   69.0830   14.4810 C.ar  130  PHE130     -0.0042
     26  CE1       35.6840   66.5250   15.2260 C.ar  130  PHE130     -0.0003
     27  CE2       37.0590   67.9710   13.9200 C.ar  130  PHE130     -0.0003
     28  CZ        36.6930   66.7030   14.3020 C.ar  130  PHE130     -0.0000
     29  N         42.1060   70.2180   22.6020 N.3   186  TRP186     -0.1241
     30  CA        40.8050   69.5920   22.3660 C.3   186  TRP186      0.1605
     31  C         40.8530   68.7410   21.0960 C.2   186  TRP186      0.2264
     32  O         40.5950   67.5430   21.1650 O.2   186  TRP186     -0.2867
     33  CB        39.6720   70.6310   22.2830 C.3   186  TRP186      0.0550
     34  CG        38.3100   70.0020   22.1830 C.ar  186  TRP186      0.0003
     35  CD1       37.5340   69.5630   23.2150 C.ar  186  TRP186      0.0946
     36  CD2       37.6150   69.6470   20.9800 C.ar  186  TRP186      0.0152
     37  NE1       36.3690   69.0060   22.7310 N.ar  186  TRP186     -0.2442
     38  CE2       36.4040   69.0230   21.3610 C.ar  186  TRP186      0.0810
     39  CE3       37.8860   69.8160   19.6110 C.ar  186  TRP186      0.0012
     40  CZ2       35.4510   68.6040   20.4250 C.ar  186  TRP186      0.0191
     41  CZ3       36.9560   69.3730   18.6870 C.ar  186  TRP186      0.0001
     42  CH2       35.7570   68.7720   19.0940 C.ar  186  TRP186      0.0015
     43  N         40.6980   64.6060   20.5240 N.3   190  ARG190     -0.1245
     44  CA        39.7980   63.9280   19.5850 C.3   190  ARG190      0.1563
     45  C         40.5790   63.0960   18.5750 C.2   190  ARG190      0.2260
     46  O         40.2410   61.9300   18.3620 O.2   190  ARG190     -0.2867
     47  CB        38.8270   64.9100   18.9170 C.3   190  ARG190      0.0307
     48  CG        37.3920   64.7930   19.4530 C.3   190  ARG190      0.0489
     49  CD        37.1400   65.4460   20.8030 C.3   190  ARG190      0.2205
     50  NE        37.4670   64.6070   21.9630 N.pl3 190  ARG190     -0.0865
     51  CZ        37.8040   65.1020   23.1560 C.cat 190  ARG190      0.5346
     52  NH1       37.8860   66.4150   23.3380 N.pl3 190  ARG190      0.1354
     53  NH2       38.0840   64.2880   24.1660 N.pl3 190  ARG190      0.1354
     54  N         34.2010   52.8770   13.4880 N.3   201  ASN201     -0.1225
     55  CA        33.4070   53.5630   12.4830 C.3   201  ASN201      0.1785
     56  C         34.0330   53.4620   11.0650 C.2   201  ASN201      0.2597
     57  O         33.3270   53.0450   10.1530 O.2   201  ASN201     -0.2718
     58  CB        33.0460   54.9970   12.9150 C.3   201  ASN201      0.1169
     59  CG        31.8760   55.0640   13.9080 C.2   201  ASN201      0.2627
     60  OD1       31.3090   54.0440   14.3610 O.2   201  ASN201     -0.2716
     61  ND2       31.4660   56.2790   14.2550 N.am  201  ASN201     -0.0877
     62  N         35.3650   53.7120   10.9190 N.am  202  GLU202     -0.1979
     63  CA        36.1040   53.6610    9.6320 C.3   202  GLU202      0.1602
     64  C         36.0560   52.2870    8.9650 C.2   202  GLU202      0.2287
     65  O         35.9260   52.2100    7.7450 O.2   202  GLU202     -0.2864
     66  CB        37.5690   54.1410    9.7820 C.3   202  GLU202      0.0415
     67  CG        37.7330   55.5500   10.3190 C.3   202  GLU202      0.1163
     68  CD        36.8630   56.5890    9.6440 C.2   202  GLU202      0.3649
     69  OE1       37.0820   56.8510    8.4410 O.co2 202  GLU202     -0.2457
     70  OE2       35.9500   57.1290   10.3110 O.co2 202  GLU202     -0.2457
     71  N         30.1050   61.7330   26.3690 N.3   309  SER309     -0.1202
     72  CA        29.3080   62.0390   25.1720 C.3   309  SER309      0.2020
     73  C         30.0490   62.8450   24.1030 C.2   309  SER309      0.2619
     74  O         29.6420   62.8320   22.9360 O.2   309  SER309     -0.2717
     75  CB        28.0240   62.7670   25.5650 C.3   309  SER309      0.2103
     76  OG        27.4030   62.1680   26.6910 O.3   309  SER309     -0.2182
     77  N         31.0870   63.5730   24.5180 N.am  310  GLY310     -0.1942
     78  CA        31.8740   64.4200   23.6280 C.3   310  GLY310      0.2014
     79  C         33.0070   63.7060   22.9210 C.2   310  GLY310      0.2639
     80  O         33.4770   64.1630   21.8730 O.2   310  GLY310     -0.2714
     81  N         33.4220   62.5610   23.4920 N.am  311  GLN311     -0.1963
     82  CA        34.5330   61.7100   23.0900 C.3   311  GLN311      0.1733
     83  C         34.2190   60.8420   21.8720 C.2   311  GLN311      0.2616
     84  O         33.1310   60.2730   21.8220 O.2   311  GLN311     -0.2715
     85  CB        34.9240   60.8200   24.2910 C.3   311  GLN311      0.0408
     86  CG        35.4030   61.6030   25.5130 C.3   311  GLN311      0.0908
     87  CD        35.6510   60.7570   26.7410 C.2   311  GLN311      0.2608
     88  OE1       34.9220   59.8120   27.0410 O.2   311  GLN311     -0.2717
     89  NE2       36.6310   61.1440   27.5450 N.am  311  GLN311     -0.0878
     90  N         35.1950   60.7020   20.9160 N.am  312  VAL312     -0.1963
     91  CA        35.1210   59.8530   19.6970 C.3   312  VAL312      0.1727
     92  C         34.9370   58.3790   20.1590 C.2   312  VAL312      0.2617
     93  O         35.5520   57.9820   21.1540 O.2   312  VAL312     -0.2715
     94  CB        36.4180   59.9730   18.8170 C.3   312  VAL312      0.0290
     95  CG1       36.3660   59.0670   17.5850 C.3   312  VAL312      0.0023
     96  CG2       36.6990   61.4150   18.4010 C.3   312  VAL312      0.0023
     97  N         34.1340   57.6020   19.4360 N.am  313  GLY313     -0.1940
     98  CA        33.9050   56.1910   19.7560 C.3   313  GLY313      0.2014
     99  C         32.6000   55.9260   20.4880 C.2   313  GLY313      0.2640
    100  O         32.2020   54.7710   20.6700 O.2   313  GLY313     -0.2714
    101  N         31.9180   57.0010   20.8830 N.am  314  THR314     -0.1936
    102  CA        30.6540   56.9860   21.6360 C.3   314  THR314      0.2028
    103  C         29.5790   56.1960   20.8910 C.2   314  THR314      0.2642
    104  O         28.9810   55.2990   21.4900 O.2   314  THR314     -0.2714
    105  CB        30.2520   58.4300   22.0120 C.3   314  THR314      0.1808
    106  OG1       31.1310   58.8830   23.0410 O.3   314  THR314     -0.2208
    107  CG2       28.7970   58.5470   22.4920 C.3   314  THR314      0.0379
    108  N         29.3740   56.4810   19.5930 N.am  315  TYR315     -0.1959
    109  CA        28.3750   55.7680   18.7750 C.3   315  TYR315      0.1771
    110  C         28.5310   54.2550   18.8090 C.2   315  TYR315      0.2620
    111  O         27.5430   53.5370   19.0420 O.2   315  TYR315     -0.2715
    112  CB        28.3780   56.2330   17.3100 C.3   315  TYR315      0.0574
    113  CG        27.3540   55.5030   16.4720 C.ar  315  TYR315     -0.0198
    114  CD1       27.7080   54.3840   15.7140 C.ar  315  TYR315     -0.0009
    115  CD2       26.0080   55.8530   16.5240 C.ar  315  TYR315     -0.0009
    116  CE1       26.7430   53.6610   14.9910 C.ar  315  TYR315      0.0417
    117  CE2       25.0410   55.1390   15.8100 C.ar  315  TYR315      0.0417
    118  CZ        25.4140   54.0520   15.0370 C.ar  315  TYR315      0.1957
    119  OH        24.4400   53.3890   14.3180 O.3   315  TYR315     -0.2866
    120  N         29.7440   53.8040   18.4910 N.am  316  GLY316     -0.1954
    121  CA        30.0960   52.3960   18.3950 C.3   316  GLY316      0.1869
    122  C         29.9940   51.6990   19.7280 C.2   316  GLY316      0.2309
    123  O         29.4650   50.5880   19.8200 O.2   316  GLY316     -0.2863
    124  N         25.6380   71.6010    5.9190 N.3   501  ARG501     -0.1245
    125  CA        24.8440   70.4320    6.2190 C.3   501  ARG501      0.1563
    126  C         23.4180   70.7060    6.6540 C.2   501  ARG501      0.2260
    127  O         23.1360   71.7110    7.3130 O.2   501  ARG501     -0.2867
    128  CB        25.5860   69.4560    7.1460 C.3   501  ARG501      0.0307
    129  CG        26.0000   69.9960    8.5030 C.3   501  ARG501      0.0489
    130  CD        27.1840   69.2080    9.0580 C.3   501  ARG501      0.2205
    131  NE        26.9690   67.7610    8.9850 N.pl3 501  ARG501     -0.0865
    132  CZ        27.9340   66.8580    8.8620 C.cat 501  ARG501      0.5346
    133  NH1       29.2050   67.2370    8.8110 N.pl3 501  ARG501      0.1354
    134  NH2       27.6370   65.5690    8.7950 N.pl3 501  ARG501      0.1354
    135  N         23.1720   66.3510   11.0930 N.3   504  TRP504     -0.1227
    136  CA        24.3760   65.7860   11.6900 C.3   504  TRP504      0.1737
    137  C         24.2000   64.2880   11.9020 C.2   504  TRP504      0.2596
    138  O         25.1090   63.6250   12.4130 O.2   504  TRP504     -0.2718
    139  CB        24.6440   66.4550   13.0360 C.3   504  TRP504      0.0564
    140  CG        25.3220   67.7760   12.9270 C.ar  504  TRP504      0.0003
    141  CD1       24.7620   69.0060   13.1140 C.ar  504  TRP504      0.0946
    142  CD2       26.7080   68.0000   12.6530 C.ar  504  TRP504      0.0152
    143  NE1       25.7230   69.9850   12.9960 N.ar  504  TRP504     -0.2442
    144  CE2       26.9290   69.3950   12.7210 C.ar  504  TRP504      0.0810
    145  CE3       27.7970   67.1510   12.3880 C.ar  504  TRP504      0.0012
    146  CZ2       28.1900   69.9630   12.5030 C.ar  504  TRP504      0.0191
    147  CZ3       29.0430   67.7140   12.1690 C.ar  504  TRP504      0.0001
    148  CH2       29.2350   69.1010   12.2460 C.ar  504  TRP504      0.0015
    149  N         23.0120   63.7650   11.5310 N.am  505  SER505     -0.1938
    150  CA        22.6410   62.3630   11.6680 C.3   505  SER505      0.2055
    151  C         23.6710   61.4540   11.0090 C.2   505  SER505      0.2642
    152  O         24.1200   61.7340    9.8880 O.2   505  SER505     -0.2714
    153  CB        21.2560   62.1170   11.0770 C.3   505  SER505      0.2130
    154  OG        21.0220   60.7350   10.8420 O.3   505  SER505     -0.2179
    155  N         24.0130   60.3460   11.7050 N.am  506  ILE506     -0.1977
    156  CA        24.9460   59.3290   11.2320 C.3   506  ILE506      0.1596
    157  C         24.3640   58.5870   10.0150 C.2   506  ILE506      0.2287
    158  O         25.1230   58.0160    9.2310 O.2   506  ILE506     -0.2864
    159  CB        25.3900   58.3820   12.3980 C.3   506  ILE506      0.0276
    160  CG1       26.7680   57.7320   12.1140 C.3   506  ILE506      0.0022
    161  CG2       24.3170   57.3420   12.7640 C.3   506  ILE506      0.0022
    162  CD1       27.5860   57.2730   13.3240 C.3   506  ILE506      0.0001
    163  N         22.5630   60.0720    7.5280 N.3   508  ALA508     -0.1245
    164  CA        22.5020   60.9530    6.3640 C.3   508  ALA508      0.1562
    165  C         23.7020   60.6890    5.4530 C.2   508  ALA508      0.2260
    166  O         24.8410   60.6810    5.9380 O.2   508  ALA508     -0.2867
    167  CB        22.4790   62.4050    6.8090 C.3   508  ALA508      0.0290
    168  N         23.8820   62.4580    2.4540 N.3   510  HIS510     -0.1241
    169  CA        24.0370   63.7400    1.7860 C.3   510  HIS510      0.1621
    170  C         24.0130   63.6970    0.2320 C.2   510  HIS510      0.2264
    171  O         24.5890   64.5700   -0.4220 O.2   510  HIS510     -0.2867
    172  CB        25.2780   64.4620    2.3670 C.3   510  HIS510      0.0745
    173  CG        25.2340   64.5830    3.8670 C.ar  510  HIS510      0.0817
    174  ND1       24.5690   65.6290    4.4890 N.ar  510  HIS510     -0.2268
    175  CD2       25.7090   63.7450    4.8210 C.ar  510  HIS510      0.1154
    176  CE1       24.6850   65.4080    5.7910 C.ar  510  HIS510      0.1986
    177  NE2       25.3570   64.2850    6.0410 N.ar  510  HIS510     -0.2212
@<TRIPOS>BOND
     1   171   170    2
     2   170   169    1
     3   169   172    1
     4   169   168    1
     5   172   173    1
     6   173   174   ar
     7   173   175   ar
     8   174   176   ar
     9   175   177   ar
    10    10    11    1
    11   165   166    2
    12   165   164    1
    13   176   177   ar
    14   124   125    1
    15    16    15    2
    16    11    12    1
    17    11    14    1
    18   125   126    1
    19   125   128    1
    20   164   167    1
    21   164   163    1
    22    12    13    2
    23     1     2    1
    24   126   127    2
    25   128   129    1
    26     2     3    1
    27     2     5    1
    28    15    14    1
    29    15    17   am
    30     4     3    2
    31    65    64    2
    32     6     5    1
    33     6     7    1
    34    69    68   ar
    35   129   130    1
    36   134   132    1
    37   133   132    1
    38   132   131    2
    39    64    63    1
    40   131   130    1
    41     9     8    1
    42   158   157    2
    43     7     8    1
    44    63    66    1
    45    63    62    1
    46    68    70   ar
    47    68    67    1
    48    66    67    1
    49   152   151    2
    50   157   156    1
    51    57    56    2
    52   154   153    1
    53    62    56   am
    54   151   150    1
    55   151   155   am
    56    56    55    1
    57   153   150    1
    58   135   136    1
    59   156   155    1
    60   156   159    1
    61   149   150    1
    62   149   137   am
    63   136   137    1
    64   136   139    1
    65   137   138    2
    66   160   159    1
    67   160   162    1
    68   147   148   ar
    69   147   145   ar
    70   148   146   ar
    71   145   142   ar
    72   159   161    1
    73    55    58    1
    74    55    54    1
    75   146   144   ar
    76   142   144   ar
    77   142   140   ar
    78   144   143   ar
    79    58    59    1
    80   140   139    1
    81   140   141   ar
    82   143   141   ar
    83    59    61   am
    84    59    60    2
    85    27    28   ar
    86    27    25   ar
    87    18    19    1
    88    28    26   ar
    89   119   118    1
    90    25    23   ar
    91   116   118   ar
    92   116   114   ar
    93   118   117   ar
    94    26    24   ar
    95    23    24   ar
    96    23    22    1
    97    19    22    1
    98    19    20    1
    99   114   113   ar
   100   117   115   ar
   101    21    20    2
   102   113   115   ar
   103   113   112    1
   104   112   109    1
   105    95    94    1
   106    46    45    2
   107   121   120    1
   108   121   122    1
   109    96    94    1
   110   120   110   am
   111    45    44    1
   112    41    42   ar
   113    41    39   ar
   114   109   110    1
   115   109   108    1
   116   110   111    2
   117    94    91    1
   118    47    48    1
   119    47    44    1
   120    42    40   ar
   121    97    98    1
   122    97    92   am
   123    48    49    1
   124    44    43    1
   125   108   103   am
   126    39    36   ar
   127    91    92    1
   128    91    90    1
   129   122   123    2
   130    98    99    1
   131    92    93    2
   132    40    38   ar
   133    99   100    2
   134    99   101   am
   135    49    50    1
   136   101   102    1
   137   103   104    2
   138   103   102    1
   139    90    83   am
   140    36    38   ar
   141    36    34   ar
   142    31    32    2
   143    31    30    1
   144    38    37   ar
   145   102   105    1
   146    84    83    2
   147    83    82    1
   148    80    79    2
   149    50    51    2
   150   105   107    1
   151   105   106    1
   152    34    33    1
   153    34    35   ar
   154    33    30    1
   155    30    29    1
   156    37    35   ar
   157    79    81   am
   158    79    78    1
   159    74    73    2
   160    82    81    1
   161    82    85    1
   162    51    52    1
   163    51    53    1
   164    78    77    1
   165    73    77   am
   166    73    72    1
   167    85    86    1
   168    72    75    1
   169    72    71    1
   170    86    87    1
   171    75    76    1
   172    87    88    2
   173    87    89   am
