@<TRIPOS>MOLECULE
tmp/3vwxC00.pdb
 162 163 0 0 0
SMALL
GASTEIGER

@<TRIPOS>ATOM
      1  N        -27.3110   10.8420   -4.0730 N.3    10  SER10      -0.1203
      2  CA       -26.2540   10.6530   -5.1050 C.3    10  SER10       0.2005
      3  C        -25.7900   11.9550   -5.7340 C.2    10  SER10       0.2461
      4  O        -26.6150   12.6670   -6.3230 O.2    10  SER10      -0.2732
      5  CB       -26.7690    9.7320   -6.1980 C.3    10  SER10       0.2103
      6  OG       -25.8710    9.7160   -7.3080 O.3    10  SER10      -0.2182
      7  N        -24.4850   12.3160   -5.6150 N.am   11  PRO11      -0.2718
      8  CA       -23.9900   13.5520   -6.1810 C.3    11  PRO11       0.1520
      9  C        -24.2760   13.7120   -7.6910 C.2    11  PRO11       0.2440
     10  O        -24.8150   14.7520   -8.1020 O.2    11  PRO11      -0.2731
     11  CB       -22.4750   13.5610   -5.8800 C.3    11  PRO11       0.0310
     12  CG       -22.3250   12.6130   -4.7470 C.3    11  PRO11       0.0237
     13  CD       -23.3880   11.5940   -4.9150 C.3    11  PRO11       0.0939
     14  N        -24.0170   12.6560   -8.5010 N.am   12  PRO12      -0.2727
     15  CA       -24.2550   12.8390   -9.9180 C.3    12  PRO12       0.1402
     16  C        -25.7020   13.0190  -10.3090 C.2    12  PRO12       0.2269
     17  O        -26.0340   13.7300  -11.2740 O.2    12  PRO12      -0.2865
     18  CB       -23.5770   11.6490  -10.5490 C.3    12  PRO12       0.0296
     19  CG       -23.4280   10.5880   -9.4630 C.3    12  PRO12       0.0237
     20  CD       -23.3010   11.4220   -8.2140 C.3    12  PRO12       0.0939
     21  N        -30.7350    2.3950   -4.2770 N.3    34  LEU34      -0.1245
     22  CA       -29.4460    1.7250   -4.2660 C.3    34  LEU34       0.1561
     23  C        -29.3050    0.8210   -3.0220 C.2    34  LEU34       0.2260
     24  O        -28.7270   -0.2780   -3.1170 O.2    34  LEU34      -0.2867
     25  CB       -28.3080    2.7320   -4.2710 C.3    34  LEU34       0.0270
     26  CG       -28.3780    3.7230   -5.4380 C.3    34  LEU34       0.0019
     27  CD1      -27.2390    4.7250   -5.3210 C.3    34  LEU34       0.0001
     28  CD2      -28.4240    3.0310   -6.7750 C.3    34  LEU34       0.0001
     29  N        -30.9750   -1.0440   -8.4300 N.3    39  HIS39      -0.1241
     30  CA       -30.1010   -0.7990   -9.6240 C.3    39  HIS39       0.1621
     31  C        -29.4970   -2.0980  -10.1690 C.2    39  HIS39       0.2264
     32  O        -28.9700   -2.1030  -11.3040 O.2    39  HIS39      -0.2867
     33  CB       -28.9760    0.2070   -9.2760 C.3    39  HIS39       0.0745
     34  CG       -28.0990   -0.2020   -8.1370 C.ar   39  HIS39       0.0817
     35  ND1      -28.5880   -0.5850   -6.8950 N.ar   39  HIS39      -0.2268
     36  CD2      -26.7500   -0.3160   -8.0550 C.ar   39  HIS39       0.1154
     37  CE1      -27.5760   -0.8770   -6.1010 C.ar   39  HIS39       0.1986
     38  NE2      -26.4510   -0.7550   -6.7920 N.ar   39  HIS39      -0.2212
     39  N        -24.0010   -0.6060  -16.4420 N.3    50  GLN50      -0.1231
     40  CA       -23.0240   -0.2120  -15.4280 C.3    50  GLN50       0.1698
     41  C        -23.7200   -0.1360  -14.0240 C.2    50  GLN50       0.2592
     42  O        -23.0660   -0.0500  -12.9860 O.2    50  GLN50      -0.2718
     43  CB       -22.3660    1.1370  -15.8060 C.3    50  GLN50       0.0381
     44  CG       -21.0860    1.3830  -15.0680 C.3    50  GLN50       0.0905
     45  CD       -20.5750    2.7980  -15.2900 C.2    50  GLN50       0.2608
     46  OE1      -20.8400    3.3680  -16.3300 O.2    50  GLN50      -0.2717
     47  NE2      -19.8260    3.3570  -14.3160 N.am   50  GLN50      -0.0878
     48  N        -25.0560   -0.2870  -14.0500 N.am   51  HIS51      -0.1962
     49  CA       -25.8950   -0.2170  -12.8620 C.3    51  HIS51       0.1787
     50  C        -25.5140    0.9570  -11.9960 C.2    51  HIS51       0.2621
     51  O        -25.3090    0.8230  -10.8010 O.2    51  HIS51      -0.2715
     52  CB       -25.9550   -1.5440  -12.0660 C.3    51  HIS51       0.0785
     53  CG       -24.6470   -2.1390  -11.6540 C.ar   51  HIS51       0.0821
     54  ND1      -23.9330   -1.7140  -10.5550 N.ar   51  HIS51      -0.2267
     55  CD2      -23.9840   -3.2240  -12.1270 C.ar   51  HIS51       0.1154
     56  CE1      -22.8640   -2.4570  -10.3890 C.ar   51  HIS51       0.1986
     57  NE2      -22.8950   -3.4230  -11.3040 N.ar   51  HIS51      -0.2212
     58  N        -25.4140    2.1380  -12.6280 N.am   52  THR52      -0.1937
     59  CA       -25.2850    3.3940  -11.8670 C.3    52  THR52       0.2028
     60  C        -26.5150    4.2700  -12.0090 C.2    52  THR52       0.2642
     61  O        -27.3270    4.1520  -12.9730 O.2    52  THR52      -0.2714
     62  CB       -24.0210    4.2180  -12.3140 C.3    52  THR52       0.1808
     63  OG1      -24.1540    4.5890  -13.7030 O.3    52  THR52      -0.2208
     64  CG2      -22.7610    3.4230  -12.0490 C.3    52  THR52       0.0379
     65  N        -26.6610    5.2170  -11.0540 N.am   53  VAL53      -0.1963
     66  CA       -27.5100    6.3440  -11.2320 C.3    53  VAL53       0.1712
     67  C        -26.6350    7.5650  -11.3680 C.2    53  VAL53       0.2458
     68  O        -25.5990    7.6610  -10.7020 O.2    53  VAL53      -0.2730
     69  CB       -28.5340    6.5020  -10.0330 C.3    53  VAL53       0.0289
     70  CG1      -29.6120    5.4390  -10.1190 C.3    53  VAL53       0.0023
     71  CG2      -27.8310    6.4830   -8.7320 C.3    53  VAL53       0.0023
     72  N        -27.0520    8.5720  -12.1630 N.am   54  PRO54      -0.2727
     73  CA       -28.2980    8.7080  -12.9180 C.3    54  PRO54       0.1402
     74  C        -28.3210    8.0010  -14.3090 C.2    54  PRO54       0.2269
     75  O        -27.2910    7.7430  -14.9450 O.2    54  PRO54      -0.2865
     76  CB       -28.3960   10.1970  -13.1300 C.3    54  PRO54       0.0296
     77  CG       -26.9560   10.6810  -13.2290 C.3    54  PRO54       0.0237
     78  CD       -26.2110    9.7710  -12.2340 C.3    54  PRO54       0.0939
     79  N        -26.4760    7.4990  -19.9120 N.3    64  TRP64      -0.1227
     80  CA       -26.0460    7.6150  -18.5190 C.3    64  TRP64       0.1737
     81  C        -24.7300    8.3300  -18.3910 C.2    64  TRP64       0.2595
     82  O        -24.1420    8.7570  -19.3760 O.2    64  TRP64      -0.2718
     83  CB       -26.0870    6.2880  -17.7850 C.3    64  TRP64       0.0564
     84  CG       -24.9980    5.3180  -18.1260 C.ar   64  TRP64       0.0003
     85  CD1      -23.8180    5.1550  -17.4400 C.ar   64  TRP64       0.0946
     86  CD2      -25.0210    4.2830  -19.1400 C.ar   64  TRP64       0.0152
     87  NE1      -23.0630    4.1330  -18.0120 N.ar   64  TRP64      -0.2442
     88  CE2      -23.7790    3.5820  -19.0550 C.ar   64  TRP64       0.0810
     89  CE3      -25.9190    3.9230  -20.1250 C.ar   64  TRP64       0.0012
     90  CZ2      -23.4780    2.5020  -19.8610 C.ar   64  TRP64       0.0191
     91  CZ3      -25.5800    2.8130  -20.9570 C.ar   64  TRP64       0.0001
     92  CH2      -24.3930    2.1280  -20.7980 C.ar   64  TRP64       0.0015
     93  N        -24.3240    8.5180  -17.1290 N.am   65  ASP65      -0.1960
     94  CA       -23.2650    9.3640  -16.6890 C.3    65  ASP65       0.1840
     95  C        -23.7320   10.7920  -16.6210 C.2    65  ASP65       0.2623
     96  O        -24.0440   11.4030  -17.6640 O.2    65  ASP65      -0.2715
     97  CB       -21.9670    9.2920  -17.5470 C.3    65  ASP65       0.1450
     98  CG       -20.7820    9.8450  -16.7960 C.2    65  ASP65       0.3671
     99  OD1      -20.0570    9.0500  -16.1100 O.co2  65  ASP65      -0.2456
    100  OD2      -20.6560   11.1130  -16.7880 O.co2  65  ASP65      -0.2456
    101  N        -23.7090   11.3690  -15.4250 N.am   66  SER66      -0.1936
    102  CA       -24.1640   12.7350  -15.2070 C.3    66  SER66       0.2055
    103  C        -23.5080   13.7330  -16.1670 C.2    66  SER66       0.2643
    104  O        -24.1940   14.6440  -16.6890 O.2    66  SER66      -0.2714
    105  CB       -23.8720   13.1870  -13.7730 C.3    66  SER66       0.2130
    106  OG       -22.5130   13.2890  -13.4570 O.3    66  SER66      -0.2179
    107  N        -22.2250   13.5950  -16.4090 N.am   67  HIS67      -0.1973
    108  CA       -21.5050   14.5690  -17.1960 C.3    67  HIS67       0.1656
    109  C        -21.9840   14.5090  -18.6720 C.2    67  HIS67       0.2291
    110  O        -22.1750   15.5580  -19.3200 O.2    67  HIS67      -0.2864
    111  CB       -20.0060   14.4290  -17.0510 C.3    67  HIS67       0.0771
    112  CG       -19.5430   14.2250  -15.6590 C.ar   67  HIS67       0.0820
    113  ND1      -19.4940   12.9890  -15.0800 N.ar   67  HIS67      -0.2267
    114  CD2      -19.2280   15.1100  -14.6920 C.ar   67  HIS67       0.1154
    115  CE1      -19.0870   13.1090  -13.8350 C.ar   67  HIS67       0.1986
    116  NE2      -18.9070   14.3710  -13.5810 N.ar   67  HIS67      -0.2212
    117  N        -15.2610   13.8140  -11.9700 N.3   102  ALA102     -0.1245
    118  CA       -15.5580   12.3540  -12.1340 C.3   102  ALA102      0.1562
    119  C        -14.4580   11.5210  -11.4350 C.2   102  ALA102      0.2260
    120  O        -14.7550   10.6040  -10.6360 O.2   102  ALA102     -0.2867
    121  CB       -15.7130   12.0020  -13.6030 C.3   102  ALA102      0.0290
    122  N        -15.1890   12.7280   -7.1960 N.3   106  PHE106     -0.1241
    123  CA       -16.1550   11.7240   -6.9650 C.3   106  PHE106      0.1605
    124  C        -15.5690   10.3430   -6.7160 C.2   106  PHE106      0.2264
    125  O        -15.8100    9.7490   -5.6550 O.2   106  PHE106     -0.2867
    126  CB       -17.1830   11.6630   -8.1060 C.3   106  PHE106      0.0534
    127  CG       -18.2320   10.6510   -7.8900 C.ar  106  PHE106     -0.0203
    128  CD1      -19.3130   10.8750   -7.0610 C.ar  106  PHE106     -0.0042
    129  CD2      -18.1350    9.3780   -8.5140 C.ar  106  PHE106     -0.0042
    130  CE1      -20.3160    9.9010   -6.9110 C.ar  106  PHE106     -0.0003
    131  CE2      -19.1200    8.4170   -8.3650 C.ar  106  PHE106     -0.0003
    132  CZ       -20.2190    8.6800   -7.5350 C.ar  106  PHE106     -0.0000
    133  N        -14.6930   10.7640   -2.8120 N.3   110  LEU110     -0.1231
    134  CA       -15.9180   10.3570   -2.1820 C.3   110  LEU110      0.1693
    135  C        -16.1620    8.8640   -2.1940 C.2   110  LEU110      0.2591
    136  O        -16.2410    8.2380   -1.1260 O.2   110  LEU110     -0.2718
    137  CB       -17.1140   11.0560   -2.8520 C.3   110  LEU110      0.0284
    138  CG       -18.4540   10.8570   -2.1320 C.3   110  LEU110      0.0019
    139  CD1      -18.4510   11.5160   -0.7520 C.3   110  LEU110      0.0001
    140  CD2      -19.5470   11.4380   -2.9870 C.3   110  LEU110      0.0001
    141  N        -16.2770    8.2790   -3.3790 N.am  111  ARG111     -0.1980
    142  CA       -16.6360    6.8940   -3.5360 C.3   111  ARG111      0.1597
    143  C        -15.5690    5.9490   -2.9790 C.2   111  ARG111      0.2287
    144  O        -15.8770    4.8610   -2.4440 O.2   111  ARG111     -0.2864
    145  CB       -17.0960    6.5650   -4.9810 C.3   111  ARG111      0.0334
    146  CG       -17.5620    5.1970   -5.1780 C.3   111  ARG111      0.0492
    147  CD       -18.2200    4.9730   -6.5270 C.3   111  ARG111      0.2205
    148  NE       -18.3700    3.5450   -6.7790 N.pl3 111  ARG111     -0.0865
    149  CZ       -19.3430    2.9940   -7.4810 C.cat 111  ARG111      0.5346
    150  NH1      -19.3950    1.6770   -7.5670 N.pl3 111  ARG111      0.1354
    151  NH2      -20.2980    3.7540   -8.0460 N.pl3 111  ARG111      0.1354
    152  N        -20.8000   -0.3850    2.3300 N.3   119  PHE119     -0.1241
    153  CA       -20.8020   -1.8230    1.9830 C.3   119  PHE119      0.1605
    154  C        -20.1570   -2.7330    3.0630 C.2   119  PHE119      0.2264
    155  O        -20.6610   -3.8340    3.3260 O.2   119  PHE119     -0.2867
    156  CB       -20.0350   -2.1390    0.6880 C.3   119  PHE119      0.0534
    157  CG       -20.6270   -1.5070   -0.5810 C.ar  119  PHE119     -0.0203
    158  CD1      -19.8410   -1.4380   -1.7690 C.ar  119  PHE119     -0.0042
    159  CD2      -21.9560   -0.9580   -0.5990 C.ar  119  PHE119     -0.0042
    160  CE1      -20.3460   -0.8200   -2.9290 C.ar  119  PHE119     -0.0003
    161  CE2      -22.4710   -0.3780   -1.7720 C.ar  119  PHE119     -0.0003
    162  CZ       -21.6710   -0.3110   -2.9330 C.ar  119  PHE119     -0.0000
@<TRIPOS>BOND
     1    91    92   ar
     2    91    89   ar
     3    92    90   ar
     4    89    86   ar
     5    79    80    1
     6    90    88   ar
     7    82    81    2
     8   110   109    2
     9    86    88   ar
    10    86    84   ar
    11    88    87   ar
    12   109   108    1
    13    80    81    1
    14    80    83    1
    15    81    93   am
    16    84    83    1
    17    84    85   ar
    18    87    85   ar
    19    96    95    2
    20    97    98    1
    21    97    94    1
    22   108   111    1
    23   108   107    1
    24    93    94    1
    25   111   112    1
    26    98   100   ar
    27    98    99   ar
    28    94    95    1
    29   104   103    2
    30    95   101   am
    31    39    40    1
    32   107   103   am
    33    46    45    2
    34   103   102    1
    35    43    40    1
    36    43    44    1
    37   112   113   ar
    38   112   114   ar
    39    40    41    1
    40   101   102    1
    41    45    44    1
    42    45    47   am
    43   102   105    1
    44   113   115   ar
    45    75    74    2
    46   114   116   ar
    47    74    73    1
    48    48    41   am
    49    48    49    1
    50    41    42    2
    51   115   116   ar
    52   105   106    1
    53    63    62    1
    54   121   118    1
    55    77    76    1
    56    77    78    1
    57    76    73    1
    58    61    60    2
    59    73    72    1
    60    49    52    1
    61    49    50    1
    62    58    50   am
    63    58    59    1
    64    62    64    1
    65    62    59    1
    66    78    72    1
    67    72    67   am
    68   118   117    1
    69   118   119    1
    70    55    53   ar
    71    55    57   ar
    72    52    53    1
    73    60    59    1
    74    60    65   am
    75    50    51    2
    76    53    54   ar
    77   119   120    2
    78    67    66    1
    79    67    68    2
    80    57    56   ar
    81    32    31    2
    82    17    16    2
    83    66    65    1
    84    66    69    1
    85    54    56   ar
    86    18    15    1
    87    18    19    1
    88    16    15    1
    89    31    30    1
    90    70    69    1
    91    69    71    1
    92    15    14    1
    93    30    33    1
    94    30    29    1
    95    19    20    1
    96    33    34    1
    97   129   131   ar
    98   129   127   ar
    99    14    20    1
   100    14     9   am
   101   131   132   ar
   102    34    36   ar
   103    34    35   ar
   104   126   127    1
   105   126   123    1
   106    10     9    2
   107    36    38   ar
   108   151   149    1
   109   127   128   ar
   110     9     8    1
   111   150   149    1
   112   132   130   ar
   113   149   148    2
   114     6     5    1
   115   122   123    1
   116   128   130   ar
   117   123   124    1
   118    35    37   ar
   119    38    37   ar
   120   148   147    1
   121    28    26    1
   122   124   125    2
   123   147   146    1
   124     4     3    2
   125     5     2    1
   126     8    11    1
   127     8     7    1
   128    11    12    1
   129     3     7   am
   130     3     2    1
   131     7    13    1
   132    26    27    1
   133    26    25    1
   134   146   145    1
   135     2     1    1
   136   145   142    1
   137    13    12    1
   138    21    22    1
   139    25    22    1
   140    22    23    1
   141   142   141    1
   142   142   143    1
   143   141   135   am
   144    24    23    2
   145   140   138    1
   146   143   144    2
   147   162   160   ar
   148   162   161   ar
   149   160   158   ar
   150   137   134    1
   151   137   138    1
   152   133   134    1
   153   135   134    1
   154   135   136    2
   155   138   139    1
   156   161   159   ar
   157   158   157   ar
   158   159   157   ar
   159   157   156    1
   160   156   153    1
   161   153   152    1
   162   153   154    1
   163   154   155    2
