@<TRIPOS>MOLECULE
tmp/3vxcA00.pdb
 182 175 0 0 0
SMALL
GASTEIGER

@<TRIPOS>ATOM
      1  N         67.3150   12.3420   17.7880 N.3     7  TYR7       -0.1241
      2  CA        67.7810   11.5910   16.6350 C.3     7  TYR7        0.1605
      3  C         66.6050   11.0120   15.8600 C.2     7  TYR7        0.2264
      4  O         65.8820   10.1990   16.3700 O.2     7  TYR7       -0.2867
      5  CB        68.6340   10.4870   17.1790 C.3     7  TYR7        0.0534
      6  CG        69.4730    9.6880   16.2360 C.ar    7  TYR7       -0.0201
      7  CD1       68.9700    8.5580   15.6280 C.ar    7  TYR7       -0.0009
      8  CD2       70.8420   10.0470   16.0150 C.ar    7  TYR7       -0.0009
      9  CE1       69.7990    7.7410   14.8170 C.ar    7  TYR7        0.0417
     10  CE2       71.6990    9.2440   15.2230 C.ar    7  TYR7        0.0417
     11  CZ        71.1560    8.1280   14.5910 C.ar    7  TYR7        0.1957
     12  OH        72.0020    7.3350   13.8340 O.3     7  TYR7       -0.2866
     13  N         65.4480    8.8880   13.5840 N.3     9  ASP9       -0.1239
     14  CA        65.1660    7.5970   12.9210 C.3     9  ASP9        0.1674
     15  C         63.7580    7.1180   13.3280 C.2     9  ASP9        0.2266
     16  O         63.0070    7.8450   13.9970 O.2     9  ASP9       -0.2867
     17  CB        66.2620    6.5000   13.1390 C.3     9  ASP9        0.1410
     18  CG        66.3930    6.0750   14.5950 C.2     9  ASP9        0.3668
     19  OD1       66.0370    6.8740   15.4800 O.co2   9  ASP9       -0.2456
     20  OD2       66.8320    4.9240   14.8230 O.co2   9  ASP9       -0.2456
     21  N         62.6780    5.0770   15.3120 N.3    11  ALA11      -0.1245
     22  CA        62.4720    4.9670   16.7740 C.3    11  ALA11       0.1562
     23  C         61.9220    6.2140   17.4250 C.2    11  ALA11       0.2260
     24  O         61.5160    6.1810   18.5800 O.2    11  ALA11      -0.2867
     25  CB        63.7740    4.6040   17.4770 C.3    11  ALA11       0.0290
     26  N         69.5090   14.6010   22.7570 N.3    63  PHE63      -0.1241
     27  CA        69.7850   13.1910   22.6910 C.3    63  PHE63       0.1605
     28  C         71.2800   13.0170   22.5480 C.2    63  PHE63       0.2264
     29  O         71.9320   13.7130   21.7180 O.2    63  PHE63      -0.2867
     30  CB        69.0190   12.6900   21.4410 C.3    63  PHE63       0.0534
     31  CG        69.3070   11.3160   20.9910 C.ar   63  PHE63      -0.0203
     32  CD1       68.2940   10.3200   21.1310 C.ar   63  PHE63      -0.0042
     33  CD2       70.4930   10.9990   20.2950 C.ar   63  PHE63      -0.0042
     34  CE1       68.5080    9.0070   20.6680 C.ar   63  PHE63      -0.0003
     35  CE2       70.7370    9.7060   19.8040 C.ar   63  PHE63      -0.0003
     36  CZ        69.7020    8.6790   19.9740 C.ar   63  PHE63      -0.0000
     37  N         74.8420    9.8650   23.4810 N.3    65  TRP65      -0.1241
     38  CA        75.2440    8.5000   23.7270 C.3    65  TRP65       0.1605
     39  C         76.1420    8.4410   24.9630 C.2    65  TRP65       0.2264
     40  O         76.8230    7.4040   25.2050 O.2    65  TRP65      -0.2867
     41  CB        76.0400    8.0420   22.5340 C.3    65  TRP65       0.0550
     42  CG        75.2730    7.7830   21.2480 C.ar   65  TRP65       0.0003
     43  CD1       74.8590    6.5480   20.7750 C.ar   65  TRP65       0.0946
     44  CD2       74.8960    8.7520   20.2570 C.ar   65  TRP65       0.0152
     45  NE1       74.2290    6.7110   19.5400 N.ar   65  TRP65      -0.2442
     46  CE2       74.2790    8.0550   19.2010 C.ar   65  TRP65       0.0810
     47  CE3       75.1020   10.1600   20.1360 C.ar   65  TRP65       0.0012
     48  CZ2       73.8070    8.7090   18.0220 C.ar   65  TRP65       0.0191
     49  CZ3       74.6300   10.8240   18.9840 C.ar   65  TRP65       0.0001
     50  CH2       73.9460   10.0730   17.9330 C.ar   65  TRP65       0.0015
     51  N         66.2140    5.3490   25.5370 N.3   116  ARG116     -0.1245
     52  CA        65.9570    4.3110   24.5160 C.3   116  ARG116      0.1563
     53  C         66.2720    2.9250   25.0890 C.2   116  ARG116      0.2260
     54  O         66.4320    2.7890   26.3380 O.2   116  ARG116     -0.2867
     55  CB        66.6290    4.5980   23.1560 C.3   116  ARG116      0.0307
     56  CG        65.8800    5.7930   22.4640 C.3   116  ARG116      0.0489
     57  CD        66.3680    5.9960   21.0460 C.3   116  ARG116      0.2205
     58  NE        65.5910    7.0160   20.3280 N.pl3 116  ARG116     -0.0865
     59  CZ        65.7830    7.3270   19.0480 C.cat 116  ARG116      0.5346
     60  NH1       66.7370    6.7200   18.3410 N.pl3 116  ARG116      0.1354
     61  NH2       65.0000    8.2330   18.4780 N.pl3 116  ARG116      0.1354
     62  N         71.5690   -1.2100   23.8210 N.3   119  GLN119     -0.1245
     63  CA        71.8640   -1.4280   22.4020 C.3   119  GLN119      0.1566
     64  C         73.2080   -2.1640   22.1520 C.2   119  GLN119      0.2260
     65  O         74.1080   -1.6190   21.4820 O.2   119  GLN119     -0.2867
     66  CB        71.8990   -0.0790   21.6580 C.3   119  GLN119      0.0367
     67  CG        70.4970    0.6320   21.6670 C.3   119  GLN119      0.0905
     68  CD        70.5970    2.1400   21.4610 C.2   119  GLN119      0.2608
     69  OE1       69.8480    2.9030   22.0960 O.2   119  GLN119     -0.2717
     70  NE2       71.4990    2.5850   20.5890 N.am  119  GLN119     -0.0878
     71  N         79.8940    4.0220   10.2210 N.3   167  TRP167     -0.1241
     72  CA        79.8390    3.3650   11.5250 C.3   167  TRP167      0.1605
     73  C         79.2970    1.8850   11.5020 C.2   167  TRP167      0.2264
     74  O         79.6270    1.1350   12.4110 O.2   167  TRP167     -0.2867
     75  CB        79.1290    4.2270   12.6230 C.3   167  TRP167      0.0550
     76  CG        77.6920    4.6190   12.2810 C.ar  167  TRP167      0.0003
     77  CD1       77.2250    5.8610   11.8610 C.ar  167  TRP167      0.0946
     78  CD2       76.5410    3.7810   12.3920 C.ar  167  TRP167      0.0152
     79  NE1       75.8450    5.8290   11.6770 N.ar  167  TRP167     -0.2442
     80  CE2       75.4110    4.5570   11.9600 C.ar  167  TRP167      0.0810
     81  CE3       76.3550    2.4210   12.7390 C.ar  167  TRP167      0.0012
     82  CZ2       74.1080    4.0460   11.9380 C.ar  167  TRP167      0.0191
     83  CZ3       75.0290    1.8950   12.7160 C.ar  167  TRP167      0.0001
     84  CH2       73.9360    2.7250   12.3120 C.ar  167  TRP167      0.0015
     85  N         82.5110    0.1220   11.1180 N.3   170  LEU170     -0.1231
     86  CA        83.1580    0.2170   12.4160 C.3   170  LEU170      0.1693
     87  C         82.7330   -0.9460   13.3290 C.2   170  LEU170      0.2591
     88  O         83.5520   -1.5310   14.0240 O.2   170  LEU170     -0.2718
     89  CB        82.8330    1.5970   13.0540 C.3   170  LEU170      0.0284
     90  CG        83.0880    1.7440   14.5750 C.3   170  LEU170      0.0019
     91  CD1       84.6110    1.5860   14.8140 C.3   170  LEU170      0.0001
     92  CD2       82.5520    3.1470   15.0750 C.3   170  LEU170      0.0001
     93  N         81.4520   -1.3080   13.3400 N.am  171  MET171     -0.1979
     94  CA        81.0290   -2.4660   14.2160 C.3   171  MET171      0.1605
     95  C         81.8500   -3.7510   14.1100 C.2   171  MET171      0.2287
     96  O         82.1110   -4.4220   15.1140 O.2   171  MET171     -0.2864
     97  CB        79.5330   -2.7820   13.9050 C.3   171  MET171      0.0413
     98  CG        78.7070   -1.6070   14.4880 C.3   171  MET171      0.0598
     99  SD        76.8300   -1.7910   13.9860 S.3   171  MET171     -0.1393
    100  CE        76.1610   -0.4920   15.2470 C.3   171  MET171      0.0692
    101  N         85.0640   -3.1710   15.8700 N.3   174  GLU174     -0.1245
    102  CA        84.8700   -3.1230   17.3330 C.3   174  GLU174      0.1567
    103  C         84.8680   -4.5310   17.9550 C.2   174  GLU174      0.2260
    104  O         85.5690   -4.8080   18.9150 O.2   174  GLU174     -0.2867
    105  CB        83.5610   -2.3760   17.7000 C.3   174  GLU174      0.0388
    106  CG        83.5000   -0.9050   17.2660 C.3   174  GLU174      0.1160
    107  CD        82.1340   -0.3140   17.5240 C.2   174  GLU174      0.3649
    108  OE1       81.1300   -1.1030   17.5730 O.co2 174  GLU174     -0.2457
    109  OE2       82.0410    0.9290   17.6540 O.co2 174  GLU174     -0.2457
    110  N         72.5050    2.3860    5.7490 N.3   227  TYR227     -0.1227
    111  CA        71.7120    1.8740    6.8610 C.3   227  TYR227      0.1736
    112  C         70.5020    2.7600    7.1820 C.2   227  TYR227      0.2595
    113  O         69.3950    2.2460    7.3600 O.2   227  TYR227     -0.2718
    114  CB        72.5680    1.7210    8.1610 C.3   227  TYR227      0.0548
    115  CG        71.6660    1.0600    9.2040 C.ar  227  TYR227     -0.0200
    116  CD1       71.4600   -0.3300    9.1890 C.ar  227  TYR227     -0.0009
    117  CD2       70.9670    1.8170   10.1750 C.ar  227  TYR227     -0.0009
    118  CE1       70.5690   -0.9300   10.0910 C.ar  227  TYR227      0.0417
    119  CE2       70.0640    1.2090   11.0930 C.ar  227  TYR227      0.0417
    120  CZ        69.8650   -0.1660   11.0120 C.ar  227  TYR227      0.1957
    121  OH        69.0470   -0.9130   11.8430 O.3   227  TYR227     -0.2866
    122  N         70.6840    4.0740    7.2270 N.am  228  ASN228     -0.1974
    123  CA        69.6870    4.9920    7.7730 C.3   228  ASN228      0.1688
    124  C         68.4540    5.1280    6.9020 C.2   228  ASN228      0.2292
    125  O         67.3880    5.4570    7.4270 O.2   228  ASN228     -0.2864
    126  CB        70.2570    6.3840    8.0100 C.3   228  ASN228      0.1181
    127  CG        71.2690    6.4050    9.1210 C.2   228  ASN228      0.2629
    128  OD1       71.3890    5.4580    9.8830 O.2   228  ASN228     -0.2716
    129  ND2       72.0110    7.5090    9.2150 N.am  228  ASN228     -0.0877
    130  N         68.7680   -2.2310   17.8970 N.3   249  TRP249     -0.1241
    131  CA        67.6590   -1.4720   17.2570 C.3   249  TRP249      0.1605
    132  C         67.2630   -2.0490   15.8790 C.2   249  TRP249      0.2264
    133  O         66.2160   -1.7170   15.3460 O.2   249  TRP249     -0.2867
    134  CB        67.9700    0.0290   17.0590 C.3   249  TRP249      0.0550
    135  CG        69.1670    0.2630   16.2020 C.ar  249  TRP249      0.0003
    136  CD1       69.2310    0.3030   14.8170 C.ar  249  TRP249      0.0946
    137  CD2       70.5330    0.4140   16.6740 C.ar  249  TRP249      0.0152
    138  NE1       70.5250    0.4940   14.4170 N.ar  249  TRP249     -0.2442
    139  CE2       71.3380    0.6280   15.5330 C.ar  249  TRP249      0.0810
    140  CE3       71.1110    0.5210   17.9530 C.ar  249  TRP249      0.0012
    141  CZ2       72.6910    0.8320   15.6090 C.ar  249  TRP249      0.0191
    142  CZ3       72.4620    0.7460   18.0510 C.ar  249  TRP249      0.0001
    143  CH2       73.2710    0.9200   16.8550 C.ar  249  TRP249      0.0015
    144  N         75.8100    0.5360   22.2480 N.3   287  ASN287     -0.1240
    145  CA        75.4980    1.7020   23.0750 C.3   287  ASN287      0.1653
    146  C         74.7740    1.2120   24.2930 C.2   287  ASN287      0.2266
    147  O         73.7090    0.5790   24.1700 O.2   287  ASN287     -0.2867
    148  CB        74.6500    2.7440   22.3050 C.3   287  ASN287      0.1155
    149  CG        75.2200    3.0370   20.9440 C.2   287  ASN287      0.2627
    150  OD1       76.4260    3.2590   20.8180 O.2   287  ASN287     -0.2716
    151  ND2       74.3430    3.0790   19.8930 N.am  287  ASN287     -0.0877
    152  N         70.6440    5.4580   24.8980 N.3   290  ASN290     -0.1240
    153  CA        70.7600    6.8800   24.5840 C.3   290  ASN290      0.1653
    154  C         70.2100    7.6420   25.7540 C.2   290  ASN290      0.2266
    155  O         69.4300    7.0850   26.5710 O.2   290  ASN290     -0.2867
    156  CB        69.9920    7.2670   23.3400 C.3   290  ASN290      0.1155
    157  CG        70.5140    6.5360   22.1280 C.2   290  ASN290      0.2627
    158  OD1       71.6750    6.7730   21.6610 O.2   290  ASN290     -0.2716
    159  ND2       69.6860    5.6830   21.5790 N.am  290  ASN290     -0.0877
    160  N         80.3270    2.4120   21.3510 N.3   361  SER361     -0.1217
    161  CA        80.6950    2.5880   19.9370 C.3   361  SER361      0.1889
    162  C         81.8370    3.6020   19.7980 C.2   361  SER361      0.2288
    163  O         81.7750    4.6830   20.4170 O.2   361  SER361     -0.2866
    164  CB        79.4570    3.1170   19.1970 C.3   361  SER361      0.2089
    165  OG        78.3340    2.2040   19.2910 O.3   361  SER361     -0.2183
    166  N         82.9580    5.7270   17.6220 N.3   363  ASP363     -0.1225
    167  CA        82.7550    7.0570   17.1050 C.3   363  ASP363      0.1805
    168  C         81.9920    7.9680   18.0920 C.2   363  ASP363      0.2597
    169  O         81.9370    9.2090   17.8750 O.2   363  ASP363     -0.2718
    170  CB        82.1570    7.0030   15.6850 C.3   363  ASP363      0.1424
    171  CG        80.7540    6.3550   15.6550 C.2   363  ASP363      0.3668
    172  OD1       80.4480    5.4890   16.5230 O.co2 363  ASP363     -0.2456
    173  OD2       79.9400    6.8030   14.8570 O.co2 363  ASP363     -0.2456
    174  N         81.3630    7.3600   19.1090 N.am  364  GLN364     -0.1979
    175  CA        80.7490    8.0970   20.2400 C.3   364  GLN364      0.1601
    176  C         81.6560    8.1690   21.4720 C.2   364  GLN364      0.2287
    177  O         81.4480    9.0700   22.3450 O.2   364  GLN364     -0.2864
    178  CB        79.4270    7.4240   20.6980 C.3   364  GLN364      0.0394
    179  CG        78.5040    7.3450   19.4420 C.3   364  GLN364      0.0908
    180  CD        78.0660    8.7020   18.9690 C.2   364  GLN364      0.2608
    181  OE1       78.1910    9.7050   19.6890 O.2   364  GLN364     -0.2717
    182  NE2       77.5710    8.7650   17.7260 N.am  364  GLN364     -0.0878
@<TRIPOS>BOND
     1   110   111    1
     2   111   112    1
     3   111   114    1
     4   124   125    2
     5   124   123    1
     6   112   122   am
     7   112   113    2
     8   122   123    1
     9   123   126    1
    10   126   127    1
    11   114   115    1
    12   127   129   am
    13   127   128    2
    14   116   115   ar
    15   116   118   ar
    16   115   117   ar
    17   118   120   ar
    18   117   119   ar
    19    71    72    1
    20   120   119   ar
    21   120   121    1
    22    85    86    1
    23    73    72    1
    24    73    74    2
    25    72    75    1
    26    79    77   ar
    27    79    80   ar
    28    77    76   ar
    29    82    80   ar
    30    82    84   ar
    31    80    78   ar
    32    76    78   ar
    33    76    75    1
    34    84    83   ar
    35    78    81   ar
    36    86    89    1
    37    86    87    1
    38    83    81   ar
    39    14    17    1
    40    14    15    1
    41    14    13    1
    42    89    90    1
    43    17    18    1
    44    15    16    2
    45    87    93   am
    46    87    88    2
    47    93    94    1
    48    12    11    1
    49    97    94    1
    50    97    98    1
    51    99    98    1
    52    99   100    1
    53    95    94    1
    54    95    96    2
    55   138   136   ar
    56   138   139   ar
    57    90    91    1
    58    90    92    1
    59    11     9   ar
    60    11    10   ar
    61    18    20   ar
    62    18    19   ar
    63   136   135   ar
    64     9     7   ar
    65   173   171   ar
    66    10     8   ar
    67    21    22    1
    68   133   132    2
    69   139   141   ar
    70   139   137   ar
    71   141   143   ar
    72     7     6   ar
    73   171   170    1
    74   171   172   ar
    75   170   167    1
    76     3     4    2
    77     3     2    1
    78   101   102    1
    79   132   131    1
    80     8     6   ar
    81   135   137   ar
    82   135   134    1
    83     6     5    1
    84     2     5    1
    85     2     1    1
    86   137   140   ar
    87    22    23    1
    88    22    25    1
    89   143   142   ar
    90   134   131    1
    91   167   166    1
    92   167   168    1
    93   131   130    1
    94   106   107    1
    95   106   105    1
    96   102   105    1
    97   102   103    1
    98    23    24    2
    99   107   108   ar
   100   107   109   ar
   101   182   180   am
   102   169   168    2
   103    50    48   ar
   104    50    49   ar
   105   140   142   ar
   106   103   104    2
   107    48    46   ar
   108   168   174   am
   109    60    59    1
   110    61    59    1
   111   180   179    1
   112   180   181    2
   113    49    47   ar
   114    59    58    2
   115   174   175    1
   116   164   165    1
   117   164   161    1
   118    46    45   ar
   119    46    44   ar
   120   179   178    1
   121    45    43   ar
   122   162   161    1
   123   162   163    2
   124    35    36   ar
   125    35    33   ar
   126   151   149   am
   127   161   160    1
   128    36    34   ar
   129    47    44   ar
   130   175   178    1
   131   175   176    1
   132    44    42   ar
   133    33    31   ar
   134    58    57    1
   135    70    68   am
   136    34    32   ar
   137    43    42   ar
   138   150   149    2
   139   149   148    1
   140    31    32   ar
   141    31    30    1
   142    57    56    1
   143    42    41    1
   144    30    27    1
   145    68    67    1
   146    68    69    2
   147   176   177    2
   148    65    64    2
   149   159   157   am
   150    66    67    1
   151    66    63    1
   152   158   157    2
   153    29    28    2
   154   157   156    1
   155    64    63    1
   156   144   145    1
   157   148   145    1
   158    63    62    1
   159    56    55    1
   160    41    38    1
   161    28    27    1
   162    27    26    1
   163   145   146    1
   164    55    52    1
   165   156   153    1
   166    37    38    1
   167    38    39    1
   168   147   146    2
   169    52    53    1
   170    52    51    1
   171   153   152    1
   172   153   154    1
   173    39    40    2
   174    53    54    2
   175   154   155    2
