@<TRIPOS>MOLECULE
tmp/3vxeB00.pdb
 141 133 0 0 0
SMALL
GASTEIGER

@<TRIPOS>ATOM
      1  N         -5.0300  -26.4920   11.0940 N.3    17  MET17      -0.1245
      2  CA        -5.4110  -27.2100    9.8820 C.3    17  MET17       0.1570
      3  C         -5.0620  -26.3690    8.6740 C.2    17  MET17       0.2261
      4  O         -5.4810  -25.1950    8.6030 O.2    17  MET17      -0.2867
      5  CB        -6.9150  -27.4900    9.9240 C.3    17  MET17       0.0387
      6  CG        -7.3770  -28.2460    8.6700 C.3    17  MET17       0.0595
      7  SD        -9.1680  -28.4410    8.5780 S.3    17  MET17      -0.1393
      8  CE        -9.3770  -29.6210    9.9350 C.3    17  MET17       0.0692
      9  N         -6.0250  -25.7900    5.1200 N.3    19  PHE19      -0.1241
     10  CA        -7.2700  -26.0710    4.4180 C.3    19  PHE19       0.1605
     11  C         -7.2500  -25.4660    3.0290 C.2    19  PHE19       0.2264
     12  O         -7.0490  -24.2720    2.8390 O.2    19  PHE19      -0.2867
     13  CB        -8.4360  -25.4540    5.2380 C.3    19  PHE19       0.0534
     14  CG        -9.8150  -25.8470    4.7030 C.ar   19  PHE19      -0.0203
     15  CD1      -10.2590  -27.1710    4.8000 C.ar   19  PHE19      -0.0042
     16  CD2      -10.6430  -24.8950    4.1280 C.ar   19  PHE19      -0.0042
     17  CE1      -11.5130  -27.5100    4.3400 C.ar   19  PHE19      -0.0003
     18  CE2      -11.8860  -25.2590    3.6350 C.ar   19  PHE19      -0.0003
     19  CZ       -12.3130  -26.5590    3.7140 C.ar   19  PHE19      -0.0000
     20  N         -8.8460  -24.0250   -0.3520 N.3    21  LYS21      -0.1245
     21  CA       -10.0580  -23.2760   -0.6670 C.3    21  LYS21       0.1561
     22  C        -10.9090  -24.0000   -1.6800 C.2    21  LYS21       0.2260
     23  O        -12.1360  -24.0780   -1.5650 O.2    21  LYS21      -0.2867
     24  CB        -9.6890  -21.9020   -1.2410 C.3    21  LYS21       0.0271
     25  CG        -9.0260  -20.9450   -0.2620 C.3    21  LYS21       0.0035
     26  CD        -8.8180  -19.5640   -0.8630 C.3    21  LYS21       0.0206
     27  CE        -8.1310  -18.6050    0.1170 C.3    21  LYS21       0.1093
     28  NZ        -7.9880  -17.2920   -0.6460 N.3    21  LYS21      -0.1314
     29  N        -12.6040  -28.0690   -1.5630 N.3    24  GLN24      -0.1231
     30  CA       -12.3740  -28.1230   -0.1150 C.3    24  GLN24       0.1698
     31  C        -11.6180  -29.4050    0.2310 C.2    24  GLN24       0.2592
     32  O        -11.9730  -30.5160   -0.1370 O.2    24  GLN24      -0.2718
     33  CB       -13.6680  -28.1290    0.6390 C.3    24  GLN24       0.0381
     34  CG       -14.7050  -27.0870    0.3130 C.3    24  GLN24       0.0905
     35  CD       -16.0490  -27.5550    0.8950 C.2    24  GLN24       0.2608
     36  OE1      -16.6840  -28.4980    0.4150 O.2    24  GLN24      -0.2717
     37  NE2      -16.4360  -26.8640    1.9660 N.am   24  GLN24      -0.0878
     38  N        -10.5310  -29.2740    0.9860 N.am   25  GLU25      -0.1966
     39  CA        -9.6970  -30.4100    1.2560 C.3    25  GLU25       0.1733
     40  C         -8.8620  -30.1310    2.5010 C.2    25  GLU25       0.2616
     41  O         -8.3700  -28.9960    2.6240 O.2    25  GLU25      -0.2715
     42  CB        -8.7030  -30.6700    0.0790 C.3    25  GLU25       0.0429
     43  CG        -8.0300  -32.0110    0.1930 C.3    25  GLU25       0.1163
     44  CD        -7.4420  -32.5220   -1.1020 C.2    25  GLU25       0.3649
     45  OE1       -7.3850  -31.7830   -2.1170 O.co2  25  GLU25      -0.2457
     46  OE2       -7.0150  -33.6870   -1.0860 O.co2  25  GLU25      -0.2457
     47  N         -8.6730  -31.1180    3.3640 N.am   26  LEU26      -0.1977
     48  CA        -7.6400  -31.0720    4.3620 C.3    26  LEU26       0.1596
     49  C         -6.3390  -31.3100    3.6220 C.2    26  LEU26       0.2287
     50  O         -6.0960  -32.3650    3.0130 O.2    26  LEU26      -0.2864
     51  CB        -7.8000  -32.1920    5.4010 C.3    26  LEU26       0.0297
     52  CG        -6.5220  -32.4790    6.2420 C.3    26  LEU26       0.0022
     53  CD1       -6.3440  -31.3580    7.2240 C.3    26  LEU26       0.0001
     54  CD2       -6.6300  -33.8470    6.9170 C.3    26  LEU26       0.0001
     55  N         -5.9210  -21.7190    3.3760 N.3    60  LEU60      -0.1245
     56  CA        -6.2770  -21.0290    4.6020 C.3    60  LEU60       0.1561
     57  C         -5.7170  -21.8090    5.7760 C.2    60  LEU60       0.2260
     58  O         -5.5190  -23.0420    5.6910 O.2    60  LEU60      -0.2867
     59  CB        -7.8010  -20.9680    4.7530 C.3    60  LEU60       0.0270
     60  CG        -8.4860  -20.0790    3.6880 C.3    60  LEU60       0.0019
     61  CD1       -9.9960  -20.3350    3.7010 C.3    60  LEU60       0.0001
     62  CD2       -8.1500  -18.6040    3.9010 C.3    60  LEU60       0.0001
     63  N         -6.7080  -22.7880    9.6230 N.3    62  ARG62      -0.1245
     64  CA        -7.8400  -22.8430   10.5340 C.3    62  ARG62       0.1563
     65  C         -7.3160  -23.2930   11.8940 C.2    62  ARG62       0.2260
     66  O         -6.7040  -24.3570   12.0110 O.2    62  ARG62      -0.2867
     67  CB        -8.9610  -23.7940   10.0600 C.3    62  ARG62       0.0307
     68  CG        -9.4180  -23.4740    8.6370 C.3    62  ARG62       0.0489
     69  CD       -10.3970  -24.4080    7.9850 C.3    62  ARG62       0.2205
     70  NE       -11.6580  -24.4730    8.7720 N.pl3  62  ARG62      -0.0865
     71  CZ       -12.6990  -25.1870    8.3530 C.cat  62  ARG62       0.5346
     72  NH1      -12.6160  -25.8300    7.1920 N.pl3  62  ARG62       0.1354
     73  NH2      -13.7970  -25.2380    9.1000 N.pl3  62  ARG62       0.1354
     74  N        -13.1530  -32.2270   12.5060 N.3    68  ARG68      -0.1231
     75  CA       -12.4780  -32.1720   11.2190 C.3    68  ARG68       0.1694
     76  C        -13.2900  -31.3520   10.2250 C.2    68  ARG68       0.2593
     77  O        -12.7320  -30.5600    9.4660 O.2    68  ARG68      -0.2718
     78  CB       -12.2670  -33.5890   10.6810 C.3    68  ARG68       0.0321
     79  CG       -11.4910  -33.6460    9.3640 C.3    68  ARG68       0.0489
     80  CD       -11.1650  -35.0770    8.9170 C.3    68  ARG68       0.2205
     81  NE       -12.4330  -35.8070    8.7050 N.pl3  68  ARG68      -0.0865
     82  CZ       -13.1270  -35.9220    7.5890 C.cat  68  ARG68       0.5346
     83  NH1      -12.7550  -35.4070    6.4460 N.pl3  68  ARG68       0.1354
     84  NH2      -14.2810  -36.6030    7.5600 N.pl3  68  ARG68       0.1354
     85  N        -14.6150  -31.5350   10.2170 N.am   69  THR69      -0.1939
     86  CA       -15.4200  -31.0660    9.0640 C.3    69  THR69       0.2028
     87  C        -16.3140  -29.8730    9.3860 C.2    69  THR69       0.2642
     88  O        -16.6730  -29.1390    8.4550 O.2    69  THR69      -0.2714
     89  CB       -16.3220  -32.1770    8.5160 C.3    69  THR69       0.1808
     90  OG1      -17.1800  -32.6870    9.5610 O.3    69  THR69      -0.2208
     91  CG2      -15.5140  -33.3320    7.9220 C.3    69  THR69       0.0379
     92  N        -16.6790  -29.6710   10.6370 N.am   70  ARG70      -0.1963
     93  CA       -17.5760  -28.5420   10.9240 C.3    70  ARG70       0.1729
     94  C        -16.8530  -27.2090   10.7490 C.2    70  ARG70       0.2616
     95  O        -15.6630  -27.1040   11.0370 O.2    70  ARG70      -0.2715
     96  CB       -18.1600  -28.6280   12.3360 C.3    70  ARG70       0.0348
     97  CG       -19.1510  -29.7950   12.4920 C.3    70  ARG70       0.0492
     98  CD       -20.5040  -29.3790   11.9180 C.3    70  ARG70       0.2205
     99  NE       -21.1110  -28.1150   12.3540 N.pl3  70  ARG70      -0.0865
    100  CZ       -21.8340  -27.9880   13.4630 C.cat  70  ARG70       0.5346
    101  NH1      -22.0920  -28.9890   14.2960 N.pl3  70  ARG70       0.1354
    102  NH2      -22.3300  -26.7730   13.7220 N.pl3  70  ARG70       0.1354
    103  N        -17.6080  -26.1900   10.3980 N.am   71  TYR71      -0.1974
    104  CA       -17.1540  -24.8120   10.5850 C.3    71  TYR71       0.1639
    105  C        -17.5180  -24.4720   12.0210 C.2    71  TYR71       0.2290
    106  O        -18.7180  -24.3270   12.3710 O.2    71  TYR71      -0.2864
    107  CB       -17.7770  -23.8530    9.5250 C.3    71  TYR71       0.0560
    108  CG       -17.4310  -22.4140    9.9510 C.ar   71  TYR71      -0.0198
    109  CD1      -16.0890  -22.0660   10.1110 C.ar   71  TYR71      -0.0009
    110  CD2      -18.4030  -21.4600   10.1990 C.ar   71  TYR71      -0.0009
    111  CE1      -15.6900  -20.8100   10.4900 C.ar   71  TYR71       0.0417
    112  CE2      -17.9870  -20.1970   10.6040 C.ar   71  TYR71       0.0417
    113  CZ       -16.6510  -19.8920   10.7580 C.ar   71  TYR71       0.1957
    114  OH       -16.1970  -18.6340   11.1460 O.3    71  TYR71      -0.2866
    115  N        -18.0480  -22.2710   14.3680 N.3    73  ARG73      -0.1245
    116  CA       -18.3370  -20.8650   14.5330 C.3    73  ARG73       0.1563
    117  C        -18.0470  -20.3680   15.9250 C.2    73  ARG73       0.2260
    118  O        -18.5070  -21.0380   16.8490 O.2    73  ARG73      -0.2867
    119  CB       -19.8770  -20.7330   14.3150 C.3    73  ARG73       0.0307
    120  CG       -20.2520  -20.2200   12.9870 C.3    73  ARG73       0.0489
    121  CD       -21.7810  -20.2730   12.8070 C.3    73  ARG73       0.2205
    122  NE       -21.9850  -21.1270   11.6000 N.pl3  73  ARG73      -0.0865
    123  CZ       -21.8370  -20.5050   10.4240 C.cat  73  ARG73       0.5346
    124  NH1      -21.5440  -19.2030   10.4760 N.pl3  73  ARG73       0.1354
    125  NH2      -21.9870  -21.1520    9.2780 N.pl3  73  ARG73       0.1354
    126  N        -10.1430  -18.4180   11.2430 N.3    78  ILE78      -0.1245
    127  CA        -9.6290  -18.6790    9.9040 C.3    78  ILE78       0.1561
    128  C         -8.7540  -17.5150    9.4730 C.2    78  ILE78       0.2260
    129  O         -9.2120  -16.3540    9.5240 O.2    78  ILE78      -0.2867
    130  CB       -10.7800  -18.9230    8.9110 C.3    78  ILE78       0.0252
    131  CG1      -11.6340  -20.0760    9.4320 C.3    78  ILE78       0.0019
    132  CG2      -10.2270  -19.1900    7.5270 C.3    78  ILE78       0.0019
    133  CD1      -12.6740  -20.5480    8.4700 C.3    78  ILE78       0.0001
    134  N         -5.7750  -15.9460    6.6720 N.3    80  MET80      -0.1245
    135  CA        -5.2180  -15.9080    5.3420 C.3    80  MET80       0.1570
    136  C         -3.6870  -15.7990    5.4250 C.2    80  MET80       0.2261
    137  O         -3.1450  -15.2660    6.4050 O.2    80  MET80      -0.2867
    138  CB        -5.7560  -14.7320    4.5440 C.3    80  MET80       0.0387
    139  CG        -7.2620  -14.7870    4.3090 C.3    80  MET80       0.0595
    140  SD        -7.7640  -13.2270    3.5170 S.3    80  MET80      -0.1393
    141  CE        -9.0450  -12.6550    4.6260 C.3    80  MET80       0.0692
@<TRIPOS>BOND
     1    45    44   ar
     2    22    23    2
     3    22    21    1
     4    29    30    1
     5    24    21    1
     6    24    25    1
     7    44    46   ar
     8    44    43    1
     9    26    25    1
    10    26    27    1
    11    21    20    1
    12    28    27    1
    13    32    31    2
    14    30    31    1
    15    30    33    1
    16    42    43    1
    17    42    39    1
    18    31    38   am
    19    34    33    1
    20    34    35    1
    21    36    35    2
    22    35    37   am
    23    38    39    1
    24    39    40    1
    25    40    41    2
    26    40    47   am
    27    12    11    2
    28    50    49    2
    29    11    10    1
    30    47    48    1
    31    55    56    1
    32   140   139    1
    33   140   141    1
    34    49    48    1
    35    18    19   ar
    36    18    16   ar
    37    60    61    1
    38    60    62    1
    39    60    59    1
    40    19    17   ar
    41    16    14   ar
    42   139   138    1
    43    17    15   ar
    44    48    51    1
    45    10     9    1
    46    10    13    1
    47   138   135    1
    48    56    59    1
    49    56    57    1
    50    14    15   ar
    51    14    13    1
    52   135   136    1
    53   135   134    1
    54    51    52    1
    55   136   137    2
    56    58    57    2
    57    52    54    1
    58    52    53    1
    59    83    82    1
    60    72    71    1
    61   132   130    1
    62    84    82    1
    63    82    81    2
    64    91    89    1
    65    69    68    1
    66    69    70    1
    67    71    70    2
    68    71    73    1
    69    88    87    2
    70   133   131    1
    71    89    86    1
    72    89    90    1
    73     7     6    1
    74     7     8    1
    75     4     3    2
    76    68    67    1
    77     6     5    1
    78     3     2    1
    79    81    80    1
    80   130   131    1
    81   130   127    1
    82    80    79    1
    83    86    87    1
    84    86    85    1
    85   125   123    1
    86    79    78    1
    87    87    92   am
    88    77    76    2
    89   128   129    2
    90   128   127    1
    91   107   108    1
    92   107   104    1
    93    63    64    1
    94     2     5    1
    95     2     1    1
    96   127   126    1
    97   108   109   ar
    98   108   110   ar
    99    67    64    1
   100   109   111   ar
   101   110   112   ar
   102    85    76   am
   103    76    75    1
   104   103   104    1
   105   103    94   am
   106   123   124    1
   107   123   122    2
   108   111   113   ar
   109    64    65    1
   110   104   105    1
   111   112   113   ar
   112    92    93    1
   113    78    75    1
   114    94    93    1
   115    94    95    2
   116   113   114    1
   117    93    96    1
   118    75    74    1
   119   122   121    1
   120    65    66    2
   121    98    99    1
   122    98    97    1
   123   105   106    2
   124    96    97    1
   125    99   100    2
   126   121   120    1
   127   120   119    1
   128   100   102    1
   129   100   101    1
   130   119   116    1
   131   115   116    1
   132   116   117    1
   133   117   118    2
