@<TRIPOS>MOLECULE
tmp/3vxiA01.pdb
 108 104 0 0 0
SMALL
GASTEIGER

@<TRIPOS>ATOM
      1  N          2.8060   12.6950   31.0910 N.3   184  GLY184     -0.1210
      2  CA         1.7770   12.3370   30.1060 C.3   184  GLY184      0.1956
      3  C          1.8980   10.9220   29.5590 C.2   184  GLY184      0.2612
      4  O          1.0140   10.4420   28.8520 O.2   184  GLY184     -0.2717
      5  N          3.0030   10.2550   29.8840 N.am  185  GLN185     -0.1965
      6  CA         3.2350    8.8840   29.4410 C.3   185  GLN185      0.1733
      7  C          2.3620    7.9270   30.2400 C.2   185  GLN185      0.2616
      8  O          2.2440    8.0680   31.4530 O.2   185  GLN185     -0.2715
      9  CB         4.7100    8.5320   29.6300 C.3   185  GLN185      0.0408
     10  CG         5.1340    7.2920   28.8960 C.3   185  GLN185      0.0908
     11  CD         6.6190    6.9970   28.9730 C.2   185  GLN185      0.2608
     12  OE1        7.3760    7.6100   29.7360 O.2   185  GLN185     -0.2717
     13  NE2        7.0480    6.0380   28.1690 N.am  185  GLN185     -0.0878
     14  N          1.7540    6.9590   29.5580 N.am  186  ALA186     -0.1963
     15  CA         0.9430    5.9360   30.2150 C.3   186  ALA186      0.1728
     16  C          1.8340    4.9540   30.9460 C.2   186  ALA186      0.2616
     17  O          2.8820    4.5550   30.4370 O.2   186  ALA186     -0.2715
     18  CB         0.0950    5.1920   29.1830 C.3   186  ALA186      0.0334
     19  N          1.4090    4.5710   32.1420 N.am  187  VAL187     -0.1977
     20  CA         2.0920    3.5450   32.9080 C.3   187  VAL187      0.1596
     21  C          1.1530    2.3480   32.9850 C.2   187  VAL187      0.2287
     22  O          0.0200    2.4700   33.4490 O.2   187  VAL187     -0.2864
     23  CB         2.4800    4.0560   34.3120 C.3   187  VAL187      0.0276
     24  CG1        3.0760    2.9400   35.1530 C.3   187  VAL187      0.0022
     25  CG2        3.4630    5.2230   34.1900 C.3   187  VAL187      0.0022
     26  N         -0.2490   15.7600   27.5770 N.3   287  PHE287     -0.1227
     27  CA        -1.6120   16.1400   27.2190 C.3   287  PHE287      0.1736
     28  C         -2.4810   14.8910   27.2500 C.2   287  PHE287      0.2595
     29  O         -1.9690   13.7740   27.1540 O.2   287  PHE287     -0.2718
     30  CB        -1.6510   16.7900   25.8220 C.3   287  PHE287      0.0547
     31  CG        -1.2410   15.8660   24.7190 C.ar  287  PHE287     -0.0202
     32  CD1       -2.2060   15.1520   24.0010 C.ar  287  PHE287     -0.0042
     33  CD2        0.1020   15.6690   24.4220 C.ar  287  PHE287     -0.0042
     34  CE1       -1.8290   14.2720   22.9900 C.ar  287  PHE287     -0.0003
     35  CE2        0.4890   14.7790   23.4130 C.ar  287  PHE287     -0.0003
     36  CZ        -0.4890   14.0860   22.6900 C.ar  287  PHE287     -0.0000
     37  N         -3.7920   15.0700   27.3740 N.am  288  ASP288     -0.1974
     38  CA        -4.6780   13.9080   27.3860 C.3   288  ASP288      0.1709
     39  C         -6.0050   14.1260   26.6820 C.2   288  ASP288      0.2293
     40  O         -6.8850   13.2860   26.7780 O.2   288  ASP288     -0.2864
     41  CB        -4.8960   13.3850   28.8180 C.3   288  ASP288      0.1436
     42  CG        -5.5700   14.4030   29.7260 C.2   288  ASP288      0.3671
     43  OD1       -5.9610   15.4700   29.2280 O.co2 288  ASP288     -0.2456
     44  OD2       -5.6970   14.1370   30.9450 O.co2 288  ASP288     -0.2456
     45  N         -4.2870    6.2930   20.1930 N.3   309  ASN309     -0.1240
     46  CA        -4.2420    6.3960   21.6590 C.3   309  ASN309      0.1653
     47  C         -5.1960    7.4990   22.1300 C.2   309  ASN309      0.2266
     48  O         -4.8290    8.6750   22.2050 O.2   309  ASN309     -0.2867
     49  CB        -2.8190    6.6790   22.1740 C.3   309  ASN309      0.1155
     50  CG        -2.7640    6.7800   23.6860 C.2   309  ASN309      0.2627
     51  OD1       -3.7690    6.5590   24.3680 O.2   309  ASN309     -0.2716
     52  ND2       -1.6020    7.1320   24.2210 N.am  309  ASN309     -0.0877
     53  N         -6.4660    8.3820   24.9500 N.3   311  ARG311     -0.1231
     54  CA        -6.2440    9.0410   26.2450 C.3   311  ARG311      0.1694
     55  C         -7.5840    9.3380   26.9330 C.2   311  ARG311      0.2591
     56  O         -8.3770    8.4120   27.1290 O.2   311  ARG311     -0.2718
     57  CB        -5.3340   10.2750   26.0950 C.3   311  ARG311      0.0321
     58  CG        -4.0390    9.9660   25.3660 C.3   311  ARG311      0.0489
     59  CD        -3.0810   11.1590   25.2990 C.3   311  ARG311      0.2205
     60  NE        -1.9460   10.8250   24.4320 N.pl3 311  ARG311     -0.0865
     61  CZ        -0.6760   11.1730   24.6430 C.cat 311  ARG311      0.5346
     62  NH1       -0.3210   11.9410   25.6760 N.pl3 311  ARG311      0.1354
     63  NH2        0.2490   10.7580   23.7930 N.pl3 311  ARG311      0.1354
     64  N         -7.8670   10.5970   27.2790 N.am  312  GLN312     -0.1979
     65  CA        -9.0750   10.8970   28.0480 C.3   312  GLN312      0.1601
     66  C        -10.3870   10.6960   27.2820 C.2   312  GLN312      0.2287
     67  O        -11.4470   10.6900   27.9000 O.2   312  GLN312     -0.2864
     68  CB        -8.9960   12.2930   28.6930 C.3   312  GLN312      0.0394
     69  CG       -10.0320   12.5690   29.7980 C.3   312  GLN312      0.0908
     70  CD        -9.8770   11.6730   31.0190 C.2   312  GLN312      0.2608
     71  OE1       -8.7940   11.1440   31.2960 O.2   312  GLN312     -0.2717
     72  NE2      -10.9660   11.5080   31.7650 N.am  312  GLN312     -0.0878
     73  N        -11.3310    7.9650   26.4150 N.3   314  LEU314     -0.1245
     74  CA       -11.8320    6.7200   27.0220 C.3   314  LEU314      0.1561
     75  C        -12.3810    6.9160   28.4340 C.2   314  LEU314      0.2260
     76  O        -12.8850    5.9630   29.0450 O.2   314  LEU314     -0.2867
     77  CB       -10.7450    5.6370   27.0350 C.3   314  LEU314      0.0270
     78  CG       -10.1190    5.2270   25.6980 C.3   314  LEU314      0.0019
     79  CD1       -9.1080    4.1000   25.9090 C.3   314  LEU314      0.0001
     80  CD2      -11.1720    4.8380   24.6550 C.3   314  LEU314      0.0001
     81  N        -10.6340    8.0630   31.1170 N.3   316  GLY316     -0.1210
     82  CA        -9.5690    7.9580   32.1090 C.3   316  GLY316      0.1940
     83  C         -8.5130    6.9880   31.6080 C.2   316  GLY316      0.2454
     84  O         -8.6450    6.4610   30.4960 O.2   316  GLY316     -0.2732
     85  N         -7.4610    6.7520   32.4140 N.am  317  PRO317     -0.2717
     86  CA        -6.4270    5.7900   32.0310 C.3   317  PRO317      0.1535
     87  C         -7.0270    4.3950   31.8260 C.2   317  PRO317      0.2598
     88  O         -7.9150    3.9590   32.5830 O.2   317  PRO317     -0.2715
     89  CB        -5.4480    5.8150   33.2120 C.3   317  PRO317      0.0310
     90  CG        -5.7290    7.0930   33.9370 C.3   317  PRO317      0.0237
     91  CD        -7.1770    7.3930   33.7130 C.3   317  PRO317      0.0939
     92  N         -6.5750    3.7380   30.7610 N.am  318  VAL318     -0.1978
     93  CA        -6.9920    2.3770   30.4180 C.3   318  VAL318      0.1596
     94  C         -5.7320    1.6440   29.9910 C.2   318  VAL318      0.2287
     95  O         -5.0260    2.0980   29.0920 O.2   318  VAL318     -0.2864
     96  CB        -8.0540    2.3630   29.2760 C.3   318  VAL318      0.0276
     97  CG1       -8.3430    0.9290   28.8070 C.3   318  VAL318      0.0022
     98  CG2       -9.3390    3.0410   29.7330 C.3   318  VAL318      0.0022
     99  N         -2.7040   -0.2230   24.9450 N.3   322  HIS322     -0.1241
    100  CA        -1.3940    0.3690   24.6640 C.3   322  HIS322      0.1621
    101  C         -0.4910   -0.6750   24.0370 C.2   322  HIS322      0.2264
    102  O         -0.6270   -1.8660   24.2960 O.2   322  HIS322     -0.2867
    103  CB        -0.7440    0.9200   25.9400 C.3   322  HIS322      0.0745
    104  CG        -1.4840    2.0810   26.5310 C.ar  322  HIS322      0.0817
    105  ND1       -1.3200    3.3750   26.0860 N.ar  322  HIS322     -0.2268
    106  CD2       -2.4240    2.1320   27.5030 C.ar  322  HIS322      0.1154
    107  CE1       -2.1200    4.1760   26.7690 C.ar  322  HIS322      0.1986
    108  NE2       -2.8020    3.4470   27.6350 N.ar  322  HIS322     -0.2212
@<TRIPOS>BOND
     1    45    46    1
     2    46    47    1
     3    46    49    1
     4    47    48    2
     5    49    50    1
     6    36    34   ar
     7    36    35   ar
     8    34    32   ar
     9    35    33   ar
    10    50    52   am
    11    50    51    2
    12    63    61    1
    13    32    31   ar
    14   101   102    2
    15   101   100    1
    16    33    31   ar
    17    60    61    2
    18    60    59    1
    19    61    62    1
    20    80    78    1
    21   100    99    1
    22   100   103    1
    23    31    30    1
    24    53    54    1
    25    59    58    1
    26    58    57    1
    27    78    79    1
    28    78    77    1
    29    30    27    1
    30   103   104    1
    31   105   104   ar
    32   105   107   ar
    33    57    54    1
    34    54    55    1
    35    73    74    1
    36   104   106   ar
    37    39    40    2
    38    39    38    1
    39   107   108   ar
    40    55    56    2
    41    55    64   am
    42    74    77    1
    43    74    75    1
    44    29    28    2
    45    27    28    1
    46    27    26    1
    47    28    37   am
    48    64    65    1
    49    66    67    2
    50    66    65    1
    51    37    38    1
    52    38    41    1
    53   106   108   ar
    54    65    68    1
    55    13    11   am
    56    75    76    2
    57    68    69    1
    58    97    96    1
    59    41    42    1
    60     4     3    2
    61    10    11    1
    62    10     9    1
    63    11    12    2
    64    95    94    2
    65    18    15    1
    66    43    42   ar
    67    96    98    1
    68    96    93    1
    69     6     9    1
    70     6     5    1
    71     6     7    1
    72    14    15    1
    73    14     7   am
    74     3     5   am
    75     3     2    1
    76    42    44   ar
    77    69    70    1
    78    94    93    1
    79     2     1    1
    80    15    16    1
    81     7     8    2
    82    93    92    1
    83    17    16    2
    84    84    83    2
    85    92    87   am
    86    16    19   am
    87    70    71    2
    88    70    72   am
    89    81    82    1
    90    83    82    1
    91    83    85   am
    92    87    86    1
    93    87    88    2
    94    86    85    1
    95    86    89    1
    96    19    20    1
    97    85    91    1
    98    20    21    1
    99    20    23    1
   100    21    22    2
   101    89    90    1
   102    91    90    1
   103    25    23    1
   104    23    24    1
