@<TRIPOS>MOLECULE
tmp/3vxjA01.pdb
 122 121 0 0 0
SMALL
GASTEIGER

@<TRIPOS>ATOM
      1  N          1.3420   12.1720   31.2550 N.3   184  GLY184     -0.1210
      2  CA         0.3990   11.8240   30.1970 C.3   184  GLY184      0.1956
      3  C          0.5640   10.4120   29.6630 C.2   184  GLY184      0.2612
      4  O         -0.2940    9.9190   28.9320 O.2   184  GLY184     -0.2717
      5  N          1.6590    9.7580   30.0250 N.am  185  GLN185     -0.1965
      6  CA         1.9180    8.4010   29.5850 C.3   185  GLN185      0.1733
      7  C          0.9890    7.4260   30.3170 C.2   185  GLN185      0.2616
      8  O          0.8090    7.5310   31.5370 O.2   185  GLN185     -0.2715
      9  CB         3.3900    8.0670   29.8330 C.3   185  GLN185      0.0408
     10  CG         3.8130    6.7570   29.2570 C.3   185  GLN185      0.0908
     11  CD         5.3130    6.5450   29.2350 C.2   185  GLN185      0.2608
     12  OE1        6.0660    7.1230   30.0230 O.2   185  GLN185     -0.2717
     13  NE2        5.7530    5.6780   28.3410 N.am  185  GLN185     -0.0878
     14  N          0.3730    6.5100   29.5690 N.am  186  ALA186     -0.1977
     15  CA        -0.4910    5.4980   30.1750 C.3   186  ALA186      0.1597
     16  C          0.3640    4.4640   30.8880 C.2   186  ALA186      0.2287
     17  O          1.3670    3.9940   30.3490 O.2   186  ALA186     -0.2864
     18  CB        -1.3710    4.8330   29.1290 C.3   186  ALA186      0.0319
     19  N         -1.5590   15.4580   27.6390 N.3   287  PHE287     -0.1227
     20  CA        -2.8600   15.9260   27.1700 C.3   287  PHE287      0.1736
     21  C         -3.7550   14.7060   27.0780 C.2   287  PHE287      0.2595
     22  O         -3.2620   13.5700   26.9790 O.2   287  PHE287     -0.2718
     23  CB        -2.7530   16.6050   25.7940 C.3   287  PHE287      0.0547
     24  CG        -2.3120   15.6760   24.6860 C.ar  287  PHE287     -0.0202
     25  CD1       -3.2480   15.0220   23.8810 C.ar  287  PHE287     -0.0042
     26  CD2       -0.9640   15.4200   24.4780 C.ar  287  PHE287     -0.0042
     27  CE1       -2.8390   14.1470   22.8720 C.ar  287  PHE287     -0.0003
     28  CE2       -0.5450   14.5390   23.4660 C.ar  287  PHE287     -0.0003
     29  CZ        -1.4920   13.9100   22.6700 C.ar  287  PHE287     -0.0000
     30  N         -5.0630   14.9220   27.0980 N.am  288  ASP288     -0.1974
     31  CA        -5.9910   13.7930   27.0700 C.3   288  ASP288      0.1709
     32  C         -7.2940   14.0570   26.3130 C.2   288  ASP288      0.2293
     33  O         -8.2110   13.2530   26.3940 O.2   288  ASP288     -0.2864
     34  CB        -6.2880   13.2860   28.4930 C.3   288  ASP288      0.1436
     35  CG        -6.9530   14.3380   29.3780 C.2   288  ASP288      0.3671
     36  OD1       -7.2810   15.4370   28.8820 O.co2 288  ASP288     -0.2456
     37  OD2       -7.1510   14.0580   30.5810 O.co2 288  ASP288     -0.2456
     38  N         -5.3590    6.2790   19.8030 N.3   309  ASN309     -0.1226
     39  CA        -5.4360    6.3560   21.2550 C.3   309  ASN309      0.1770
     40  C         -6.3950    7.4640   21.6720 C.2   309  ASN309      0.2439
     41  O         -6.0020    8.6300   21.7830 O.2   309  ASN309     -0.2733
     42  CB        -4.0640    6.5790   21.8910 C.3   309  ASN309      0.1168
     43  CG        -4.1410    6.7070   23.4080 C.2   309  ASN309      0.2627
     44  OD1       -5.1970    6.4740   24.0210 O.2   309  ASN309     -0.2716
     45  ND2       -3.0260    7.1060   24.0220 N.am  309  ASN309     -0.0877
     46  N         -7.6670    7.1010   21.9040 N.am  310  PRO310     -0.2718
     47  CA        -8.7060    8.0910   22.1620 C.3   310  PRO310      0.1535
     48  C         -8.6110    8.8100   23.5050 C.2   310  PRO310      0.2598
     49  O         -9.3210    9.7890   23.6910 O.2   310  PRO310     -0.2715
     50  CB       -10.0030    7.2720   22.0880 C.3   310  PRO310      0.0310
     51  CG        -9.6410    6.0600   21.2830 C.3   310  PRO310      0.0237
     52  CD        -8.2320    5.7640   21.6590 C.3   310  PRO310      0.0939
     53  N         -7.7470    8.3580   24.4150 N.am  311  ARG311     -0.1964
     54  CA        -7.5910    9.0230   25.7190 C.3   311  ARG311      0.1729
     55  C         -8.9720    9.2800   26.3490 C.2   311  ARG311      0.2616
     56  O         -9.7620    8.3340   26.4660 O.2   311  ARG311     -0.2715
     57  CB        -6.6840   10.2690   25.6130 C.3   311  ARG311      0.0348
     58  CG        -5.3340    9.9310   25.0090 C.3   311  ARG311      0.0492
     59  CD        -4.3520   11.0970   24.9950 C.3   311  ARG311      0.2205
     60  NE        -3.1700   10.7120   24.2170 N.pl3 311  ARG311     -0.0865
     61  CZ        -1.9020   10.9870   24.5140 C.cat 311  ARG311      0.5346
     62  NH1       -1.5840   11.6930   25.5920 N.pl3 311  ARG311      0.1354
     63  NH2       -0.9460   10.5350   23.7220 N.pl3 311  ARG311      0.1354
     64  N         -9.2780   10.5150   26.7550 N.am  312  GLN312     -0.1977
     65  CA       -10.5310   10.7940   27.4690 C.3   312  GLN312      0.1601
     66  C        -11.7930   10.6570   26.6140 C.2   312  GLN312      0.2287
     67  O        -12.8990   10.6570   27.1530 O.2   312  GLN312     -0.2864
     68  CB       -10.4800   12.1700   28.1600 C.3   312  GLN312      0.0394
     69  CG       -11.6180   12.4610   29.1550 C.3   312  GLN312      0.0908
     70  CD       -11.6000   11.5640   30.3860 C.2   312  GLN312      0.2608
     71  OE1      -10.5610   11.0150   30.7590 O.2   312  GLN312     -0.2717
     72  NE2      -12.7540   11.4260   31.0260 N.am  312  GLN312     -0.0878
     73  N        -12.6940    7.9940   25.6280 N.3   314  LEU314     -0.1245
     74  CA       -13.2260    6.7350   26.1740 C.3   314  LEU314      0.1561
     75  C        -13.9220    6.9080   27.5260 C.2   314  LEU314      0.2260
     76  O        -14.5830    5.9770   27.9990 O.2   314  LEU314     -0.2867
     77  CB       -12.1290    5.6680   26.2720 C.3   314  LEU314      0.0270
     78  CG       -11.4950    5.2140   24.9600 C.3   314  LEU314      0.0019
     79  CD1      -10.4750    4.1260   25.2380 C.3   314  LEU314      0.0001
     80  CD2      -12.5460    4.7220   23.9710 C.3   314  LEU314      0.0001
     81  N        -12.2690    7.8400   30.3990 N.3   316  GLY316     -0.1210
     82  CA       -11.2710    7.7010   31.4540 C.3   316  GLY316      0.1940
     83  C        -10.1790    6.7530   30.9930 C.2   316  GLY316      0.2454
     84  O        -10.2110    6.2870   29.8440 O.2   316  GLY316     -0.2732
     85  N         -9.1910    6.4710   31.8660 N.am  317  PRO317     -0.2717
     86  CA        -8.1250    5.5250   31.5370 C.3   317  PRO317      0.1535
     87  C         -8.6860    4.1320   31.2610 C.2   317  PRO317      0.2598
     88  O         -9.5920    3.6670   31.9590 O.2   317  PRO317     -0.2715
     89  CB        -7.2500    5.5180   32.7960 C.3   317  PRO317      0.0310
     90  CG        -7.5550    6.8090   33.4810 C.3   317  PRO317      0.0237
     91  CD        -9.0000    7.0700   33.2010 C.3   317  PRO317      0.0939
     92  N         -8.1850    3.5080   30.2030 N.am  318  VAL318     -0.1978
     93  CA        -8.5740    2.1580   29.8190 C.3   318  VAL318      0.1596
     94  C         -7.2730    1.4470   29.4650 C.2   318  VAL318      0.2287
     95  O         -6.5220    1.9350   28.6170 O.2   318  VAL318     -0.2864
     96  CB        -9.5470    2.1740   28.5920 C.3   318  VAL318      0.0276
     97  CG1       -9.8620    0.7470   28.0990 C.3   318  VAL318      0.0022
     98  CG2      -10.8410    2.9370   28.9040 C.3   318  VAL318      0.0022
     99  N         -4.0520   -0.3000   24.5790 N.3   322  HIS322     -0.1241
    100  CA        -2.7120    0.2350   24.3950 C.3   322  HIS322      0.1621
    101  C         -1.7880   -0.8060   23.7850 C.2   322  HIS322      0.2264
    102  O         -1.9660   -2.0050   23.9930 O.2   322  HIS322     -0.2867
    103  CB        -2.1590    0.7590   25.7180 C.3   322  HIS322      0.0745
    104  CG        -2.9220    1.9300   26.2550 C.ar  322  HIS322      0.0817
    105  ND1       -2.8370    3.1920   25.7080 N.ar  322  HIS322     -0.2268
    106  CD2       -3.8060    2.0270   27.2790 C.ar  322  HIS322      0.1154
    107  CE1       -3.6260    4.0170   26.3730 C.ar  322  HIS322      0.1986
    108  NE2       -4.2350    3.3340   27.3250 N.ar  322  HIS322     -0.2212
    109  N        -11.7730    1.5700   15.4640 N.3   370  TRP370     -0.1241
    110  CA       -11.5340    2.9870   15.6350 C.3   370  TRP370      0.1605
    111  C        -11.2480    3.7260   14.3210 C.2   370  TRP370      0.2264
    112  O        -12.0960    4.4880   13.8550 O.2   370  TRP370     -0.2867
    113  CB       -10.4380    3.2180   16.6820 C.3   370  TRP370      0.0550
    114  CG       -10.8800    2.8490   18.0850 C.ar  370  TRP370      0.0003
    115  CD1      -12.1620    2.5910   18.5140 C.ar  370  TRP370      0.0946
    116  CD2      -10.0400    2.7180   19.2290 C.ar  370  TRP370      0.0152
    117  NE1      -12.1640    2.3200   19.8610 N.ar  370  TRP370     -0.2442
    118  CE2      -10.8730    2.3820   20.3220 C.ar  370  TRP370      0.0810
    119  CE3       -8.6600    2.8420   19.4360 C.ar  370  TRP370      0.0012
    120  CZ2      -10.3770    2.1890   21.6020 C.ar  370  TRP370      0.0191
    121  CZ3       -8.1660    2.6390   20.7060 C.ar  370  TRP370      0.0001
    122  CH2       -9.0240    2.3210   21.7820 C.ar  370  TRP370      0.0015
@<TRIPOS>BOND
     1   112   111    2
     2   111   110    1
     3   109   110    1
     4   110   113    1
     5   113   114    1
     6   114   115   ar
     7   114   116   ar
     8   115   117   ar
     9   116   119   ar
    10   116   118   ar
    11   119   121   ar
    12    38    39    1
    13   117   118   ar
    14   118   120   ar
    15   121   122   ar
    16    39    40    1
    17    39    42    1
    18    51    52    1
    19    51    50    1
    20   120   122   ar
    21    52    46    1
    22    40    41    2
    23    40    46   am
    24    42    43    1
    25    46    47    1
    26    50    47    1
    27    47    48    1
    28    29    27   ar
    29    29    28   ar
    30    27    25   ar
    31    43    44    2
    32    43    45   am
    33    28    26   ar
    34    48    49    2
    35    48    53   am
    36    63    61    1
    37   101   102    2
    38   101   100    1
    39    25    24   ar
    40    80    78    1
    41    60    61    2
    42    60    59    1
    43   100    99    1
    44   100   103    1
    45    53    54    1
    46    26    24   ar
    47    61    62    1
    48    24    23    1
    49    78    79    1
    50    78    77    1
    51    59    58    1
    52    58    57    1
    53    57    54    1
    54    73    74    1
    55   105   104   ar
    56   105   107   ar
    57   103   104    1
    58    54    55    1
    59    23    20    1
    60    74    77    1
    61    74    75    1
    62   104   106   ar
    63    32    33    2
    64    32    31    1
    65    55    56    2
    66    55    64   am
    67   107   108   ar
    68    66    67    2
    69    66    65    1
    70    64    65    1
    71    22    21    2
    72    31    30    1
    73    31    34    1
    74    21    30   am
    75    21    20    1
    76    20    19    1
    77   106   108   ar
    78    65    68    1
    79    75    76    2
    80    97    96    1
    81    68    69    1
    82    13    11   am
    83    34    35    1
    84    96    98    1
    85    96    93    1
    86    95    94    2
    87    36    35   ar
    88     4     3    2
    89    18    15    1
    90    69    70    1
    91    11    10    1
    92    11    12    2
    93    10     9    1
    94    35    37   ar
    95    94    93    1
    96    14    15    1
    97    14     7   am
    98     6     9    1
    99     6     5    1
   100     6     7    1
   101     3     5   am
   102     3     2    1
   103    93    92    1
   104    84    83    2
   105    15    16    1
   106     2     1    1
   107    92    87   am
   108     7     8    2
   109    17    16    2
   110    70    71    2
   111    70    72   am
   112    81    82    1
   113    83    82    1
   114    83    85   am
   115    87    86    1
   116    87    88    2
   117    86    85    1
   118    86    89    1
   119    85    91    1
   120    89    90    1
   121    91    90    1
