@<TRIPOS>MOLECULE
tmp/3vxmD00.pdb
 81 81 0 0 0
SMALL
GASTEIGER

@<TRIPOS>ATOM
      1  N        -12.3070   18.6800   37.7730 N.3    27  TYR27      -0.1227
      2  CA       -12.2380   17.7360   38.8990 C.3    27  TYR27       0.1736
      3  C        -12.2980   18.4980   40.2270 C.2    27  TYR27       0.2596
      4  O        -11.7740   19.6060   40.3310 O.2    27  TYR27      -0.2718
      5  CB       -10.9430   16.9150   38.8070 C.3    27  TYR27       0.0548
      6  CG       -10.8670   15.7000   39.7110 C.ar   27  TYR27      -0.0200
      7  CD1       -9.8130   15.5470   40.6120 C.ar   27  TYR27      -0.0009
      8  CD2      -11.8270   14.6880   39.6440 C.ar   27  TYR27      -0.0009
      9  CE1       -9.7280   14.4360   41.4340 C.ar   27  TYR27       0.0417
     10  CE2      -11.7480   13.5740   40.4630 C.ar   27  TYR27       0.0417
     11  CZ       -10.6950   13.4550   41.3540 C.ar   27  TYR27       0.1957
     12  OH       -10.6110   12.3560   42.1730 O.3    27  TYR27      -0.2866
     13  N        -12.9280   17.9020   41.2400 N.am   28  GLY28      -0.1942
     14  CA       -13.0710   18.5390   42.5600 C.3    28  GLY28       0.2014
     15  C        -11.8040   18.6400   43.4070 C.2    28  GLY28       0.2639
     16  O        -11.8470   19.0910   44.5490 O.2    28  GLY28      -0.2714
     17  N        -10.6780   18.1850   42.8700 N.am   29  ALA29      -0.1963
     18  CA        -9.3770   18.4060   43.4920 C.3    29  ALA29       0.1728
     19  C         -8.3320   18.5650   42.3910 C.2    29  ALA29       0.2617
     20  O         -8.6550   18.4420   41.2130 O.2    29  ALA29      -0.2715
     21  CB        -9.0180   17.2460   44.4110 C.3    29  ALA29       0.0334
     22  N         -7.0910   18.8550   42.7710 N.am   30  THR30      -0.1937
     23  CA        -6.0000   18.9280   41.8110 C.3    30  THR30       0.2013
     24  C         -5.4480   17.5360   41.5320 C.2    30  THR30       0.2484
     25  O         -4.8730   16.9140   42.4220 O.2    30  THR30      -0.2729
     26  CB        -4.8600   19.8360   42.3100 C.3    30  THR30       0.1807
     27  OG1       -5.3400   21.1790   42.4410 O.3    30  THR30      -0.2208
     28  CG2       -3.7060   19.8250   41.3240 C.3    30  THR30       0.0379
     29  N         -5.6280   17.0400   40.2920 N.am   31  PRO31      -0.2715
     30  CA        -5.1720   15.7000   39.9340 C.3    31  PRO31       0.1536
     31  C         -3.7040   15.6730   39.5270 C.2    31  PRO31       0.2598
     32  O         -3.0330   16.7040   39.5290 O.2    31  PRO31      -0.2715
     33  CB        -6.0470   15.3530   38.7290 C.3    31  PRO31       0.0310
     34  CG        -6.3090   16.6740   38.0770 C.3    31  PRO31       0.0237
     35  CD        -6.3560   17.6930   39.1850 C.3    31  PRO31       0.0939
     36  N         -3.2180   14.4900   39.1730 N.am   32  TYR32      -0.1974
     37  CA        -1.9650   14.3660   38.4530 C.3    32  TYR32       0.1639
     38  C         -2.1840   14.6790   36.9830 C.2    32  TYR32       0.2290
     39  O         -3.2360   14.3750   36.4250 O.2    32  TYR32      -0.2864
     40  CB        -1.4020   12.9590   38.6200 C.3    32  TYR32       0.0560
     41  CG        -1.0700   12.6330   40.0500 C.ar   32  TYR32      -0.0198
     42  CD1        0.2220   12.7940   40.5370 C.ar   32  TYR32      -0.0009
     43  CD2       -2.0590   12.2010   40.9290 C.ar   32  TYR32      -0.0009
     44  CE1        0.5280   12.5050   41.8510 C.ar   32  TYR32       0.0417
     45  CE2       -1.7720   11.9320   42.2500 C.ar   32  TYR32       0.0417
     46  CZ        -0.4790   12.0790   42.7060 C.ar   32  TYR32       0.1957
     47  OH        -0.1920   11.7900   44.0160 O.3    32  TYR32      -0.2866
     48  N         -3.6310   27.0950   37.9890 N.3    69  ARG69      -0.1245
     49  CA        -4.7130   26.6700   38.8780 C.3    69  ARG69       0.1563
     50  C         -6.0190   27.4110   38.6440 C.2    69  ARG69       0.2260
     51  O         -7.0800   26.7950   38.5750 O.2    69  ARG69      -0.2867
     52  CB        -4.3260   26.7720   40.3500 C.3    69  ARG69       0.0307
     53  CG        -5.2280   25.9080   41.2170 C.3    69  ARG69       0.0489
     54  CD        -5.3070   26.3410   42.6730 C.3    69  ARG69       0.2205
     55  NE        -5.9190   25.2660   43.4520 N.pl3  69  ARG69      -0.0865
     56  CZ        -7.2050   25.2100   43.8010 C.cat  69  ARG69       0.5346
     57  NH1       -8.0310   26.2110   43.5100 N.pl3  69  ARG69       0.1354
     58  NH2       -7.6600   24.1580   44.4760 N.pl3  69  ARG69       0.1354
     59  N         -4.5310   11.9000   36.1490 N.3    94  GLY94      -0.1225
     60  CA        -4.5110   10.7280   37.0010 C.3    94  GLY94       0.1811
     61  C         -5.2520   11.0130   38.2890 C.2    94  GLY94       0.2280
     62  O         -4.9560   11.9830   38.9880 O.2    94  GLY94      -0.2866
     63  N         -8.2630    8.9220   41.3550 N.3    96  PRO96      -0.2116
     64  CA        -9.0080    7.7260   41.7610 C.3    96  PRO96       0.1372
     65  C        -10.1710    7.4140   40.8250 C.2    96  PRO96       0.2244
     66  O        -10.8370    8.3310   40.3350 O.2    96  PRO96      -0.2868
     67  CB        -9.5460    8.0990   43.1480 C.3    96  PRO96       0.0268
     68  CG        -8.5790    9.1110   43.6650 C.3    96  PRO96       0.0207
     69  CD        -8.1070    9.8810   42.4630 C.3    96  PRO96       0.0892
     70  N         -6.2850    3.9980   41.1010 N.3   102  TYR102     -0.1241
     71  CA        -6.0550    5.1600   40.2530 C.3   102  TYR102      0.1605
     72  C         -6.1790    4.8000   38.7840 C.2   102  TYR102      0.2264
     73  O         -6.0340    3.6370   38.4080 O.2   102  TYR102     -0.2867
     74  CB        -4.6900    5.7830   40.5370 C.3   102  TYR102      0.0534
     75  CG        -4.7220    6.9390   41.5230 C.ar  102  TYR102     -0.0201
     76  CD1       -4.3070    8.2150   41.1410 C.ar  102  TYR102     -0.0009
     77  CD2       -5.1420    6.7520   42.8430 C.ar  102  TYR102     -0.0009
     78  CE1       -4.3210    9.2710   42.0390 C.ar  102  TYR102      0.0417
     79  CE2       -5.1610    7.7990   43.7440 C.ar  102  TYR102      0.0417
     80  CZ        -4.7580    9.0610   43.3370 C.ar  102  TYR102      0.1957
     81  OH        -4.7720   10.1090   44.2280 O.3   102  TYR102     -0.2866
@<TRIPOS>BOND
     1    59    60    1
     2    39    38    2
     3    38    37    1
     4    60    61    1
     5     1     2    1
     6    48    49    1
     7    34    33    1
     8    34    35    1
     9    61    62    2
    10    73    72    2
    11    37    40    1
    12    37    36    1
    13    51    50    2
    14    40    41    1
    15    50    49    1
    16    33    30    1
    17    72    71    1
    18     5     2    1
    19     5     6    1
    20    49    52    1
    21     2     3    1
    22    36    31   am
    23    35    29    1
    24    31    32    2
    25    31    30    1
    26     8     6   ar
    27     8    10   ar
    28     6     7   ar
    29    30    29    1
    30    41    42   ar
    31    41    43   ar
    32     3     4    2
    33     3    13   am
    34    71    74    1
    35    71    70    1
    36    29    24   am
    37    66    65    2
    38    52    53    1
    39    10    11   ar
    40    42    44   ar
    41    74    75    1
    42     7     9   ar
    43    65    64    1
    44    43    45   ar
    45    76    75   ar
    46    76    78   ar
    47    20    19    2
    48    53    54    1
    49    13    14    1
    50    28    26    1
    51    11     9   ar
    52    11    12    1
    53    63    64    1
    54    63    69    1
    55    75    77   ar
    56    24    23    1
    57    24    25    2
    58    64    67    1
    59    23    26    1
    60    23    22    1
    61    44    46   ar
    62    78    80   ar
    63    45    46   ar
    64    26    27    1
    65    19    22   am
    66    19    18    1
    67    69    68    1
    68    14    15    1
    69    54    55    1
    70    46    47    1
    71    77    79   ar
    72    17    15   am
    73    17    18    1
    74    67    68    1
    75    80    79   ar
    76    80    81    1
    77    15    16    2
    78    55    56    2
    79    18    21    1
    80    57    56    1
    81    56    58    1
