@<TRIPOS>MOLECULE
tmp/3vxsD00.pdb
 85 84 0 0 0
SMALL
GASTEIGER

@<TRIPOS>ATOM
      1  N        -18.2930  -15.5710   35.6120 N.3    29  ASN29      -0.1225
      2  CA       -18.6630  -16.6840   36.4940 C.3    29  ASN29       0.1785
      3  C        -19.6030  -17.7250   35.8840 C.2    29  ASN29       0.2597
      4  O        -19.7900  -18.8090   36.4430 O.2    29  ASN29      -0.2718
      5  CB       -19.2320  -16.1650   37.8250 C.3    29  ASN29       0.1169
      6  CG       -20.4770  -15.3070   37.6500 C.2    29  ASN29       0.2627
      7  OD1      -20.7640  -14.7870   36.5610 O.2    29  ASN29      -0.2716
      8  ND2      -21.2210  -15.1420   38.7420 N.am   29  ASN29      -0.0877
      9  N        -20.2050  -17.3950   34.7460 N.am   30  ARG30      -0.1979
     10  CA       -21.1340  -18.3150   34.1100 C.3    30  ARG30       0.1597
     11  C        -20.6640  -18.6480   32.7180 C.2    30  ARG30       0.2287
     12  O        -20.1690  -17.7730   32.0030 O.2    30  ARG30      -0.2864
     13  CB       -22.5430  -17.7420   34.0680 C.3    30  ARG30       0.0334
     14  CG       -23.2070  -17.7080   35.4360 C.3    30  ARG30       0.0492
     15  CD       -24.5540  -17.0220   35.4030 C.3    30  ARG30       0.2205
     16  NE       -25.1400  -17.0160   36.7440 N.pl3  30  ARG30      -0.0865
     17  CZ       -25.0010  -16.0310   37.6280 C.cat  30  ARG30       0.5346
     18  NH1      -24.2880  -14.9500   37.3250 N.pl3  30  ARG30       0.1354
     19  NH2      -25.5770  -16.1300   38.8320 N.pl3  30  ARG30       0.1354
     20  N        -21.8400  -21.1010   29.1790 N.3    32  TYR32      -0.1241
     21  CA       -22.9820  -21.7080   28.5270 C.3    32  TYR32       0.1605
     22  C        -22.5270  -22.4290   27.2660 C.2    32  TYR32       0.2264
     23  O        -21.6540  -21.9250   26.5580 O.2    32  TYR32      -0.2867
     24  CB       -23.9750  -20.6220   28.1000 C.3    32  TYR32       0.0534
     25  CG       -24.3120  -19.5530   29.1340 C.ar   32  TYR32      -0.0201
     26  CD1      -25.5510  -19.5420   29.7610 C.ar   32  TYR32      -0.0009
     27  CD2      -23.4100  -18.5340   29.4420 C.ar   32  TYR32      -0.0009
     28  CE1      -25.8870  -18.5630   30.6920 C.ar   32  TYR32       0.0417
     29  CE2      -23.7310  -17.5530   30.3740 C.ar   32  TYR32       0.0417
     30  CZ       -24.9650  -17.5720   30.9960 C.ar   32  TYR32       0.1957
     31  OH       -25.3000  -16.5810   31.9000 O.3    32  TYR32      -0.2866
     32  N        -22.4970  -22.3090   36.7320 N.3    49  GLN49      -0.1245
     33  CA       -22.0240  -21.2080   37.5630 C.3    49  GLN49       0.1566
     34  C        -20.9030  -21.8050   38.4070 C.2    49  GLN49       0.2260
     35  O        -21.1250  -22.7800   39.1310 O.2    49  GLN49      -0.2867
     36  CB       -23.1310  -20.6340   38.4500 C.3    49  GLN49       0.0367
     37  CG       -22.6630  -19.4270   39.2580 C.3    49  GLN49       0.0905
     38  CD       -23.7320  -18.8590   40.1690 C.2    49  GLN49       0.2608
     39  OE1      -24.9040  -19.2120   40.0670 O.2    49  GLN49      -0.2717
     40  NE2      -23.3310  -17.9600   41.0510 N.am   49  GLN49      -0.0878
     41  N        -20.5970  -15.1070   30.6970 N.3    94  SER94      -0.1202
     42  CA       -21.3360  -13.8980   31.0200 C.3    94  SER94       0.2020
     43  C        -20.7920  -13.1650   32.2440 C.2    94  SER94       0.2619
     44  O        -20.2500  -13.7790   33.1720 O.2    94  SER94      -0.2717
     45  CB       -22.8410  -14.1850   31.1650 C.3    94  SER94       0.2103
     46  OG       -23.1370  -15.0150   32.2830 O.3    94  SER94      -0.2182
     47  N        -20.9470  -11.8460   32.2060 N.am   95  SER95      -0.1937
     48  CA       -20.4740  -10.9390   33.2430 C.3    95  SER95       0.2055
     49  C        -21.2780  -11.0790   34.5350 C.2    95  SER95       0.2643
     50  O        -22.4580  -11.4380   34.5070 O.2    95  SER95      -0.2714
     51  CB       -20.5700   -9.4940   32.7390 C.3    95  SER95       0.2130
     52  OG       -21.9050   -9.1940   32.3370 O.3    95  SER95      -0.2179
     53  N        -20.6360  -10.7570   35.6580 N.am   96  TRP96      -0.1959
     54  CA       -21.2480  -10.8980   36.9820 C.3    96  TRP96       0.1771
     55  C        -22.4420   -9.9970   37.1690 C.2    96  TRP96       0.2620
     56  O        -23.3470  -10.3090   37.9370 O.2    96  TRP96      -0.2715
     57  CB       -20.2080  -10.6330   38.0760 C.3    96  TRP96       0.0590
     58  CG       -19.8180   -9.1760   38.1740 C.ar   96  TRP96       0.0006
     59  CD1      -18.7710   -8.5240   37.5220 C.ar   96  TRP96       0.0946
     60  CD2      -20.4850   -8.1320   38.9670 C.ar   96  TRP96       0.0152
     61  NE1      -18.7440   -7.1910   37.8530 N.ar   96  TRP96      -0.2442
     62  CE2      -19.7420   -6.8900   38.7200 C.ar   96  TRP96       0.0810
     63  CE3      -21.5730   -8.1080   39.8370 C.ar   96  TRP96       0.0012
     64  CZ2      -20.1010   -5.6840   39.3200 C.ar   96  TRP96       0.0191
     65  CZ3      -21.9280   -6.8890   40.4320 C.ar   96  TRP96       0.0001
     66  CH2      -21.2060   -5.7050   40.1800 C.ar   96  TRP96       0.0015
     67  N        -22.4580   -8.8630   36.4670 N.am   97  ASP97      -0.1957
     68  CA       -23.4420   -7.8060   36.7150 C.3    97  ASP97       0.1840
     69  C        -24.6220   -7.7920   35.7490 C.2    97  ASP97       0.2623
     70  O        -25.7650   -7.9330   36.1740 O.2    97  ASP97      -0.2715
     71  CB       -22.7670   -6.4200   36.7960 C.3    97  ASP97       0.1450
     72  CG       -21.9490   -6.0760   35.5520 C.2    97  ASP97       0.3671
     73  OD1      -21.7770   -6.9370   34.6630 O.co2  97  ASP97      -0.2456
     74  OD2      -21.4650   -4.9260   35.4700 O.co2  97  ASP97      -0.2456
     75  N        -24.3550   -7.6340   34.4500 N.am   98  THR98      -0.1937
     76  CA       -25.4310   -7.5870   33.4620 C.3    98  THR98       0.2028
     77  C        -25.8210   -8.9620   32.9700 C.2    98  THR98       0.2642
     78  O        -26.9390   -9.1650   32.4900 O.2    98  THR98      -0.2714
     79  CB       -25.0300   -6.7940   32.1980 C.3    98  THR98       0.1808
     80  OG1      -23.7670   -7.2780   31.7110 O.3    98  THR98      -0.2208
     81  CG2      -24.9510   -5.3070   32.5030 C.3    98  THR98       0.0379
     82  N        -24.8860   -9.9010   33.0400 N.am   99  GLY99      -0.1954
     83  CA       -25.1160  -11.2170   32.4590 C.3    99  GLY99       0.1869
     84  C        -25.1330  -11.1830   30.9400 C.2    99  GLY99       0.2309
     85  O        -25.7330  -12.0420   30.3010 O.2    99  GLY99      -0.2863
@<TRIPOS>BOND
     1    23    22    2
     2    22    21    1
     3    24    21    1
     4    24    25    1
     5    21    20    1
     6    25    27   ar
     7    25    26   ar
     8    27    29   ar
     9    26    28   ar
    10    85    84    2
    11    29    30   ar
    12    28    30   ar
    13    41    42    1
    14    84    83    1
    15    30    31    1
    16    42    45    1
    17    42    43    1
    18    45    46    1
    19    80    79    1
    20    12    11    2
    21    79    81    1
    22    79    76    1
    23    47    43   am
    24    47    48    1
    25    43    44    2
    26    52    51    1
    27    83    82    1
    28    78    77    2
    29    11    10    1
    30    51    48    1
    31    77    82   am
    32    77    76    1
    33    48    49    1
    34    76    75    1
    35    13    10    1
    36    13    14    1
    37    10     9    1
    38    75    69   am
    39    50    49    2
    40    49    53   am
    41    73    72   ar
    42     9     3   am
    43    15    14    1
    44    15    16    1
    45    74    72   ar
    46    72    71    1
    47     1     2    1
    48    53    54    1
    49    69    70    2
    50    69    68    1
    51     3     4    2
    52     3     2    1
    53    67    68    1
    54    67    55   am
    55     2     5    1
    56     7     6    2
    57    68    71    1
    58    32    33    1
    59    16    17    2
    60    54    55    1
    61    54    57    1
    62    55    56    2
    63    18    17    1
    64    59    61   ar
    65    59    58   ar
    66    33    34    1
    67    33    36    1
    68    17    19    1
    69     6     5    1
    70     6     8   am
    71    61    62   ar
    72    57    58    1
    73    58    60   ar
    74    34    35    2
    75    36    37    1
    76    62    60   ar
    77    62    64   ar
    78    60    63   ar
    79    37    38    1
    80    64    66   ar
    81    63    65   ar
    82    39    38    2
    83    38    40   am
    84    66    65   ar
