@<TRIPOS>MOLECULE
tmp/3vxwA00.pdb
 161 155 0 0 0
SMALL
GASTEIGER

@<TRIPOS>ATOM
      1  N         71.9900  -14.8990  -56.4520 N.3    16  GLU16      -0.1245
      2  CA        71.6510  -15.7990  -55.3580 C.3    16  GLU16       0.1567
      3  C         71.0910  -15.1250  -54.1260 C.2    16  GLU16       0.2260
      4  O         70.0780  -15.5710  -53.5900 O.2    16  GLU16      -0.2867
      5  CB        72.8710  -16.6000  -54.9390 C.3    16  GLU16       0.0388
      6  CG        72.5290  -17.9730  -54.4330 C.3    16  GLU16       0.1160
      7  CD        73.7210  -18.6470  -53.8100 C.2    16  GLU16       0.3649
      8  OE1       74.8500  -18.4460  -54.3110 O.co2  16  GLU16      -0.2457
      9  OE2       73.5280  -19.3830  -52.8220 O.co2  16  GLU16      -0.2457
     10  N         67.5500  -15.5510  -52.6010 N.3    20  ILE20      -0.1245
     11  CA        67.4430  -15.9090  -51.1850 C.3    20  ILE20       0.1561
     12  C         66.4560  -14.9670  -50.5110 C.2    20  ILE20       0.2260
     13  O         65.6210  -15.3840  -49.7090 O.2    20  ILE20      -0.2867
     14  CB        68.8050  -15.7780  -50.4420 C.3    20  ILE20       0.0252
     15  CG1       69.8710  -16.6710  -51.0840 C.3    20  ILE20       0.0019
     16  CG2       68.6370  -16.1820  -48.9840 C.3    20  ILE20       0.0019
     17  CD1       69.6410  -18.1520  -50.8900 C.3    20  ILE20       0.0001
     18  N         62.9690  -16.7340  -48.7270 N.3    24  PHE24      -0.1241
     19  CA        62.9300  -16.7110  -47.2640 C.3    24  PHE24       0.1605
     20  C         62.5720  -15.3310  -46.7020 C.2    24  PHE24       0.2264
     21  O         63.3620  -14.3970  -46.7570 O.2    24  PHE24      -0.2867
     22  CB        64.2710  -17.1990  -46.6940 C.3    24  PHE24       0.0534
     23  CG        64.6630  -18.5880  -47.1560 C.ar   24  PHE24      -0.0203
     24  CD1       65.1050  -18.8000  -48.4590 C.ar   24  PHE24      -0.0042
     25  CD2       64.5550  -19.6880  -46.3030 C.ar   24  PHE24      -0.0042
     26  CE1       65.4310  -20.0800  -48.9160 C.ar   24  PHE24      -0.0003
     27  CE2       64.8790  -20.9770  -46.7500 C.ar   24  PHE24      -0.0003
     28  CZ        65.3180  -21.1690  -48.0640 C.ar   24  PHE24      -0.0000
     29  N         64.7590  -14.6750  -42.9560 N.3    27  ARG27      -0.1245
     30  CA        66.0280  -15.3550  -42.8400 C.3    27  ARG27       0.1563
     31  C         67.0860  -14.3990  -43.3390 C.2    27  ARG27       0.2260
     32  O         66.7490  -13.4230  -43.9620 O.2    27  ARG27      -0.2867
     33  CB        65.9690  -16.5900  -43.6800 C.3    27  ARG27       0.0307
     34  CG        65.1460  -17.6190  -43.0120 C.3    27  ARG27       0.0489
     35  CD        65.9790  -18.5170  -42.1610 C.3    27  ARG27       0.2205
     36  NE        65.1730  -19.6660  -41.7950 N.pl3  27  ARG27      -0.0865
     37  CZ        65.6530  -20.7930  -41.2970 C.cat  27  ARG27       0.5346
     38  NH1       64.8310  -21.7890  -41.0020 N.pl3  27  ARG27       0.1354
     39  NH2       66.9500  -20.9280  -41.0900 N.pl3  27  ARG27       0.1354
     40  N         71.1610  -14.1250  -45.2140 N.3    29  PRO29      -0.2102
     41  CA        72.2930  -14.8490  -45.7990 C.3    29  PRO29       0.1504
     42  C         73.6480  -14.3900  -45.2830 C.2    29  PRO29       0.2576
     43  O         74.0580  -13.2580  -45.5030 O.2    29  PRO29      -0.2718
     44  CB        72.1130  -14.5970  -47.2840 C.3    29  PRO29       0.0282
     45  CG        71.6110  -13.2000  -47.2830 C.3    29  PRO29       0.0208
     46  CD        70.5810  -13.1910  -46.1920 C.3    29  PRO29       0.0893
     47  N         74.3590  -15.2800  -44.6080 N.am   30  VAL30      -0.1966
     48  CA        75.6500  -14.9100  -44.0660 C.3    30  VAL30       0.1727
     49  C         76.8240  -15.7430  -44.5590 C.2    30  VAL30       0.2616
     50  O         76.7910  -16.9710  -44.5500 O.2    30  VAL30      -0.2715
     51  CB        75.6130  -14.9620  -42.5260 C.3    30  VAL30       0.0290
     52  CG1       76.9640  -14.5970  -41.9600 C.3    30  VAL30       0.0023
     53  CG2       74.5390  -14.0080  -42.0020 C.3    30  VAL30       0.0023
     54  N         77.8580  -15.0440  -45.0100 N.am   31  ILE31      -0.1977
     55  CA        79.0820  -15.6710  -45.4700 C.3    31  ILE31       0.1596
     56  C         80.0010  -15.4960  -44.2790 C.2    31  ILE31       0.2287
     57  O         80.3200  -14.3720  -43.8800 O.2    31  ILE31      -0.2864
     58  CB        79.6460  -14.9600  -46.7290 C.3    31  ILE31       0.0276
     59  CG1       78.7490  -15.2910  -47.9120 C.3    31  ILE31       0.0022
     60  CG2       81.0700  -15.4110  -47.0280 C.3    31  ILE31       0.0022
     61  CD1       78.2740  -16.7280  -47.9070 C.3    31  ILE31       0.0001
     62  N         81.3570  -25.4220  -43.7710 N.3    45  LYS45      -0.1245
     63  CA        80.3350  -24.6300  -44.4480 C.3    45  LYS45       0.1561
     64  C         80.5360  -23.1820  -44.0530 C.2    45  LYS45       0.2260
     65  O         80.9010  -22.8930  -42.9180 O.2    45  LYS45      -0.2867
     66  CB        78.9500  -25.0890  -44.0410 C.3    45  LYS45       0.0271
     67  CG        77.7840  -24.4220  -44.6640 C.3    45  LYS45       0.0035
     68  CD        76.4790  -25.0530  -44.1420 C.3    45  LYS45       0.0206
     69  CE        75.7310  -25.5960  -45.3580 C.3    45  LYS45       0.1093
     70  NZ        75.5820  -24.5150  -46.3800 N.3    45  LYS45      -0.1314
     71  N         78.2690  -20.5820  -45.6680 N.3    47  LYS47      -0.1231
     72  CA        77.0840  -19.8230  -46.0510 C.3    47  LYS47       0.1693
     73  C         76.0110  -20.2440  -45.0710 C.2    47  LYS47       0.2592
     74  O         75.7280  -21.4360  -44.9420 O.2    47  LYS47      -0.2718
     75  CB        76.6260  -20.1600  -47.4760 C.3    47  LYS47       0.0285
     76  CG        77.6470  -19.8500  -48.5350 C.3    47  LYS47       0.0035
     77  CD        77.0790  -19.9880  -49.9350 C.3    47  LYS47       0.0206
     78  CE        76.5600  -21.3910  -50.2060 C.3    47  LYS47       0.1093
     79  NZ        76.1630  -21.5760  -51.6410 N.3    47  LYS47      -0.1314
     80  N         75.4330  -19.2830  -44.3620 N.am   48  TYR48      -0.1962
     81  CA        74.3810  -19.6080  -43.4180 C.3    48  TYR48       0.1771
     82  C         73.1260  -18.8250  -43.7230 C.2    48  TYR48       0.2619
     83  O         73.1830  -17.7550  -44.3200 O.2    48  TYR48      -0.2715
     84  CB        74.8220  -19.3200  -41.9760 C.3    48  TYR48       0.0574
     85  CG        76.0280  -20.1150  -41.5720 C.ar   48  TYR48      -0.0198
     86  CD1       77.2940  -19.7340  -41.9840 C.ar   48  TYR48      -0.0009
     87  CD2       75.9000  -21.2970  -40.8510 C.ar   48  TYR48      -0.0009
     88  CE1       78.4120  -20.5130  -41.6970 C.ar   48  TYR48       0.0417
     89  CE2       77.0110  -22.0930  -40.5610 C.ar   48  TYR48       0.0417
     90  CZ        78.2650  -21.6960  -40.9920 C.ar   48  TYR48       0.1957
     91  OH        79.3700  -22.4960  -40.7760 O.3    48  TYR48      -0.2866
     92  N         71.9920  -19.3910  -43.3300 N.am   49  LEU49      -0.1963
     93  CA        70.6890  -18.7550  -43.4780 C.3    49  LEU49       0.1728
     94  C         70.2320  -18.6260  -42.0390 C.2    49  LEU49       0.2616
     95  O         69.6010  -19.5290  -41.4820 O.2    49  LEU49      -0.2715
     96  CB        69.7400  -19.6460  -44.2630 C.3    49  LEU49       0.0311
     97  CG        69.8410  -19.3790  -45.7600 C.3    49  LEU49       0.0022
     98  CD1       70.0150  -20.6750  -46.5030 C.3    49  LEU49       0.0001
     99  CD2       68.6000  -18.6460  -46.2210 C.3    49  LEU49       0.0001
    100  N         70.5880  -17.5040  -41.4280 N.am   50  VAL50      -0.1964
    101  CA        70.2530  -17.2930  -40.0370 C.3    50  VAL50       0.1712
    102  C         68.9120  -16.6270  -39.8150 C.2    50  VAL50       0.2458
    103  O         68.5160  -15.7060  -40.5330 O.2    50  VAL50      -0.2730
    104  CB        71.3740  -16.4980  -39.2930 C.3    50  VAL50       0.0289
    105  CG1       72.4910  -16.1540  -40.2550 C.3    50  VAL50       0.0023
    106  CG2       70.8140  -15.2460  -38.6420 C.3    50  VAL50       0.0023
    107  N         68.1780  -17.1230  -38.8170 N.am   51  PRO51      -0.2727
    108  CA        66.8650  -16.6250  -38.4300 C.3    51  PRO51       0.1402
    109  C         66.9150  -15.1480  -38.0730 C.2    51  PRO51       0.2269
    110  O         67.8280  -14.6830  -37.3990 O.2    51  PRO51      -0.2865
    111  CB        66.5220  -17.5010  -37.2360 C.3    51  PRO51       0.0296
    112  CG        67.1350  -18.8210  -37.6320 C.3    51  PRO51       0.0237
    113  CD        68.4860  -18.3880  -38.1230 C.3    51  PRO51       0.0939
    114  N         67.6140  -14.0150  -34.5080 N.3    54  LEU54      -0.1245
    115  CA        68.8640  -14.5120  -33.9320 C.3    54  LEU54       0.1561
    116  C         69.8890  -13.4340  -33.5650 C.2    54  LEU54       0.2260
    117  O         70.1680  -12.5400  -34.3570 O.2    54  LEU54      -0.2867
    118  CB        69.5060  -15.4940  -34.9080 C.3    54  LEU54       0.0270
    119  CG        70.4930  -16.4570  -34.2650 C.3    54  LEU54       0.0019
    120  CD1       69.7010  -17.5180  -33.5170 C.3    54  LEU54       0.0001
    121  CD2       71.3800  -17.0820  -35.3340 C.3    54  LEU54       0.0001
    122  N         74.5540  -16.6490  -32.7170 N.3    59  PHE59      -0.1241
    123  CA        75.1770  -17.0700  -33.9670 C.3    59  PHE59       0.1605
    124  C         76.5900  -17.5610  -33.6790 C.2    59  PHE59       0.2264
    125  O         77.0710  -18.5180  -34.2980 O.2    59  PHE59      -0.2867
    126  CB        75.2410  -15.9160  -34.9540 C.3    59  PHE59       0.0534
    127  CG        75.8560  -16.2810  -36.2740 C.ar   59  PHE59      -0.0203
    128  CD1       75.1660  -17.0650  -37.1840 C.ar   59  PHE59      -0.0042
    129  CD2       77.1260  -15.8290  -36.6140 C.ar   59  PHE59      -0.0042
    130  CE1       75.7350  -17.3890  -38.4130 C.ar   59  PHE59      -0.0003
    131  CE2       77.7040  -16.1490  -37.8440 C.ar   59  PHE59      -0.0003
    132  CZ        77.0120  -16.9240  -38.7380 C.ar   59  PHE59      -0.0000
    133  N         76.5080  -20.9100  -32.6080 N.3    62  VAL62      -0.1245
    134  CA        76.3900  -21.8200  -33.7240 C.3    62  VAL62       0.1561
    135  C         77.7290  -22.0910  -34.3570 C.2    62  VAL62       0.2260
    136  O         78.0480  -23.2310  -34.6460 O.2    62  VAL62      -0.2867
    137  CB        75.4450  -21.2930  -34.7890 C.3    62  VAL62       0.0252
    138  CG1       75.4660  -22.2300  -35.9800 C.3    62  VAL62       0.0019
    139  CG2       74.0280  -21.1790  -34.2190 C.3    62  VAL62       0.0019
    140  N         79.8750  -25.6000  -34.8430 N.3    66  ARG66      -0.1245
    141  CA        80.3100  -26.0570  -36.1540 C.3    66  ARG66       0.1563
    142  C         81.7680  -26.4750  -36.2350 C.2    66  ARG66       0.2260
    143  O         82.0910  -27.4240  -36.9380 O.2    66  ARG66      -0.2867
    144  CB        80.0420  -24.9950  -37.2130 C.3    66  ARG66       0.0307
    145  CG        79.7750  -25.5980  -38.5710 C.3    66  ARG66       0.0489
    146  CD        78.4890  -26.3930  -38.4990 C.3    66  ARG66       0.2205
    147  NE        78.4170  -27.4690  -39.4830 N.pl3  66  ARG66      -0.0865
    148  CZ        78.4110  -27.2870  -40.7990 C.cat  66  ARG66       0.5346
    149  NH1       78.4760  -26.0600  -41.2990 N.pl3  66  ARG66       0.1354
    150  NH2       78.3340  -28.3330  -41.6150 N.pl3  66  ARG66       0.1354
    151  N         74.9470  -10.0430  -49.5740 N.3   103  PHE103     -0.1241
    152  CA        75.2930  -10.8800  -48.4300 C.3   103  PHE103      0.1605
    153  C         75.9310  -10.0800  -47.3210 C.2   103  PHE103      0.2264
    154  O         76.4650   -8.9990  -47.5510 O.2   103  PHE103     -0.2867
    155  CB        76.2900  -11.9840  -48.8250 C.3   103  PHE103      0.0534
    156  CG        75.7440  -12.9880  -49.7920 C.ar  103  PHE103     -0.0203
    157  CD1       76.1570  -12.9970  -51.1220 C.ar  103  PHE103     -0.0042
    158  CD2       74.8090  -13.9250  -49.3770 C.ar  103  PHE103     -0.0042
    159  CE1       75.6390  -13.9300  -52.0290 C.ar  103  PHE103     -0.0003
    160  CE2       74.2890  -14.8570  -50.2710 C.ar  103  PHE103     -0.0003
    161  CZ        74.7040  -14.8610  -51.5970 C.ar  103  PHE103     -0.0000
@<TRIPOS>BOND
     1     1     2    1
     2     2     5    1
     3     2     3    1
     4     5     6    1
     5     6     7    1
     6     8     7   ar
     7     3     4    2
     8     7     9   ar
     9    10    11    1
    10   159   161   ar
    11   159   157   ar
    12    79    78    1
    13   161   160   ar
    14    11    12    1
    15    11    14    1
    16   157   156   ar
    17    15    17    1
    18    15    14    1
    19    12    13    2
    20    14    16    1
    21   160   158   ar
    22    78    77    1
    23    77    76    1
    24   156   158   ar
    25   156   155    1
    26   151   152    1
    27    26    24   ar
    28    26    28   ar
    29   155   152    1
    30    18    19    1
    31    76    75    1
    32    24    23   ar
    33   152   153    1
    34    28    27   ar
    35    59    61    1
    36    59    58    1
    37   154   153    2
    38    75    72    1
    39    44    45    1
    40    44    41    1
    41    45    46    1
    42    19    20    1
    43    19    22    1
    44    23    22    1
    45    23    25   ar
    46    60    58    1
    47    21    20    2
    48    27    25   ar
    49    58    55    1
    50    98    97    1
    51    70    69    1
    52    99    97    1
    53    46    40    1
    54    72    71    1
    55    72    73    1
    56    41    42    1
    57    41    40    1
    58    97    96    1
    59    43    42    2
    60    55    54    1
    61    55    56    1
    62    69    68    1
    63    42    47   am
    64    73    74    2
    65    73    80   am
    66    54    49   am
    67    67    68    1
    68    67    66    1
    69    47    48    1
    70    49    50    2
    71    49    48    1
    72    63    64    1
    73    63    66    1
    74    63    62    1
    75    80    81    1
    76    83    82    2
    77    56    57    2
    78    96    93    1
    79    48    51    1
    80    64    65    2
    81    32    31    2
    82    82    81    1
    83    82    92   am
    84    33    34    1
    85    33    30    1
    86    93    92    1
    87    93    94    1
    88    81    84    1
    89    31    30    1
    90    34    35    1
    91    29    30    1
    92    51    53    1
    93    51    52    1
    94    35    36    1
    95    94    95    2
    96    94   100   am
    97    86    88   ar
    98    86    85   ar
    99    84    85    1
   100    36    37    2
   101    88    90   ar
   102   150   148    1
   103    85    87   ar
   104   100   101    1
   105   149   148    1
   106    37    39    1
   107    37    38    1
   108    90    91    1
   109    90    89   ar
   110    87    89   ar
   111   148   147    2
   112   103   102    2
   113   105   104    1
   114   101   102    1
   115   101   104    1
   116   102   107   am
   117   147   146    1
   118   104   106    1
   119   107   108    1
   120   107   113    1
   121   132   130   ar
   122   132   131   ar
   123   145   146    1
   124   145   144    1
   125   108   109    1
   126   108   111    1
   127   130   128   ar
   128   113   112    1
   129   109   110    2
   130   131   129   ar
   131   112   111    1
   132   144   141    1
   133   128   127   ar
   134   143   142    2
   135   129   127   ar
   136   127   126    1
   137   142   141    1
   138   141   140    1
   139   138   137    1
   140   121   119    1
   141   126   123    1
   142   118   119    1
   143   118   115    1
   144   137   139    1
   145   137   134    1
   146   136   135    2
   147   114   115    1
   148   135   134    1
   149   117   116    2
   150   125   124    2
   151   119   120    1
   152   123   124    1
   153   123   122    1
   154   115   116    1
   155   134   133    1
