@<TRIPOS>MOLECULE
tmp/3vy5B01.pdb
 135 137 0 0 0
SMALL
GASTEIGER

@<TRIPOS>ATOM
      1  N         11.1220   -4.8300   -7.6780 N.3    15  VAL15      -0.1245
      2  CA        11.6220   -5.9330   -6.8680 C.3    15  VAL15       0.1561
      3  C         10.5370   -6.4230   -5.9070 C.2    15  VAL15       0.2260
      4  O          9.9050   -5.6370   -5.1930 O.2    15  VAL15      -0.2867
      5  CB        12.8870   -5.5030   -6.0860 C.3    15  VAL15       0.0252
      6  CG1       13.3660   -6.6190   -5.1400 C.3    15  VAL15       0.0019
      7  CG2       14.0070   -5.1100   -7.0630 C.3    15  VAL15       0.0019
      8  N         14.2250  -14.8840    7.0520 N.3    27  HIS27      -0.1241
      9  CA        15.0270  -14.8400    5.8470 C.3    27  HIS27       0.1621
     10  C         14.2500  -14.0410    4.8130 C.2    27  HIS27       0.2264
     11  O         13.0180  -13.9630    4.8700 O.2    27  HIS27      -0.2867
     12  CB        15.3650  -16.2360    5.3320 C.3    27  HIS27       0.0745
     13  CG        16.4070  -16.2330    4.2560 C.ar   27  HIS27       0.0817
     14  ND1       17.5480  -15.4650    4.3440 N.ar   27  HIS27      -0.2268
     15  CD2       16.4640  -16.8580    3.0550 C.ar   27  HIS27       0.1154
     16  CE1       18.2780  -15.6390    3.2550 C.ar   27  HIS27       0.1986
     17  NE2       17.6420  -16.4800    2.4580 N.ar   27  HIS27      -0.2212
     18  N         14.2740  -12.9920    0.5370 N.3    29  VAL29      -0.1231
     19  CA        14.7900  -13.1560   -0.8220 C.3    29  VAL29       0.1692
     20  C         13.9210  -12.3840   -1.8100 C.2    29  VAL29       0.2592
     21  O         12.8900  -11.8280   -1.4350 O.2    29  VAL29      -0.2718
     22  CB        14.8790  -14.6430   -1.2430 C.3    29  VAL29       0.0266
     23  CG1       15.8340  -15.4100   -0.3190 C.3    29  VAL29       0.0020
     24  CG2       13.4720  -15.2840   -1.3120 C.3    29  VAL29       0.0020
     25  N         14.3190  -12.3800   -3.0770 N.am   30  ASN30      -0.1960
     26  CA        13.6570  -11.5400   -4.0670 C.3    30  ASN30       0.1819
     27  C         13.3070  -12.2650   -5.3510 C.2    30  ASN30       0.2622
     28  O         13.8730  -13.3090   -5.6830 O.2    30  ASN30      -0.2715
     29  CB        14.5530  -10.3520   -4.4330 C.3    30  ASN30       0.1195
     30  CG        14.9040   -9.4990   -3.2370 C.2    30  ASN30       0.2630
     31  OD1       16.0730   -9.4340   -2.8350 O.2    30  ASN30      -0.2716
     32  ND2       13.8950   -8.8720   -2.6270 N.am   30  ASN30      -0.0877
     33  N         12.3500  -11.6850   -6.0680 N.am   31  THR31      -0.1937
     34  CA        12.1890  -11.9430   -7.4900 C.3    31  THR31       0.2028
     35  C         11.8160  -10.6160   -8.1630 C.2    31  THR31       0.2642
     36  O         11.8250   -9.5680   -7.5240 O.2    31  THR31      -0.2714
     37  CB        11.1720  -13.0930   -7.7550 C.3    31  THR31       0.1808
     38  OG1       11.1930  -13.4590   -9.1380 O.3    31  THR31      -0.2208
     39  CG2        9.7520  -12.7160   -7.3210 C.3    31  THR31       0.0379
     40  N         11.5330  -10.6530   -9.4600 N.am   32  TRP32      -0.1973
     41  CA        11.0710   -9.4710  -10.1910 C.3    32  TRP32       0.1640
     42  C          9.5720   -9.5460  -10.3690 C.2    32  TRP32       0.2290
     43  O          9.0410  -10.6270  -10.6420 O.2    32  TRP32      -0.2864
     44  CB        11.7210   -9.4240  -11.5720 C.3    32  TRP32       0.0576
     45  CG        13.1950   -9.1970  -11.5600 C.ar   32  TRP32       0.0006
     46  CD1       14.1600  -10.1120  -11.8300 C.ar   32  TRP32       0.0946
     47  CD2       13.8720   -7.9680  -11.2630 C.ar   32  TRP32       0.0152
     48  NE1       15.4050   -9.5320  -11.7360 N.ar   32  TRP32      -0.2442
     49  CE2       15.2550   -8.2160  -11.3890 C.ar   32  TRP32       0.0810
     50  CE3       13.4440   -6.6790  -10.9130 C.ar   32  TRP32       0.0012
     51  CZ2       16.2200   -7.2230  -11.1730 C.ar   32  TRP32       0.0191
     52  CZ3       14.4080   -5.6900  -10.6930 C.ar   32  TRP32       0.0001
     53  CH2       15.7770   -5.9750  -10.8220 C.ar   32  TRP32       0.0015
     54  N          8.1620  -11.2850  -13.3920 N.3    35  TYR35      -0.1241
     55  CA         8.2650  -12.7470  -13.4280 C.3    35  TYR35       0.1605
     56  C          7.0290  -13.4330  -12.8820 C.2    35  TYR35       0.2264
     57  O          6.8030  -14.6070  -13.1720 O.2    35  TYR35      -0.2867
     58  CB         9.4520  -13.2230  -12.5930 C.3    35  TYR35       0.0534
     59  CG        10.8310  -13.0000  -13.1660 C.ar   35  TYR35      -0.0201
     60  CD1       11.0440  -12.2150  -14.3090 C.ar   35  TYR35      -0.0009
     61  CD2       11.9450  -13.5510  -12.5290 C.ar   35  TYR35      -0.0009
     62  CE1       12.3270  -12.0100  -14.8070 C.ar   35  TYR35       0.0417
     63  CE2       13.2210  -13.3520  -13.0130 C.ar   35  TYR35       0.0417
     64  CZ        13.4070  -12.5860  -14.1570 C.ar   35  TYR35       0.1957
     65  OH        14.6770  -12.3780  -14.6480 O.3    35  TYR35      -0.2866
     66  N          9.3580  -18.0990  -10.3280 N.3    47  PRO47      -0.2102
     67  CA        10.3980  -19.0250  -10.7970 C.3    47  PRO47       0.1504
     68  C         11.5590  -19.1410   -9.8100 C.2    47  PRO47       0.2576
     69  O         12.1010  -18.1310   -9.3480 O.2    47  PRO47      -0.2718
     70  CB        10.8670  -18.3880  -12.1120 C.3    47  PRO47       0.0282
     71  CG        10.6490  -16.9100  -11.9040 C.3    47  PRO47       0.0208
     72  CD         9.3740  -16.8220  -11.0730 C.3    47  PRO47       0.0893
     73  N         11.9360  -20.3770   -9.5030 N.am   48  VAL48      -0.1966
     74  CA        12.9750  -20.6490   -8.5190 C.3    48  VAL48       0.1727
     75  C         14.2560  -21.1160   -9.1930 C.2    48  VAL48       0.2617
     76  O         14.2540  -22.1340   -9.8950 O.2    48  VAL48      -0.2715
     77  CB        12.5140  -21.7100   -7.4960 C.3    48  VAL48       0.0290
     78  CG1       13.6570  -22.0900   -6.5570 C.3    48  VAL48       0.0023
     79  CG2       11.3260  -21.1950   -6.7010 C.3    48  VAL48       0.0023
     80  N         15.3330  -20.3640   -8.9640 N.am   49  GLY49      -0.1940
     81  CA        16.6790  -20.7620   -9.3900 C.3    49  GLY49       0.2014
     82  C         17.5000  -21.1480   -8.1730 C.2    49  GLY49       0.2639
     83  O         18.0020  -22.2790   -8.0710 O.2    49  GLY49      -0.2714
     84  N         17.6310  -20.2040   -7.2480 N.am   50  GLY50      -0.1939
     85  CA        18.2660  -20.4400   -5.9570 C.3    50  GLY50       0.2014
     86  C         17.2180  -20.8470   -4.9420 C.2    50  GLY50       0.2639
     87  O         16.6400  -21.9310   -5.0420 O.2    50  GLY50      -0.2714
     88  N         17.0020  -19.9930   -3.9490 N.am   51  MET51      -0.1963
     89  CA        15.9790  -20.1830   -2.9180 C.3    51  MET51       0.1736
     90  C         16.0730  -21.5080   -2.1700 C.2    51  MET51       0.2616
     91  O         15.0740  -22.0250   -1.6790 O.2    51  MET51      -0.2715
     92  CB        14.5730  -19.9460   -3.4810 C.3    51  MET51       0.0427
     93  CG        14.3740  -18.5140   -3.9570 C.3    51  MET51       0.0599
     94  SD        12.6350  -18.1660   -4.2230 S.3    51  MET51      -0.1393
     95  CE        12.7360  -16.5410   -4.9800 C.3    51  MET51       0.0692
     96  N         17.2830  -22.0390   -2.0530 N.am   52  HIS52      -0.1959
     97  CA        17.4660  -23.2750   -1.2910 C.3    52  HIS52       0.1787
     98  C         17.2010  -23.0650    0.2060 C.2    52  HIS52       0.2620
     99  O         16.5480  -23.8890    0.8500 O.2    52  HIS52      -0.2715
    100  CB        18.8470  -23.8860   -1.5450 C.3    52  HIS52       0.0785
    101  CG        18.9740  -24.5440   -2.8860 C.ar   52  HIS52       0.0821
    102  ND1       18.5190  -25.8230   -3.1320 N.ar   52  HIS52      -0.2267
    103  CD2       19.5160  -24.1080   -4.0490 C.ar   52  HIS52       0.1154
    104  CE1       18.7620  -26.1380   -4.3930 C.ar   52  HIS52       0.1986
    105  NE2       19.3750  -25.1170   -4.9670 N.ar   52  HIS52      -0.2212
    106  N         17.6790  -21.9540    0.7620 N.am   53  LYS53      -0.1963
    107  CA        17.4140  -21.6640    2.1670 C.3    53  LYS53       0.1728
    108  C         15.9250  -21.3740    2.3930 C.2    53  LYS53       0.2616
    109  O         15.3150  -21.8770    3.3500 O.2    53  LYS53      -0.2715
    110  CB        18.2710  -20.4950    2.6650 C.3    53  LYS53       0.0311
    111  CG        18.2260  -20.3130    4.1670 C.3    53  LYS53       0.0038
    112  CD        19.2160  -19.2510    4.6270 C.3    53  LYS53       0.0206
    113  CE        19.5190  -19.4010    6.1090 C.3    53  LYS53       0.1093
    114  NZ        19.8420  -18.0940    6.7500 N.3    53  LYS53      -0.1314
    115  N         15.3530  -20.5510    1.5080 N.am   54  THR54      -0.1951
    116  CA        13.9250  -20.2500    1.5030 C.3    54  THR54       0.1897
    117  C         13.1000  -21.5410    1.4700 C.2    54  THR54       0.2313
    118  O         12.1630  -21.6900    2.2540 O.2    54  THR54      -0.2863
    119  CB        13.6010  -19.3320    0.3150 C.3    54  THR54       0.1794
    120  OG1       14.2520  -18.0760    0.5340 O.3    54  THR54      -0.2208
    121  CG2       12.1020  -19.0850    0.1690 C.3    54  THR54       0.0378
    122  N         16.3950  -21.3840  -16.5370 N.3   106  TRP106     -0.1241
    123  CA        17.2370  -21.5510  -15.3650 C.3   106  TRP106      0.1605
    124  C         16.4750  -22.0810  -14.1480 C.2   106  TRP106      0.2264
    125  O         17.0750  -22.3680  -13.1150 O.2   106  TRP106     -0.2867
    126  CB        17.9140  -20.2250  -15.0130 C.3   106  TRP106      0.0550
    127  CG        16.9860  -19.0280  -15.0100 C.ar  106  TRP106      0.0003
    128  CD1       16.7880  -18.1520  -16.0370 C.ar  106  TRP106      0.0946
    129  CD2       16.1480  -18.5760  -13.9300 C.ar  106  TRP106      0.0152
    130  NE1       15.8790  -17.1830  -15.6710 N.ar  106  TRP106     -0.2442
    131  CE2       15.4740  -17.4170  -14.3820 C.ar  106  TRP106      0.0810
    132  CE3       15.9000  -19.0360  -12.6310 C.ar  106  TRP106      0.0012
    133  CZ2       14.5660  -16.7120  -13.5800 C.ar  106  TRP106      0.0191
    134  CZ3       14.9990  -18.3350  -11.8370 C.ar  106  TRP106      0.0001
    135  CH2       14.3510  -17.1810  -12.3110 C.ar  106  TRP106      0.0015
@<TRIPOS>BOND
     1   122   123    1
     2   128   130   ar
     3   128   127   ar
     4   130   131   ar
     5   123   126    1
     6   123   124    1
     7   126   127    1
     8   127   129   ar
     9    62    60   ar
    10    62    64   ar
    11    65    64    1
    12   131   129   ar
    13   131   133   ar
    14    60    59   ar
    15    64    63   ar
    16   124   125    2
    17   129   132   ar
    18   133   135   ar
    19    55    54    1
    20    55    56    1
    21    55    58    1
    22    57    56    2
    23    59    58    1
    24    59    61   ar
    25    63    61   ar
    26   132   134   ar
    27   135   134   ar
    28    70    71    1
    29    70    67    1
    30    71    72    1
    31    46    48   ar
    32    46    45   ar
    33    48    49   ar
    34    44    45    1
    35    44    41    1
    36    45    47   ar
    37    49    47   ar
    38    49    51   ar
    39    47    50   ar
    40    51    53   ar
    41    72    66    1
    42    50    52   ar
    43    53    52   ar
    44    67    66    1
    45    67    68    1
    46    43    42    2
    47    42    41    1
    48    41    40    1
    49    76    75    2
    50    68    73   am
    51    68    69    2
    52    73    74    1
    53    40    35   am
    54    81    80    1
    55    81    82    1
    56    75    80   am
    57    75    74    1
    58    38    37    1
    59    74    77    1
    60    82    83    2
    61    82    84   am
    62    35    36    2
    63    35    34    1
    64    37    34    1
    65    37    39    1
    66     1     2    1
    67    77    79    1
    68    77    78    1
    69    34    33    1
    70    84    85    1
    71     7     5    1
    72     2     5    1
    73     2     3    1
    74     5     6    1
    75    33    27   am
    76    85    86    1
    77     3     4    2
    78    28    27    2
    79    27    26    1
    80    87    86    2
    81    95    94    1
    82   105   104   ar
    83   105   103   ar
    84    86    88   am
    85    29    26    1
    86    29    30    1
    87   104   102   ar
    88    94    93    1
    89    26    25    1
    90   103   101   ar
    91    93    92    1
    92    88    89    1
    93    92    89    1
    94    30    31    2
    95    30    32   am
    96   102   101   ar
    97    25    20   am
    98    89    90    1
    99   101   100    1
   100    90    96   am
   101    90    91    2
   102    96    97    1
   103    20    21    2
   104    20    19    1
   105   100    97    1
   106    24    22    1
   107    97    98    1
   108    22    19    1
   109    22    23    1
   110    19    18    1
   111   121   119    1
   112    98   106   am
   113    98    99    2
   114   119   120    1
   115   119   116    1
   116   106   107    1
   117   117   116    1
   118   117   118    2
   119   116   115    1
   120   115   108   am
   121   107   108    1
   122   107   110    1
   123   108   109    2
   124    17    15   ar
   125    17    16   ar
   126   110   111    1
   127    15    13   ar
   128    16    14   ar
   129   111   112    1
   130    13    14   ar
   131    13    12    1
   132   112   113    1
   133    10    11    2
   134    10     9    1
   135    12     9    1
   136     9     8    1
   137   113   114    1
