@<TRIPOS>MOLECULE
tmp/3vy5B00.pdb
 70 68 0 0 0
SMALL
GASTEIGER

@<TRIPOS>ATOM
      1  N          6.0420   -8.6650   -0.2690 N.3    67  THR67      -0.1203
      2  CA         5.7300   -7.2740   -0.5580 C.3    67  THR67       0.1994
      3  C          6.1900   -6.9150   -1.9600 C.2    67  THR67       0.2618
      4  O          7.1270   -7.5050   -2.5090 O.2    67  THR67      -0.2717
      5  CB         6.3420   -6.2600    0.4520 C.3    67  THR67       0.1784
      6  OG1        7.7750   -6.3860    0.4830 O.3    67  THR67      -0.2211
      7  CG2        5.7510   -6.4240    1.8460 C.3    67  THR67       0.0376
      8  N          5.5270   -5.9130   -2.5180 N.am   68  LEU68      -0.1965
      9  CA         5.8380   -5.3890   -3.8460 C.3    68  LEU68       0.1728
     10  C          5.0710   -4.0860   -4.0020 C.2    68  LEU68       0.2617
     11  O          4.1080   -3.8300   -3.2780 O.2    68  LEU68      -0.2715
     12  CB         5.4760   -6.3810   -4.9590 C.3    68  LEU68       0.0311
     13  CG         3.9980   -6.5620   -5.3060 C.3    68  LEU68       0.0022
     14  CD1        3.8630   -7.1940   -6.6810 C.3    68  LEU68       0.0001
     15  CD2        3.2590   -7.3760   -4.2540 C.3    68  LEU68       0.0001
     16  N          5.4950   -3.2660   -4.9460 N.am   69  GLY69      -0.1940
     17  CA         4.8320   -1.9940   -5.1620 C.3    69  GLY69       0.2014
     18  C          5.3070   -1.3370   -6.4360 C.2    69  GLY69       0.2639
     19  O          6.1240   -1.8850   -7.1860 O.2    69  GLY69      -0.2714
     20  N          4.7850   -0.1380   -6.6790 N.am   70  SER70      -0.1949
     21  CA         5.2180    0.6580   -7.8260 C.3    70  SER70       0.1924
     22  C          4.9600    2.1200   -7.5820 C.2    70  SER70       0.2314
     23  O          3.8710    2.5070   -7.1440 O.2    70  SER70      -0.2863
     24  CB         4.4590    0.2380   -9.0790 C.3    70  SER70       0.2116
     25  OG         4.8730    1.0170  -10.1970 O.3    70  SER70      -0.2180
     26  N          2.2470    3.0170   -4.5840 N.3    81  THR81      -0.1203
     27  CA         1.5220    2.1180   -3.6910 C.3    81  THR81       0.1994
     28  C          2.2430    0.7890   -3.5940 C.2    81  THR81       0.2618
     29  O          3.2160    0.5330   -4.3140 O.2    81  THR81      -0.2717
     30  CB         0.0560    1.8990   -4.1630 C.3    81  THR81       0.1784
     31  OG1       -0.7000    1.2940   -3.1130 O.3    81  THR81      -0.2211
     32  CG2       -0.0230    1.0310   -5.4210 C.3    81  THR81       0.0376
     33  N          1.7470   -0.0520   -2.7050 N.am   82  GLY82      -0.1942
     34  CA         2.2540   -1.3970   -2.6090 C.3    82  GLY82       0.2014
     35  C          1.4000   -2.2440   -1.7010 C.2    82  GLY82       0.2639
     36  O          0.4110   -1.7640   -1.1440 O.2    82  GLY82      -0.2714
     37  N          1.8060   -3.5040   -1.5540 N.am   83  PHE83      -0.1959
     38  CA         1.0050   -4.5490   -0.9070 C.3    83  PHE83       0.1771
     39  C          1.8270   -5.4070    0.0310 C.2    83  PHE83       0.2619
     40  O          2.9930   -5.7050   -0.2530 O.2    83  PHE83      -0.2715
     41  CB         0.3560   -5.4640   -1.9640 C.3    83  PHE83       0.0574
     42  CG        -0.7600   -4.8070   -2.6930 C.ar   83  PHE83      -0.0200
     43  CD1       -0.5090   -4.0100   -3.7990 C.ar   83  PHE83      -0.0042
     44  CD2       -2.0680   -4.9490   -2.2400 C.ar   83  PHE83      -0.0042
     45  CE1       -1.5530   -3.3460   -4.4460 C.ar   83  PHE83      -0.0003
     46  CE2       -3.1130   -4.3050   -2.8800 C.ar   83  PHE83      -0.0003
     47  CZ        -2.8520   -3.5100   -3.9910 C.ar   83  PHE83      -0.0000
     48  N          1.2120   -5.7700    1.1550 N.am   84  LEU84      -0.1977
     49  CA         1.6500   -6.9010    1.9580 C.3    84  LEU84       0.1596
     50  C          0.7340   -8.0930    1.6770 C.2    84  LEU84       0.2287
     51  O         -0.4840   -8.0230    1.8830 O.2    84  LEU84      -0.2864
     52  CB         1.6560   -6.5670    3.4530 C.3    84  LEU84       0.0297
     53  CG         1.9530   -7.7570    4.3690 C.3    84  LEU84       0.0022
     54  CD1        3.3680   -8.3210    4.2110 C.3    84  LEU84       0.0001
     55  CD2        1.7100   -7.3420    5.8050 C.3    84  LEU84       0.0001
     56  N         -0.8960   -1.2510    1.5500 N.3   121  THR121     -0.1203
     57  CA        -0.3300   -0.6070    2.7370 C.3   121  THR121      0.1994
     58  C          0.0920    0.8410    2.4870 C.2   121  THR121      0.2617
     59  O          0.7320    1.4590    3.3420 O.2   121  THR121     -0.2717
     60  CB         0.8700   -1.4130    3.2630 C.3   121  THR121      0.1784
     61  OG1        1.7250   -1.7340    2.1590 O.3   121  THR121     -0.2211
     62  CG2        0.4190   -2.7010    3.9320 C.3   121  THR121      0.0376
     63  N         -0.2700    1.3750    1.3230 N.am  122  LEU122     -0.1979
     64  CA         0.0170    2.7640    0.9820 C.3   122  LEU122      0.1596
     65  C         -1.0620    3.2910    0.0490 C.2   122  LEU122      0.2287
     66  O         -1.4970    2.5610   -0.8470 O.2   122  LEU122     -0.2864
     67  CB         1.4010    2.8830    0.3270 C.3   122  LEU122      0.0297
     68  CG         1.9020    4.2660   -0.0940 C.3   122  LEU122      0.0022
     69  CD1        2.0440    5.1970    1.1040 C.3   122  LEU122      0.0001
     70  CD2        3.2360    4.1120   -0.8260 C.3   122  LEU122      0.0001
@<TRIPOS>BOND
     1    25    24    1
     2    24    21    1
     3    21    22    1
     4    21    20    1
     5    22    23    2
     6    19    18    2
     7    14    13    1
     8    20    18   am
     9    18    17    1
    10    32    30    1
    11    13    12    1
    12    13    15    1
    13    17    16    1
    14    12     9    1
    15    16    10   am
    16    26    27    1
    17    45    47   ar
    18    45    43   ar
    19    29    28    2
    20    30    27    1
    21    30    31    1
    22    10     9    1
    23    10    11    2
    24    47    46   ar
    25     9     8    1
    26    43    42   ar
    27    27    28    1
    28    28    33   am
    29    46    44   ar
    30    33    34    1
    31    42    44   ar
    32    42    41    1
    33    34    35    1
    34     8     3   am
    35     4     3    2
    36    41    38    1
    37     3     2    1
    38    35    37   am
    39    35    36    2
    40    37    38    1
    41    38    39    1
    42    66    65    2
    43    70    68    1
    44     2     1    1
    45     2     5    1
    46    40    39    2
    47    68    67    1
    48    68    69    1
    49    39    48   am
    50    65    64    1
    51    67    64    1
    52     5     6    1
    53     5     7    1
    54    64    63    1
    55    48    49    1
    56    63    58   am
    57    56    57    1
    58    50    51    2
    59    50    49    1
    60    49    52    1
    61    61    60    1
    62    58    57    1
    63    58    59    2
    64    57    60    1
    65    60    62    1
    66    52    53    1
    67    54    53    1
    68    53    55    1
