@<TRIPOS>MOLECULE
tmp/3vydA01.pdb
 194 183 0 0 0
SMALL
GASTEIGER

@<TRIPOS>ATOM
      1  N        172.0760  204.7560   87.1660 N.3    18  THR18      -0.1203
      2  CA       172.2310  204.2790   88.5300 C.3    18  THR18       0.1994
      3  C        173.5210  203.4900   88.8020 C.2    18  THR18       0.2617
      4  O        173.8560  203.1920   89.9540 O.2    18  THR18      -0.2717
      5  CB       171.0770  203.3660   88.9020 C.3    18  THR18       0.1784
      6  OG1      171.1340  202.1980   88.0790 O.3    18  THR18      -0.2211
      7  CG2      169.7680  204.0650   88.7100 C.3    18  THR18       0.0376
      8  N        174.2210  203.1090   87.7450 N.am   19  GLN19      -0.1979
      9  CA       175.4490  202.3470   87.8960 C.3    19  GLN19       0.1601
     10  C        176.4720  202.8440   86.8820 C.2    19  GLN19       0.2287
     11  O        176.2040  202.8350   85.6590 O.2    19  GLN19      -0.2864
     12  CB       175.2000  200.8620   87.6570 C.3    19  GLN19       0.0394
     13  CG       174.2630  200.2370   88.6500 C.3    19  GLN19       0.0908
     14  CD       174.0000  198.7990   88.3720 C.2    19  GLN19       0.2608
     15  OE1      174.8820  198.0890   87.8980 O.2    19  GLN19      -0.2717
     16  NE2      172.7840  198.3480   88.6620 N.am   19  GLN19      -0.0878
     17  N        182.7130  199.2370   89.8540 N.3    36  VAL36      -0.1245
     18  CA       182.2460  200.5660   90.2060 C.3    36  VAL36       0.1561
     19  C        183.3100  201.1740   91.1090 C.2    36  VAL36       0.2260
     20  O        183.9360  200.4540   91.8930 O.2    36  VAL36      -0.2867
     21  CB       180.9220  200.4560   90.9920 C.3    36  VAL36       0.0252
     22  CG1      180.4450  201.8030   91.4890 C.3    36  VAL36       0.0019
     23  CG2      179.8590  199.8870   90.1010 C.3    36  VAL36       0.0019
     24  N        183.9480  203.4510   94.1490 N.3    38  ASP38      -0.1239
     25  CA       183.1710  203.9240   95.3140 C.3    38  ASP38       0.1674
     26  C        183.9880  204.7160   96.3400 C.2    38  ASP38       0.2266
     27  O        184.7290  204.1270   97.1420 O.2    38  ASP38      -0.2867
     28  CB       182.5060  202.7450   96.0240 C.3    38  ASP38       0.1410
     29  CG       181.7170  203.1610   97.2600 C.2    38  ASP38       0.3668
     30  OD1      181.1540  204.2800   97.2780 O.co2  38  ASP38      -0.2456
     31  OD2      181.6380  202.3530   98.2120 O.co2  38  ASP38      -0.2456
     32  N        182.8880  205.7940   98.8350 N.3    40  GLY40      -0.1210
     33  CA       182.2440  205.5200  100.1080 C.3    40  GLY40       0.1956
     34  C        182.6980  204.2580  100.7920 C.2    40  GLY40       0.2612
     35  O        182.0930  203.8440  101.7580 O.2    40  GLY40      -0.2717
     36  N        183.7720  203.6630  100.2900 N.am   41  SER41      -0.1952
     37  CA       184.3490  202.4300  100.8480 C.3    41  SER41       0.1924
     38  C        185.7900  202.3730  100.3460 C.2    41  SER41       0.2314
     39  O        186.1770  203.1840   99.5260 O.2    41  SER41      -0.2863
     40  CB       183.5400  201.1980  100.4160 C.3    41  SER41       0.2116
     41  OG       183.4560  201.0630   98.9780 O.3    41  SER41      -0.2180
     42  N        187.7480  199.1140   99.8360 N.3    43  ASN43      -0.1240
     43  CA       188.2390  197.8050   99.4050 C.3    43  ASN43       0.1653
     44  C        188.0510  197.5570   97.9250 C.2    43  ASN43       0.2266
     45  O        187.2410  198.2330   97.2720 O.2    43  ASN43      -0.2867
     46  CB       187.5660  196.6810  100.2000 C.3    43  ASN43       0.1155
     47  CG       188.1030  196.5730  101.6050 C.2    43  ASN43       0.2627
     48  OD1      187.9810  197.4950  102.4110 O.2    43  ASN43      -0.2716
     49  ND2      188.7190  195.4450  101.9000 N.am   43  ASN43      -0.0877
     50  N        182.4990  192.4200  103.6410 N.3    81  LEU81      -0.1231
     51  CA       182.2160  193.7990  103.3870 C.3    81  LEU81       0.1693
     52  C        180.7290  193.9220  103.5300 C.2    81  LEU81       0.2592
     53  O        179.9560  193.2680  102.7870 O.2    81  LEU81      -0.2718
     54  CB       182.7250  194.2050  102.0120 C.3    81  LEU81       0.0284
     55  CG       184.1820  193.7930  101.8250 C.3    81  LEU81       0.0019
     56  CD1      184.5990  193.7700  100.3480 C.3    81  LEU81       0.0001
     57  CD2      185.0220  194.7280  102.6730 C.3    81  LEU81       0.0001
     58  N        180.3440  194.7210  104.5300 N.am   82  ARG82      -0.1966
     59  CA       178.9500  194.9170  104.8990 C.3    82  ARG82       0.1729
     60  C        178.6120  196.3030  104.5120 C.2    82  ARG82       0.2616
     61  O        178.8550  197.2210  105.2820 O.2    82  ARG82      -0.2715
     62  CB       178.7520  194.7960  106.4020 C.3    82  ARG82       0.0348
     63  CG       178.9480  193.4160  106.9320 C.3    82  ARG82       0.0492
     64  CD       178.6960  193.3310  108.4120 C.3    82  ARG82       0.2205
     65  NE       179.2010  192.0620  108.9780 N.pl3  82  ARG82      -0.0865
     66  CZ       180.4970  191.7210  109.1270 C.cat  82  ARG82       0.5346
     67  NH1      181.4880  192.5180  108.7450 N.pl3  82  ARG82       0.1354
     68  NH2      180.8140  190.5600  109.6600 N.pl3  82  ARG82       0.1354
     69  N        178.0520  196.4690  103.3260 N.am   83  TYR83      -0.1960
     70  CA       177.6770  197.7980  102.8510 C.3    83  TYR83       0.1771
     71  C        176.2620  198.1300  103.2880 C.2    83  TYR83       0.2620
     72  O        175.5370  197.2610  103.7590 O.2    83  TYR83      -0.2715
     73  CB       177.6920  197.8010  101.3400 C.3    83  TYR83       0.0574
     74  CG       179.0120  197.5070  100.6930 C.ar   83  TYR83      -0.0198
     75  CD1      179.1210  196.4600   99.7760 C.ar   83  TYR83      -0.0009
     76  CD2      180.1510  198.2910  100.9570 C.ar   83  TYR83      -0.0009
     77  CE1      180.3090  196.1870   99.1250 C.ar   83  TYR83       0.0417
     78  CE2      181.3590  198.0160  100.3050 C.ar   83  TYR83       0.0417
     79  CZ       181.4250  196.9630   99.3880 C.ar   83  TYR83       0.1957
     80  OH       182.5960  196.6430   98.7140 O.3    83  TYR83      -0.2866
     81  N        175.8560  199.3750  103.0650 N.am   84  SER84      -0.1936
     82  CA       174.5330  199.8490  103.4410 C.3    84  SER84       0.2055
     83  C        173.3960  199.0060  102.8930 C.2    84  SER84       0.2644
     84  O        172.3750  198.8740  103.5290 O.2    84  SER84      -0.2714
     85  CB       174.3430  201.3090  103.0460 C.3    84  SER84       0.2130
     86  OG       174.3550  201.4440  101.6390 O.3    84  SER84      -0.2179
     87  N        173.5560  198.4150  101.7250 N.am   85  THR85      -0.1936
     88  CA       172.3910  197.7400  101.1570 C.3    85  THR85       0.2028
     89  C        172.6370  196.2730  100.7600 C.2    85  THR85       0.2642
     90  O        171.8830  195.7100   99.9440 O.2    85  THR85      -0.2714
     91  CB       171.8870  198.4870   99.9220 C.3    85  THR85       0.1808
     92  OG1      172.8770  198.3630   98.9050 O.3    85  THR85      -0.2208
     93  CG2      171.6190  199.9710  100.2280 C.3    85  THR85       0.0379
     94  N        173.6890  195.6750  101.3320 N.am   86  GLY86      -0.1954
     95  CA       174.0290  194.3010  101.0590 C.3    86  GLY86       0.1869
     96  C        175.4270  193.9330  101.4920 C.2    86  GLY86       0.2309
     97  O        176.2100  194.8080  101.8550 O.2    86  GLY86      -0.2863
     98  N        171.3600  192.1510   96.4460 N.3   118  PRO118     -0.2102
     99  CA       171.0950  192.8580   95.1870 C.3   118  PRO118      0.1504
    100  C        171.9970  192.5060   93.9780 C.2   118  PRO118      0.2575
    101  O        171.7470  192.9850   92.8990 O.2   118  PRO118     -0.2718
    102  CB       171.3740  194.3000   95.5860 C.3   118  PRO118      0.0282
    103  CG       172.5770  194.1380   96.4970 C.3   118  PRO118      0.0208
    104  CD       172.3940  192.8410   97.2440 C.3   118  PRO118      0.0893
    105  N        173.0230  191.6990   94.1470 N.am  119  PHE119     -0.1977
    106  CA       174.0670  191.6200   93.1390 C.3   119  PHE119      0.1639
    107  C        173.6170  191.0970   91.7990 C.2   119  PHE119      0.2290
    108  O        174.2840  191.2390   90.7810 O.2   119  PHE119     -0.2864
    109  CB       175.2980  190.8820   93.7090 C.3   119  PHE119      0.0560
    110  CG       175.9410  191.6550   94.8200 C.ar  119  PHE119     -0.0200
    111  CD1      176.6650  192.8060   94.5390 C.ar  119  PHE119     -0.0042
    112  CD2      175.6950  191.3320   96.1370 C.ar  119  PHE119     -0.0042
    113  CE1      177.1840  193.5810   95.5590 C.ar  119  PHE119     -0.0003
    114  CE2      176.2090  192.1040   97.1570 C.ar  119  PHE119     -0.0003
    115  CZ       176.9490  193.2270   96.8680 C.ar  119  PHE119     -0.0000
    116  N        171.1060  192.3210   90.5250 N.3   121  LEU121     -0.1231
    117  CA       170.6720  193.5810   89.9590 C.3   121  LEU121      0.1693
    118  C        171.8390  194.4560   89.5070 C.2   121  LEU121      0.2591
    119  O        171.6200  195.5620   89.0550 O.2   121  LEU121     -0.2718
    120  CB       169.8300  194.3470   90.9900 C.3   121  LEU121      0.0284
    121  CG       168.3030  194.4900   90.9140 C.3   121  LEU121      0.0019
    122  CD1      167.6100  193.3630   90.1640 C.3   121  LEU121      0.0001
    123  CD2      167.6640  194.6850   92.2890 C.3   121  LEU121      0.0001
    124  N        173.0690  193.9780   89.6460 N.am  122  ALA122     -0.1980
    125  CA       174.2520  194.7510   89.2520 C.3   122  ALA122      0.1597
    126  C        174.6780  194.4120   87.8620 C.2   122  ALA122      0.2287
    127  O        174.8260  193.2540   87.5520 O.2   122  ALA122     -0.2864
    128  CB       175.4090  194.4400   90.1650 C.3   122  ALA122      0.0319
    129  N        177.7670  195.5260   86.9430 N.3   124  PHE124     -0.1241
    130  CA       179.2270  195.3390   87.1700 C.3   124  PHE124      0.1605
    131  C        179.4880  193.9980   87.8360 C.2   124  PHE124      0.2264
    132  O        178.5400  193.2970   88.1830 O.2   124  PHE124     -0.2867
    133  CB       179.7710  196.4600   88.0780 C.3   124  PHE124      0.0534
    134  CG       179.0220  196.5940   89.3690 C.ar  124  PHE124     -0.0203
    135  CD1      177.8580  197.3440   89.4300 C.ar  124  PHE124     -0.0042
    136  CD2      179.4620  195.9200   90.5330 C.ar  124  PHE124     -0.0042
    137  CE1      177.1540  197.4510   90.6360 C.ar  124  PHE124     -0.0003
    138  CE2      178.7470  196.0080   91.7330 C.ar  124  PHE124     -0.0003
    139  CZ       177.5960  196.7870   91.7930 C.ar  124  PHE124     -0.0000
    140  N        183.8290  195.9100   92.9220 N.3   127  VAL127     -0.1245
    141  CA       184.0210  197.2810   93.3930 C.3   127  VAL127      0.1561
    142  C        185.4940  197.6280   93.5600 C.2   127  VAL127      0.2260
    143  O        186.3010  196.7990   93.9310 O.2   127  VAL127     -0.2867
    144  CB       183.2500  197.5370   94.7120 C.3   127  VAL127      0.0252
    145  CG1      183.4650  198.9680   95.2140 C.3   127  VAL127      0.0019
    146  CG2      181.7530  197.2110   94.5300 C.3   127  VAL127      0.0019
    147  N        188.8270  203.4730  106.4050 N.3   135  GLN135     -0.1245
    148  CA       187.5690  202.7430  106.1790 C.3   135  GLN135      0.1566
    149  C        187.7350  201.3230  105.5810 C.2   135  GLN135      0.2260
    150  O        186.7410  200.6190  105.3340 O.2   135  GLN135     -0.2867
    151  CB       186.6590  203.5500  105.2850 C.3   135  GLN135      0.0367
    152  CG       185.9860  204.7090  105.9520 C.3   135  GLN135      0.0905
    153  CD       185.1000  205.4420  104.9680 C.2   135  GLN135      0.2608
    154  OE1      185.5560  205.8760  103.9010 O.2   135  GLN135     -0.2717
    155  NE2      183.8350  205.5980  105.3190 N.am  135  GLN135     -0.0878
    156  N        188.3560  197.5370  105.3410 N.3   137  ILE137     -0.1245
    157  CA       188.1840  196.3890  106.2210 C.3   137  ILE137      0.1561
    158  C        189.3930  195.4790  106.0280 C.2   137  ILE137      0.2260
    159  O        189.9060  195.3760  104.9240 O.2   137  ILE137     -0.2867
    160  CB       186.8140  195.6840  105.9960 C.3   137  ILE137      0.0252
    161  CG1      185.7180  196.3790  106.7910 C.3   137  ILE137      0.0019
    162  CG2      186.8680  194.2290  106.4100 C.3   137  ILE137      0.0019
    163  CD1      185.3810  197.7580  106.3040 C.3   137  ILE137      0.0001
    164  N        177.9580  212.7940  103.1180 N.3   221  LEU221     -0.1245
    165  CA       178.8240  211.8280  102.5020 C.3   221  LEU221      0.1561
    166  C        178.8550  212.1100  100.9950 C.2   221  LEU221      0.2260
    167  O        177.7990  212.1290  100.3580 O.2   221  LEU221     -0.2867
    168  CB       178.2680  210.4360  102.7840 C.3   221  LEU221      0.0270
    169  CG       179.2760  209.3090  103.0240 C.3   221  LEU221      0.0019
    170  CD1      180.4270  209.2860  101.9780 C.3   221  LEU221      0.0001
    171  CD2      179.8230  209.4780  104.4240 C.3   221  LEU221      0.0001
    172  N        179.4510  210.5960   97.7900 N.3   223  ASP223     -0.1239
    173  CA       179.5180  209.1450   97.5140 C.3   223  ASP223      0.1674
    174  C        179.3460  208.6980   96.0660 C.2   223  ASP223      0.2266
    175  O        178.2170  208.5820   95.5720 O.2   223  ASP223     -0.2867
    176  CB       178.4640  208.4330   98.3500 C.3   223  ASP223      0.1410
    177  CG       178.6860  206.9530   98.4190 C.2   223  ASP223      0.3668
    178  OD1      179.4730  206.4430   97.5810 O.co2 223  ASP223     -0.2456
    179  OD2      178.0760  206.3180   99.3270 O.co2 223  ASP223     -0.2456
    180  N        179.6110  205.8960   94.7200 N.3   225  GLY225     -0.1210
    181  CA       179.1970  204.4980   94.5820 C.3   225  GLY225      0.1956
    182  C        177.7220  204.3950   94.8540 C.2   225  GLY225      0.2612
    183  O        177.1610  203.3120   94.7760 O.2   225  GLY225     -0.2717
    184  N        177.0980  205.5330   95.1640 N.am  226  ALA226     -0.1965
    185  CA       175.6790  205.5770   95.4470 C.3   226  ALA226      0.1728
    186  C        174.9230  206.1740   94.2590 C.2   226  ALA226      0.2616
    187  O        175.3250  207.1960   93.6940 O.2   226  ALA226     -0.2715
    188  CB       175.4230  206.3740   96.7260 C.3   226  ALA226      0.0334
    189  N        173.8140  205.5310   93.9030 N.am  227  SER227     -0.1950
    190  CA       172.9520  205.9660   92.8180 C.3   227  SER227      0.1924
    191  C        172.1850  207.2220   93.1720 C.2   227  SER227      0.2314
    192  O        171.9360  208.0510   92.2990 O.2   227  SER227     -0.2863
    193  CB       171.9390  204.8840   92.4820 C.3   227  SER227      0.2116
    194  OG       172.5670  203.6530   92.2700 O.3   227  SER227     -0.2180
@<TRIPOS>BOND
     1    11    10    2
     2    10     9    1
     3   129   130    1
     4     1     2    1
     5   130   131    1
     6   130   133    1
     7   127   126    2
     8    12     9    1
     9    12    13    1
    10     8     9    1
    11     8     3   am
    12   131   132    2
    13   126   125    1
    14    15    14    2
    15   133   134    1
    16     6     5    1
    17    14    13    1
    18    14    16   am
    19     2     3    1
    20     2     5    1
    21     7     5    1
    22     3     4    2
    23   119   118    2
    24   125   124    1
    25   125   128    1
    26   134   135   ar
    27   134   136   ar
    28   135   137   ar
    29   118   124   am
    30   118   117    1
    31    17    18    1
    32   117   116    1
    33   117   120    1
    34    23    21    1
    35   122   121    1
    36    18    21    1
    37    18    19    1
    38   136   138   ar
    39   137   139   ar
    40   108   107    2
    41   121   120    1
    42   121   123    1
    43    21    22    1
    44    19    20    2
    45   138   139   ar
    46   107   106    1
    47   194   193    1
    48   192   191    2
    49   193   190    1
    50   190   191    1
    51   190   189    1
    52   101   100    2
    53   140   141    1
    54   106   109    1
    55   106   105    1
    56   141   142    1
    57   141   144    1
    58   142   143    2
    59   187   186    2
    60   109   110    1
    61   189   186   am
    62   100   105   am
    63   100    99    1
    64    24    25    1
    65   186   185    1
    66   146   144    1
    67   111   110   ar
    68   111   113   ar
    69   181   180    1
    70   181   182    1
    71   144   145    1
    72   183   182    2
    73   110   112   ar
    74   182   184   am
    75   184   185    1
    76    99   102    1
    77    99    98    1
    78    25    28    1
    79    25    26    1
    80   185   188    1
    81   113   115   ar
    82   175   174    2
    83   102   103    1
    84    28    29    1
    85   174   173    1
    86   112   114   ar
    87    26    27    2
    88    98   104    1
    89   103   104    1
    90   115   114   ar
    91    29    30   ar
    92    29    31   ar
    93    45    44    2
    94   173   172    1
    95   173   176    1
    96   178   177   ar
    97    44    43    1
    98   176   177    1
    99   177   179   ar
   100    80    79    1
   101    32    33    1
   102    92    91    1
   103    41    40    1
   104    77    79   ar
   105    77    75   ar
   106    79    78   ar
   107    43    42    1
   108    43    46    1
   109    39    38    2
   110    75    74   ar
   111    91    93    1
   112    91    88    1
   113    90    89    2
   114    33    34    1
   115    46    47    1
   116    36    34   am
   117    36    37    1
   118    78    76   ar
   119    38    37    1
   120    56    55    1
   121   167   166    2
   122    40    37    1
   123    74    76   ar
   124    74    73    1
   125    89    88    1
   126    89    94   am
   127    34    35    2
   128   166   165    1
   129    95    94    1
   130    95    96    1
   131    88    87    1
   132    73    70    1
   133    96    97    2
   134    47    49   am
   135    47    48    2
   136    86    85    1
   137    87    83   am
   138    55    54    1
   139    55    57    1
   140   170   169    1
   141    54    51    1
   142   165   168    1
   143   165   164    1
   144   168   169    1
   145    53    52    2
   146    70    71    1
   147    70    69    1
   148    83    82    1
   149    83    84    2
   150   169   171    1
   151    85    82    1
   152    81    71   am
   153    81    82    1
   154    71    72    2
   155    69    60   am
   156    51    52    1
   157    51    50    1
   158    52    58   am
   159   154   153    2
   160    60    59    1
   161    60    61    2
   162    58    59    1
   163    59    62    1
   164   159   158    2
   165   153   155   am
   166   153   152    1
   167   151   152    1
   168   151   148    1
   169   150   149    2
   170   156   157    1
   171   149   148    1
   172   160   157    1
   173   160   162    1
   174   160   161    1
   175   158   157    1
   176   148   147    1
   177   163   161    1
   178    62    63    1
   179    63    64    1
   180    64    65    1
   181    67    66    1
   182    65    66    2
   183    66    68    1
