@<TRIPOS>MOLECULE
tmp/3vyeA01.pdb
 200 190 0 0 0
SMALL
GASTEIGER

@<TRIPOS>ATOM
      1  N        172.6720  205.1600   87.5620 N.3    18  THR18      -0.1203
      2  CA       172.8450  204.6680   88.9260 C.3    18  THR18       0.1994
      3  C        174.1670  203.9570   89.1860 C.2    18  THR18       0.2617
      4  O        174.5840  203.8410   90.3380 O.2    18  THR18      -0.2717
      5  CB       171.7420  203.6930   89.3320 C.3    18  THR18       0.1784
      6  OG1      171.8730  202.4820   88.5810 O.3    18  THR18      -0.2211
      7  CG2      170.4060  204.2930   89.0890 C.3    18  THR18       0.0376
      8  N        174.8100  203.4550   88.1330 N.am   19  GLN19      -0.1979
      9  CA       176.0950  202.7670   88.2780 C.3    19  GLN19       0.1601
     10  C        177.1140  203.2510   87.2410 C.2    19  GLN19       0.2287
     11  O        176.8550  203.2150   86.0320 O.2    19  GLN19      -0.2864
     12  CB       175.8990  201.2540   88.1470 C.3    19  GLN19       0.0394
     13  CG       175.0800  200.6360   89.2710 C.3    19  GLN19       0.0908
     14  CD       174.6460  199.2110   88.9720 C.2    19  GLN19       0.2608
     15  OE1      175.4550  198.3770   88.5820 O.2    19  GLN19      -0.2717
     16  NE2      173.3650  198.9270   89.1600 N.am   19  GLN19      -0.0878
     17  N        183.3860  199.6150   90.2560 N.3    36  VAL36      -0.1245
     18  CA       182.8780  200.9260   90.6310 C.3    36  VAL36       0.1561
     19  C        183.9330  201.5680   91.5280 C.2    36  VAL36       0.2260
     20  O        184.5100  200.8960   92.3780 O.2    36  VAL36      -0.2867
     21  CB       181.5420  200.7790   91.4140 C.3    36  VAL36       0.0252
     22  CG1      181.2460  202.0290   92.1860 C.3    36  VAL36       0.0019
     23  CG2      180.4050  200.5060   90.4540 C.3    36  VAL36       0.0019
     24  N        184.5350  203.7100   94.4550 N.3    38  ASP38      -0.1239
     25  CA       183.7900  204.2000   95.6080 C.3    38  ASP38       0.1674
     26  C        184.5700  204.9820   96.6610 C.2    38  ASP38       0.2266
     27  O        185.2890  204.3920   97.4570 O.2    38  ASP38      -0.2867
     28  CB       183.1010  203.0000   96.2670 C.3    38  ASP38       0.1410
     29  CG       182.3520  203.3670   97.5250 C.2    38  ASP38       0.3668
     30  OD1      181.7930  204.4820   97.5760 O.co2  38  ASP38      -0.2456
     31  OD2      182.3060  202.5400   98.4600 O.co2  38  ASP38      -0.2456
     32  N        183.4370  206.0200   99.0470 N.3    40  GLY40      -0.1210
     33  CA       182.7970  205.6680  100.3000 C.3    40  GLY40       0.1956
     34  C        183.3570  204.4730  101.0530 C.2    40  GLY40       0.2613
     35  O        182.8710  204.1530  102.1330 O.2    40  GLY40      -0.2717
     36  N        184.3630  203.8140  100.4870 N.am   41  SER41      -0.1938
     37  CA       184.9810  202.6510  101.1080 C.3    41  SER41       0.2055
     38  C        186.4440  202.6590  100.6850 C.2    41  SER41       0.2644
     39  O        186.8290  203.4870   99.8680 O.2    41  SER41      -0.2714
     40  CB       184.2790  201.3570  100.6550 C.3    41  SER41       0.2130
     41  OG       184.3970  201.1370   99.2590 O.3    41  SER41      -0.2179
     42  N        187.2560  201.7460  101.2130 N.am   42  SER42      -0.1935
     43  CA       188.6730  201.7410  100.8680 C.3    42  SER42       0.2055
     44  C        189.2680  200.3990  100.4730 C.2    42  SER42       0.2643
     45  O        190.4860  200.2500  100.4220 O.2    42  SER42      -0.2714
     46  CB       189.4910  202.3070  102.0280 C.3    42  SER42       0.2130
     47  OG       188.9410  203.5250  102.4900 O.3    42  SER42      -0.2179
     48  N        188.4390  199.4050  100.2080 N.am   43  ASN43      -0.1971
     49  CA       188.9930  198.1260   99.8110 C.3    43  ASN43       0.1688
     50  C        188.7750  197.8740   98.3490 C.2    43  ASN43       0.2292
     51  O        187.9190  198.4930   97.7120 O.2    43  ASN43      -0.2864
     52  CB       188.3610  196.9870  100.5990 C.3    43  ASN43       0.1181
     53  CG       188.8670  196.9220  102.0020 C.2    43  ASN43       0.2629
     54  OD1      188.5970  197.8110  102.8080 O.2    43  ASN43      -0.2716
     55  ND2      189.6260  195.8710  102.3130 N.am   43  ASN43      -0.0877
     56  N        183.2550  192.6070  104.0880 N.3    81  LEU81      -0.1231
     57  CA       182.9240  194.0020  103.8460 C.3    81  LEU81       0.1693
     58  C        181.4340  194.2040  104.0100 C.2    81  LEU81       0.2592
     59  O        180.6240  193.7300  103.2130 O.2    81  LEU81      -0.2718
     60  CB       183.3530  194.4270  102.4470 C.3    81  LEU81       0.0284
     61  CG       184.8410  194.2250  102.1570 C.3    81  LEU81       0.0019
     62  CD1      185.0920  194.4930  100.6730 C.3    81  LEU81       0.0001
     63  CD2      185.6790  195.1290  103.0600 C.3    81  LEU81       0.0001
     64  N        181.0730  194.9130  105.0700 N.am   82  ARG82      -0.1966
     65  CA       179.6780  195.1690  105.3440 C.3    82  ARG82       0.1729
     66  C        179.3540  196.5740  104.9170 C.2    82  ARG82       0.2616
     67  O        179.7160  197.5310  105.5990 O.2    82  ARG82      -0.2715
     68  CB       179.3910  195.0050  106.8240 C.3    82  ARG82       0.0348
     69  CG       179.7990  193.6630  107.3740 C.3    82  ARG82       0.0492
     70  CD       179.5700  193.6040  108.8730 C.3    82  ARG82       0.2205
     71  NE       180.0150  192.3440  109.4720 N.pl3  82  ARG82      -0.0865
     72  CZ       181.2850  191.9430  109.5660 C.cat  82  ARG82       0.5346
     73  NH1      182.2660  192.6970  109.0930 N.pl3  82  ARG82       0.1354
     74  NH2      181.5650  190.7940  110.1630 N.pl3  82  ARG82       0.1354
     75  N        178.6800  196.6850  103.7760 N.am   83  TYR83      -0.1960
     76  CA       178.2870  197.9710  103.2420 C.3    83  TYR83       0.1771
     77  C        176.8710  198.3200  103.7020 C.2    83  TYR83       0.2620
     78  O        176.1600  197.4970  104.2880 O.2    83  TYR83      -0.2715
     79  CB       178.3260  197.9590  101.7160 C.3    83  TYR83       0.0574
     80  CG       179.6840  197.7030  101.0930 C.ar   83  TYR83      -0.0198
     81  CD1      179.8940  196.5890  100.2800 C.ar   83  TYR83      -0.0009
     82  CD2      180.7340  198.6090  101.2550 C.ar   83  TYR83      -0.0009
     83  CE1      181.0990  196.3890   99.6450 C.ar   83  TYR83       0.0417
     84  CE2      181.9500  198.4130  100.6150 C.ar   83  TYR83       0.0417
     85  CZ       182.1210  197.3020   99.8110 C.ar   83  TYR83       0.1957
     86  OH       183.3040  197.1110   99.1400 O.3    83  TYR83      -0.2866
     87  N        176.4780  199.5540  103.4090 N.am   84  SER84      -0.1936
     88  CA       175.1760  200.0950  103.7610 C.3    84  SER84       0.2055
     89  C        174.0080  199.2940  103.1960 C.2    84  SER84       0.2644
     90  O        172.9540  199.2080  103.8240 O.2    84  SER84      -0.2714
     91  CB       175.0870  201.5380  103.2570 C.3    84  SER84       0.2130
     92  OG       175.2810  201.5830  101.8480 O.3    84  SER84      -0.2179
     93  N        174.1900  198.7000  102.0220 N.am   85  THR85      -0.1936
     94  CA       173.1020  197.9550  101.3980 C.3    85  THR85       0.2028
     95  C        173.3430  196.4560  101.2130 C.2    85  THR85       0.2642
     96  O        172.5200  195.7670  100.6120 O.2    85  THR85      -0.2714
     97  CB       172.7610  198.5480  100.0150 C.3    85  THR85       0.1808
     98  OG1      173.9190  198.4800   99.1700 O.3    85  THR85      -0.2208
     99  CG2      172.3280  199.9980  100.1470 C.3    85  THR85       0.0379
    100  N        174.4530  195.9480  101.7320 N.am   86  GLY86      -0.1954
    101  CA       174.7410  194.5400  101.5720 C.3    86  GLY86       0.1869
    102  C        176.1450  194.2060  102.0170 C.2    86  GLY86       0.2309
    103  O        176.9580  195.0890  102.2740 O.2    86  GLY86      -0.2863
    104  N        172.0790  192.5600   97.0220 N.3   118  PRO118     -0.2102
    105  CA       171.8060  193.3230   95.7990 C.3   118  PRO118      0.1504
    106  C        172.7000  193.0330   94.5980 C.2   118  PRO118      0.2575
    107  O        172.4260  193.5040   93.5000 O.2   118  PRO118     -0.2718
    108  CB       172.0090  194.7500   96.2660 C.3   118  PRO118      0.0282
    109  CG       173.2600  194.5920   97.1170 C.3   118  PRO118      0.0208
    110  CD       172.9550  193.3350   97.9260 C.3   118  PRO118      0.0893
    111  N        173.7560  192.2590   94.7940 N.am  119  PHE119     -0.1977
    112  CA       174.7090  192.0070   93.7180 C.3   119  PHE119      0.1639
    113  C        174.2030  191.4830   92.3860 C.2   119  PHE119      0.2290
    114  O        174.8740  191.6420   91.3700 O.2   119  PHE119     -0.2864
    115  CB       175.8620  191.1650   94.2750 C.3   119  PHE119      0.0560
    116  CG       176.5770  191.8560   95.4150 C.ar  119  PHE119     -0.0200
    117  CD1      177.2910  193.0320   95.1910 C.ar  119  PHE119     -0.0042
    118  CD2      176.4080  191.4230   96.7240 C.ar  119  PHE119     -0.0042
    119  CE1      177.8140  193.7730   96.2560 C.ar  119  PHE119     -0.0003
    120  CE2      176.9260  192.1570   97.7940 C.ar  119  PHE119     -0.0003
    121  CZ       177.6280  193.3350   97.5580 C.ar  119  PHE119     -0.0000
    122  N        171.8430  192.7250   90.9190 N.3   121  LEU121     -0.1231
    123  CA       171.4650  193.9520   90.2390 C.3   121  LEU121      0.1693
    124  C        172.6690  194.8120   89.8920 C.2   121  LEU121      0.2591
    125  O        172.5110  195.9410   89.4470 O.2   121  LEU121     -0.2718
    126  CB       170.4900  194.7660   91.0980 C.3   121  LEU121      0.0284
    127  CG       169.1170  194.1550   91.3900 C.3   121  LEU121      0.0019
    128  CD1      169.2650  193.0770   92.4650 C.3   121  LEU121      0.0001
    129  CD2      168.1720  195.2200   91.8760 C.3   121  LEU121      0.0001
    130  N        173.8660  194.2720   90.0940 N.am  122  ALA122     -0.1980
    131  CA       175.0970  195.0080   89.7880 C.3   122  ALA122      0.1597
    132  C        175.6050  194.7320   88.3840 C.2   122  ALA122      0.2287
    133  O        175.8240  193.5840   88.0220 O.2   122  ALA122     -0.2864
    134  CB       176.1840  194.6510   90.7750 C.3   122  ALA122      0.0319
    135  N        178.4140  195.9830   87.4340 N.3   124  PHE124     -0.1241
    136  CA       179.8370  195.8510   87.7260 C.3   124  PHE124      0.1605
    137  C        180.1640  194.5340   88.4190 C.2   124  PHE124      0.2264
    138  O        179.2770  193.8910   88.9720 O.2   124  PHE124     -0.2867
    139  CB       180.2790  197.0080   88.6270 C.3   124  PHE124      0.0534
    140  CG       179.5410  197.0750   89.9520 C.ar  124  PHE124     -0.0203
    141  CD1      178.3610  197.8040   90.0830 C.ar  124  PHE124     -0.0042
    142  CD2      180.0330  196.4090   91.0690 C.ar  124  PHE124     -0.0042
    143  CE1      177.6840  197.8660   91.3210 C.ar  124  PHE124     -0.0003
    144  CE2      179.3690  196.4640   92.2980 C.ar  124  PHE124     -0.0003
    145  CZ       178.1950  197.1930   92.4250 C.ar  124  PHE124     -0.0000
    146  N        184.3980  196.4100   93.3130 N.3   127  VAL127     -0.1245
    147  CA       184.4900  197.7700   93.7910 C.3   127  VAL127      0.1561
    148  C        185.9520  198.1040   94.0000 C.2   127  VAL127      0.2260
    149  O        186.7540  197.2360   94.3380 O.2   127  VAL127     -0.2867
    150  CB       183.7550  197.9390   95.1530 C.3   127  VAL127      0.0252
    151  CG1      183.9370  199.3860   95.6710 C.3   127  VAL127      0.0019
    152  CG2      182.2580  197.5470   95.0070 C.3   127  VAL127      0.0019
    153  N        189.4190  203.8420  106.7920 N.3   135  GLN135     -0.1245
    154  CA       188.1680  203.1430  106.5080 C.3   135  GLN135      0.1566
    155  C        188.3910  201.7620  105.8960 C.2   135  GLN135      0.2260
    156  O        187.4470  200.9880  105.7360 O.2   135  GLN135     -0.2867
    157  CB       187.2960  203.9660  105.5620 C.3   135  GLN135      0.0367
    158  CG       186.4910  205.0490  106.2330 C.3   135  GLN135      0.0905
    159  CD       185.7720  205.9090  105.2230 C.2   135  GLN135      0.2608
    160  OE1      184.6120  206.2690  105.4110 O.2   135  GLN135     -0.2717
    161  NE2      186.4660  206.2580  104.1430 N.am  135  GLN135     -0.0878
    162  N        189.2770  197.9310  105.5390 N.3   137  ILE137     -0.1245
    163  CA       189.0540  196.8300  106.4530 C.3   137  ILE137      0.1561
    164  C        190.2210  195.8900  106.3060 C.2   137  ILE137      0.2260
    165  O        190.7550  195.7360  105.2110 O.2   137  ILE137     -0.2867
    166  CB       187.7180  196.1080  106.1410 C.3   137  ILE137      0.0252
    167  CG1      186.5550  197.0450  106.4860 C.3   137  ILE137      0.0019
    168  CG2      187.6040  194.7910  106.9260 C.3   137  ILE137      0.0019
    169  CD1      185.2040  196.4590  106.2120 C.3   137  ILE137      0.0001
    170  N        180.0880  210.8220   98.3230 N.3   221  ASP221     -0.1239
    171  CA       180.1810  209.4210   97.9050 C.3   221  ASP221      0.1674
    172  C        180.0350  209.0910   96.4030 C.2   221  ASP221      0.2266
    173  O        178.9220  209.0570   95.8690 O.2   221  ASP221     -0.2867
    174  CB       179.1160  208.6610   98.6980 C.3   221  ASP221      0.1410
    175  CG       179.3370  207.1760   98.7030 C.2   221  ASP221      0.3668
    176  OD1      179.8890  206.6440   97.7160 O.co2 221  ASP221     -0.2456
    177  OD2      178.9330  206.5360   99.6950 O.co2 221  ASP221     -0.2456
    178  N        180.4270  206.2710   95.0110 N.3   223  GLY223     -0.1210
    179  CA       179.8460  204.9510   94.8360 C.3   223  GLY223      0.1956
    180  C        178.3600  204.8830   95.1290 C.2   223  GLY223      0.2612
    181  O        177.7320  203.8460   94.9200 O.2   223  GLY223     -0.2717
    182  N        177.8020  205.9920   95.6230 N.am  224  ALA224     -0.1965
    183  CA       176.3800  206.0840   95.9400 C.3   224  ALA224      0.1728
    184  C        175.6870  206.6310   94.7000 C.2   224  ALA224      0.2616
    185  O        176.1950  207.5440   94.0500 O.2   224  ALA224     -0.2715
    186  CB       176.1700  207.0170   97.1270 C.3   224  ALA224      0.0334
    187  N        174.5320  206.0750   94.3630 N.am  225  SER225     -0.1950
    188  CA       173.8280  206.5260   93.1720 C.3   225  SER225      0.1924
    189  C        172.9700  207.7260   93.4540 C.2   225  SER225      0.2314
    190  O        172.7730  208.5720   92.5940 O.2   225  SER225     -0.2863
    191  CB       172.9090  205.4350   92.6240 C.3   225  SER225      0.2116
    192  OG       173.3490  204.1470   93.0070 O.3   225  SER225     -0.2180
    193  N        168.7720  207.0110  104.6460 N.3   298  MET298     -0.1245
    194  CA       169.8950  206.1640  105.0170 C.3   298  MET298      0.1570
    195  C        170.4790  206.7150  106.3000 C.2   298  MET298      0.2261
    196  O        170.9190  207.8650  106.3690 O.2   298  MET298     -0.2867
    197  CB       170.9680  206.1330  103.9300 C.3   298  MET298      0.0387
    198  CG       170.7620  205.0310  102.9030 C.3   298  MET298      0.0595
    199  SD       172.2830  204.1230  102.6160 S.3   298  MET298     -0.1393
    200  CE       172.0540  203.6160  100.9020 C.3   298  MET298      0.0692
@<TRIPOS>BOND
     1    11    10    2
     2    10     9    1
     3   135   136    1
     4     1     2    1
     5   136   137    1
     6   136   139    1
     7   133   132    2
     8     8     9    1
     9     8     3   am
    10    12     9    1
    11    12    13    1
    12   132   131    1
    13   137   138    2
    14     6     5    1
    15    15    14    2
    16   139   140    1
    17     2     3    1
    18     2     5    1
    19    14    16   am
    20    14    13    1
    21     7     5    1
    22     3     4    2
    23   125   124    2
    24   131   130    1
    25   131   134    1
    26   124   130   am
    27   124   123    1
    28   140   141   ar
    29   140   142   ar
    30   141   143   ar
    31   123   122    1
    32   123   126    1
    33    17    18    1
    34    23    21    1
    35    18    21    1
    36    18    19    1
    37   142   144   ar
    38   126   127    1
    39   143   145   ar
    40   114   113    2
    41   127   129    1
    42   127   128    1
    43    21    22    1
    44    19    20    2
    45   144   145   ar
    46   113   112    1
    47   190   189    2
    48   191   192    1
    49   191   188    1
    50   188   189    1
    51   188   187    1
    52   146   147    1
    53   107   106    2
    54   112   115    1
    55   112   111    1
    56   147   148    1
    57   147   150    1
    58   148   149    2
    59   185   184    2
    60   115   116    1
    61   187   184   am
    62    24    25    1
    63   106   111   am
    64   106   105    1
    65   184   183    1
    66   179   178    1
    67   179   180    1
    68   181   180    2
    69   152   150    1
    70   180   182   am
    71   150   151    1
    72   117   116   ar
    73   117   119   ar
    74   116   118   ar
    75    25    28    1
    76    25    26    1
    77   182   183    1
    78   105   108    1
    79   105   104    1
    80   173   172    2
    81   183   186    1
    82   119   121   ar
    83   108   109    1
    84    28    29    1
    85   172   171    1
    86    26    27    2
    87   118   120   ar
    88   104   110    1
    89   109   110    1
    90    29    30   ar
    91    29    31   ar
    92   121   120   ar
    93    51    50    2
    94   176   175   ar
    95   171   170    1
    96   171   174    1
    97    50    49    1
    98   174   175    1
    99   175   177   ar
   100    32    33    1
   101    86    85    1
   102    98    97    1
   103    41    40    1
   104    83    85   ar
   105    83    81   ar
   106    49    48    1
   107    49    52    1
   108    85    84   ar
   109    39    38    2
   110    97    99    1
   111    97    94    1
   112    48    44   am
   113    81    80   ar
   114    33    34    1
   115    45    44    2
   116    44    43    1
   117    36    34   am
   118    36    37    1
   119    52    53    1
   120    96    95    2
   121    84    82   ar
   122    40    37    1
   123    62    61    1
   124    38    37    1
   125    38    42   am
   126    43    42    1
   127    43    46    1
   128   200   199    1
   129    34    35    2
   130    80    82   ar
   131    80    79    1
   132    95    94    1
   133    95   100   am
   134    94    93    1
   135   101   100    1
   136   101   102    1
   137    79    76    1
   138    92    91    1
   139    53    55   am
   140    53    54    2
   141   102   103    2
   142    93    89   am
   143    46    47    1
   144    61    60    1
   145    61    63    1
   146    60    57    1
   147   199   198    1
   148   198   197    1
   149    89    88    1
   150    89    90    2
   151    59    58    2
   152    76    77    1
   153    76    75    1
   154    91    88    1
   155    87    77   am
   156    87    88    1
   157    77    78    2
   158    75    66   am
   159    57    58    1
   160    57    56    1
   161   197   194    1
   162    58    64   am
   163   161   159   am
   164   193   194    1
   165    66    65    1
   166    66    67    2
   167   194   195    1
   168    64    65    1
   169   165   164    2
   170   159   160    2
   171   159   158    1
   172    65    68    1
   173   162   163    1
   174   157   158    1
   175   157   154    1
   176   156   155    2
   177   155   154    1
   178   166   163    1
   179   166   167    1
   180   166   168    1
   181   169   167    1
   182   195   196    2
   183   164   163    1
   184   154   153    1
   185    68    69    1
   186    69    70    1
   187    70    71    1
   188    73    72    1
   189    71    72    2
   190    72    74    1
