@<TRIPOS>MOLECULE
tmp/3vykA00.pdb
 127 121 0 0 0
SMALL
GASTEIGER

@<TRIPOS>ATOM
      1  N        -21.7900   -7.4700   -2.9680 N.3    59  GLY59      -0.1225
      2  CA       -22.8330   -8.4640   -3.2550 C.3    59  GLY59       0.1811
      3  C        -22.5670   -9.1570   -4.5730 C.2    59  GLY59       0.2280
      4  O        -22.0710   -8.5460   -5.5250 O.2    59  GLY59      -0.2866
      5  N        -35.5400  -13.3910    4.2210 N.3    91  GLU91      -0.1245
      6  CA       -35.4660  -13.4570    2.7560 C.3    91  GLU91       0.1567
      7  C        -35.8810  -14.8360    2.2580 C.2    91  GLU91       0.2260
      8  O        -35.7790  -15.8130    2.9960 O.2    91  GLU91      -0.2867
      9  CB       -34.0540  -13.1570    2.2650 C.3    91  GLU91       0.0388
     10  CG       -33.4660  -11.8520    2.7800 C.3    91  GLU91       0.1160
     11  CD       -34.1780  -10.5960    2.2780 C.2    91  GLU91       0.3649
     12  OE1      -34.9070  -10.5960    1.2360 O.co2  91  GLU91      -0.2457
     13  OE2      -33.9360   -9.5500    2.9380 O.co2  91  GLU91      -0.2457
     14  N        -38.0220  -11.8240    0.1210 N.3    93  ASN93      -0.1225
     15  CA       -39.1270  -11.0330    0.6630 C.3    93  ASN93       0.1785
     16  C        -40.0100  -10.2530   -0.3000 C.2    93  ASN93       0.2597
     17  O        -41.0880   -9.7950    0.1080 O.2    93  ASN93      -0.2718
     18  CB       -38.6180  -10.0940    1.7690 C.3    93  ASN93       0.1169
     19  CG       -37.7080   -8.9950    1.2460 C.2    93  ASN93       0.2627
     20  OD1      -37.1360   -9.0730    0.1480 O.2    93  ASN93      -0.2716
     21  ND2      -37.5650   -7.9450    2.0490 N.am   93  ASN93      -0.0877
     22  N        -39.5860  -10.0850   -1.5520 N.am   94  GLN94      -0.1979
     23  CA       -40.3090   -9.1720   -2.4420 C.3    94  GLN94       0.1601
     24  C        -40.4600   -9.7110   -3.8560 C.2    94  GLN94       0.2287
     25  O        -39.4740  -10.1150   -4.4770 O.2    94  GLN94      -0.2864
     26  CB       -39.6330   -7.7960   -2.4170 C.3    94  GLN94       0.0394
     27  CG       -39.8200   -7.1180   -1.0600 C.3    94  GLN94       0.0908
     28  CD       -38.9620   -5.8930   -0.8000 C.2    94  GLN94       0.2608
     29  OE1      -37.7600   -5.8640   -1.0750 O.2    94  GLN94      -0.2717
     30  NE2      -39.5800   -4.8820   -0.1970 N.am   94  GLN94      -0.0878
     31  N        -40.9580   -8.5060   -6.7800 N.3    96  TRP96      -0.1227
     32  CA       -40.2880   -7.7790   -7.8400 C.3    96  TRP96       0.1737
     33  C        -38.7830   -7.8930   -7.7730 C.2    96  TRP96       0.2595
     34  O        -38.0800   -7.3100   -8.5960 O.2    96  TRP96      -0.2718
     35  CB       -40.7440   -6.3170   -7.8160 C.3    96  TRP96       0.0564
     36  CG       -40.6820   -5.7010   -6.4380 C.ar   96  TRP96       0.0003
     37  CD1      -41.6350   -5.7720   -5.4220 C.ar   96  TRP96       0.0946
     38  CD2      -39.5880   -4.9080   -5.8730 C.ar   96  TRP96       0.0152
     39  NE1      -41.2150   -5.0910   -4.3050 N.ar   96  TRP96      -0.2442
     40  CE2      -39.9940   -4.5520   -4.5090 C.ar   96  TRP96       0.0810
     41  CE3      -38.3620   -4.4700   -6.3420 C.ar   96  TRP96       0.0012
     42  CZ2      -39.1870   -3.7910   -3.6790 C.ar   96  TRP96       0.0191
     43  CZ3      -37.5620   -3.7070   -5.4940 C.ar   96  TRP96       0.0001
     44  CH2      -37.9660   -3.3770   -4.1960 C.ar   96  TRP96       0.0015
     45  N        -38.2890   -8.6610   -6.7970 N.am   97  GLU97      -0.1979
     46  CA       -36.8680   -8.9770   -6.6440 C.3    97  GLU97       0.1602
     47  C        -36.7050  -10.4120   -7.1390 C.2    97  GLU97       0.2287
     48  O        -36.9170  -11.3780   -6.3840 O.2    97  GLU97      -0.2864
     49  CB       -36.4290   -8.8350   -5.1780 C.3    97  GLU97       0.0415
     50  CG       -36.4670   -7.3970   -4.6500 C.3    97  GLU97       0.1163
     51  CD       -35.7900   -7.2420   -3.2890 C.2    97  GLU97       0.3649
     52  OE1      -36.1060   -7.9890   -2.3300 O.co2  97  GLU97      -0.2457
     53  OE2      -34.9240   -6.3480   -3.1820 O.co2  97  GLU97      -0.2457
     54  N        -28.5780  -12.4340   -4.8340 N.3   101  ILE101     -0.1245
     55  CA       -27.1750  -12.2430   -4.5050 C.3   101  ILE101      0.1561
     56  C        -26.7930  -12.9490   -3.2150 C.2   101  ILE101      0.2260
     57  O        -27.6270  -13.1680   -2.3340 O.2   101  ILE101     -0.2867
     58  CB       -26.7660  -10.7440   -4.3670 C.3   101  ILE101      0.0252
     59  CG1      -27.5860  -10.0190   -3.2860 C.3   101  ILE101      0.0019
     60  CG2      -26.8130  -10.0600   -5.7260 C.3   101  ILE101      0.0019
     61  CD1      -27.1070   -8.6040   -2.9910 C.3   101  ILE101      0.0001
     62  N        -24.7430  -11.9240   -0.1010 N.3   103  ASN103     -0.1240
     63  CA       -24.1660  -10.7670    0.5970 C.3   103  ASN103      0.1653
     64  C        -23.9530  -11.0510    2.0780 C.2   103  ASN103      0.2266
     65  O        -24.4160  -12.0720    2.6160 O.2   103  ASN103     -0.2867
     66  CB       -24.9650   -9.4600    0.3350 C.3   103  ASN103      0.1155
     67  CG       -26.3650   -9.4720    0.9350 C.2   103  ASN103      0.2627
     68  OD1      -26.7990  -10.4450    1.5230 O.2   103  ASN103     -0.2716
     69  ND2      -27.0950   -8.3610    0.7720 N.am  103  ASN103     -0.0877
     70  N        -23.9610   -9.9590    6.1640 N.3   105  LYS105     -0.1245
     71  CA       -24.6550   -9.1970    7.2070 C.3   105  LYS105      0.1561
     72  C        -24.0370   -9.5600    8.5520 C.2   105  LYS105      0.2260
     73  O        -23.0890  -10.3430    8.6070 O.2   105  LYS105     -0.2867
     74  CB       -26.1690   -9.4790    7.1780 C.3   105  LYS105      0.0271
     75  CG       -26.8480   -8.9880    5.9080 C.3   105  LYS105      0.0035
     76  CD       -28.3020   -9.4310    5.7480 C.3   105  LYS105      0.0206
     77  CE       -29.2640   -8.5380    6.5130 C.3   105  LYS105      0.1093
     78  NZ       -30.6490   -8.8390    6.0740 N.3   105  LYS105     -0.1314
     79  N        -30.0240  -13.1650   -0.7190 N.3   112  ASN112     -0.1225
     80  CA       -31.0910  -12.1560   -0.6690 C.3   112  ASN112      0.1785
     81  C        -31.6350  -11.9650   -2.0680 C.2   112  ASN112      0.2597
     82  O        -30.8670  -11.8290   -3.0120 O.2   112  ASN112     -0.2718
     83  CB       -30.5390  -10.8330   -0.1270 C.3   112  ASN112      0.1169
     84  CG       -31.5400   -9.6900   -0.2170 C.2   112  ASN112      0.2627
     85  OD1      -32.7480   -9.8680   -0.0460 O.2   112  ASN112     -0.2716
     86  ND2      -31.0120   -8.4860   -0.4590 N.am  112  ASN112     -0.0877
     87  N        -32.9600  -11.9770   -2.1980 N.am  113  ASP113     -0.1960
     88  CA       -33.5630  -11.5660   -3.4640 C.3   113  ASP113      0.1840
     89  C        -33.4450  -10.0560   -3.6380 C.2   113  ASP113      0.2622
     90  O        -33.6840   -9.2710   -2.6870 O.2   113  ASP113     -0.2715
     91  CB       -35.0180  -12.0520   -3.6230 C.3   113  ASP113      0.1450
     92  CG       -35.9670  -11.5020   -2.5670 C.2   113  ASP113      0.3671
     93  OD1      -35.5200  -11.1810   -1.4340 O.co2 113  ASP113     -0.2456
     94  OD2      -37.1820  -11.4380   -2.8870 O.co2 113  ASP113     -0.2456
     95  N        -33.0360   -9.6950   -4.8620 N.am  114  ILE114     -0.1964
     96  CA       -32.8740   -8.2930   -5.2740 C.3   114  ILE114      0.1712
     97  C        -33.3750   -8.0650   -6.7170 C.2   114  ILE114      0.2458
     98  O        -33.6140   -9.0140   -7.4670 O.2   114  ILE114     -0.2730
     99  CB       -31.3990   -7.8150   -5.1680 C.3   114  ILE114      0.0289
    100  CG1      -30.4910   -8.4720   -6.2190 C.3   114  ILE114      0.0022
    101  CG2      -30.8610   -8.0100   -3.7500 C.3   114  ILE114      0.0023
    102  CD1      -29.2650   -7.6330   -6.5140 C.3   114  ILE114      0.0001
    103  N        -33.5260   -6.7850   -7.1190 N.am  115  PRO115     -0.2727
    104  CA       -33.8890   -6.5430   -8.5040 C.3   115  PRO115      0.1402
    105  C        -32.7550   -6.9290   -9.4450 C.2   115  PRO115      0.2269
    106  O        -31.5840   -6.6240   -9.1850 O.2   115  PRO115     -0.2865
    107  CB       -34.1440   -5.0270   -8.5290 C.3   115  PRO115      0.0296
    108  CG       -34.4430   -4.6730   -7.1090 C.3   115  PRO115      0.0237
    109  CD       -33.4660   -5.5270   -6.3580 C.3   115  PRO115      0.0939
    110  N        -30.2870   -4.2220  -10.6700 N.3   118  ASP118     -0.1239
    111  CA       -29.3280   -3.5770   -9.7660 C.3   118  ASP118      0.1674
    112  C        -27.9410   -4.1350  -10.0180 C.2   118  ASP118      0.2266
    113  O        -27.7650   -5.3460  -10.1040 O.2   118  ASP118     -0.2867
    114  CB       -29.7100   -3.7640   -8.2930 C.3   118  ASP118      0.1410
    115  CG       -30.8690   -2.8770   -7.8560 C.2   118  ASP118      0.3668
    116  OD1      -31.4840   -2.1970   -8.7080 O.co2 118  ASP118     -0.2456
    117  OD2      -31.1900   -2.8860   -6.6490 O.co2 118  ASP118     -0.2456
    118  N        -24.2780   -5.4340   -9.5590 N.3   120  HIS120     -0.1241
    119  CA       -23.4760   -6.0760   -8.5240 C.3   120  HIS120      0.1621
    120  C        -22.3290   -6.8300   -9.1060 C.2   120  HIS120      0.2264
    121  O        -22.2160   -6.9970  -10.3240 O.2   120  HIS120     -0.2867
    122  CB       -24.3490   -7.0200   -7.6900 C.3   120  HIS120      0.0745
    123  CG       -25.2650   -6.2960   -6.7500 C.ar  120  HIS120      0.0817
    124  ND1      -26.4540   -5.7890   -7.1420 N.ar  120  HIS120     -0.2268
    125  CD2      -25.1100   -5.9540   -5.4170 C.ar  120  HIS120      0.1154
    126  CE1      -27.0290   -5.1670   -6.1010 C.ar  120  HIS120      0.1986
    127  NE2      -26.2120   -5.2690   -5.0510 N.ar  120  HIS120     -0.2212
@<TRIPOS>BOND
     1   110   111    1
     2   121   120    2
     3   113   112    2
     4   112   111    1
     5   111   114    1
     6   118   119    1
     7   105   106    2
     8   105   104    1
     9   120   119    1
    10   116   115   ar
    11    34    33    2
    12   107   104    1
    13   107   108    1
    14   119   122    1
    15   104   103    1
    16   114   115    1
    17   115   117   ar
    18    32    35    1
    19    32    33    1
    20    32    31    1
    21    35    36    1
    22    33    45   am
    23   122   123    1
    24    98    97    2
    25   124   123   ar
    26   124   126   ar
    27    47    46    1
    28    47    48    2
    29   103    97   am
    30   103   109    1
    31   108   109    1
    32    45    46    1
    33   123   125   ar
    34    97    96    1
    35    46    49    1
    36   102   100    1
    37    36    38   ar
    38    36    37   ar
    39    41    38   ar
    40    41    43   ar
    41   100    99    1
    42   126   127   ar
    43    38    40   ar
    44    60    58    1
    45     4     3    2
    46    43    44   ar
    47    37    39   ar
    48   125   127   ar
    49    96    99    1
    50    96    95    1
    51    49    50    1
    52    99   101    1
    53    95    89   am
    54    54    55    1
    55    50    51    1
    56     3     2    1
    57    40    39   ar
    58    40    42   ar
    59    55    58    1
    60    55    56    1
    61    25    24    2
    62    58    59    1
    63    44    42   ar
    64    24    23    1
    65    89    88    1
    66    89    90    2
    67    91    88    1
    68    91    92    1
    69    88    87    1
    70    51    53   ar
    71    51    52   ar
    72    59    61    1
    73     2     1    1
    74    56    57    2
    75    82    81    2
    76    94    92   ar
    77    92    93   ar
    78    23    26    1
    79    23    22    1
    80    26    27    1
    81    87    81   am
    82    81    80    1
    83    22    16   am
    84    29    28    2
    85    27    28    1
    86    28    30   am
    87    79    80    1
    88    80    83    1
    89    86    84   am
    90    16    17    2
    91    16    15    1
    92    84    83    1
    93    84    85    2
    94    62    63    1
    95    14    15    1
    96    20    19    2
    97    66    63    1
    98    66    67    1
    99    63    64    1
   100    15    18    1
   101    69    67   am
   102    67    68    2
   103    12    11   ar
   104    19    18    1
   105    19    21   am
   106    64    65    2
   107     7     6    1
   108     7     8    2
   109     9     6    1
   110     9    10    1
   111    11    10    1
   112    11    13   ar
   113     6     5    1
   114    76    75    1
   115    76    77    1
   116    75    74    1
   117    78    77    1
   118    70    71    1
   119    74    71    1
   120    71    72    1
   121    72    73    2
