@<TRIPOS>MOLECULE
tmp/3vyrB01.pdb
 104 98 0 0 0
SMALL
GASTEIGER

@<TRIPOS>ATOM
      1  N        -18.1770  -61.0000  -18.5380 N.3    71  PRO71      -0.2116
      2  CA       -19.0220  -59.9720  -17.9260 C.3    71  PRO71       0.1372
      3  C        -19.8770  -59.1200  -18.8600 C.2    71  PRO71       0.2244
      4  O        -19.4830  -58.8160  -19.9890 O.2    71  PRO71      -0.2868
      5  CB       -18.0290  -59.1480  -17.0990 C.3    71  PRO71       0.0268
      6  CG       -16.7300  -59.3610  -17.7780 C.3    71  PRO71       0.0207
      7  CD       -16.7540  -60.7890  -18.2270 C.3    71  PRO71       0.0892
      8  N        -20.6390  -55.9940  -18.5660 N.3    73  GLU73      -0.1231
      9  CA       -19.9760  -54.7070  -18.7750 C.3    73  GLU73       0.1699
     10  C        -19.1310  -54.7140  -20.0380 C.2    73  GLU73       0.2592
     11  O        -19.1460  -53.7640  -20.8240 O.2    73  GLU73      -0.2718
     12  CB       -19.0690  -54.3650  -17.5890 C.3    73  GLU73       0.0402
     13  CG       -19.7270  -54.4580  -16.2230 C.3    73  GLU73       0.1161
     14  CD       -19.8370  -55.8900  -15.7110 C.2    73  GLU73       0.3649
     15  OE1      -20.6550  -56.6680  -16.2470 O.co2  73  GLU73      -0.2457
     16  OE2      -19.0950  -56.2400  -14.7670 O.co2  73  GLU73      -0.2457
     17  N        -18.3910  -55.7960  -20.2340 N.am   74  ASP74      -0.1974
     18  CA       -17.5340  -55.9030  -21.3970 C.3    74  ASP74       0.1709
     19  C        -18.3170  -56.0490  -22.6860 C.2    74  ASP74       0.2293
     20  O        -17.9550  -55.4550  -23.6950 O.2    74  ASP74      -0.2864
     21  CB       -16.5550  -57.0610  -21.2100 C.3    74  ASP74       0.1436
     22  CG       -15.5360  -56.7730  -20.1230 C.2    74  ASP74       0.3671
     23  OD1      -15.3270  -57.6340  -19.2450 O.co2  74  ASP74      -0.2456
     24  OD2      -14.9400  -55.6740  -20.1470 O.co2  74  ASP74      -0.2456
     25  N        -19.8670  -52.7400  -23.3410 N.3    77  ALA77      -0.1245
     26  CA       -18.7810  -51.8330  -23.6880 C.3    77  ALA77       0.1562
     27  C        -18.3890  -51.9810  -25.1450 C.2    77  ALA77       0.2260
     28  O        -18.1580  -50.9840  -25.8320 O.2    77  ALA77      -0.2867
     29  CB       -17.5900  -52.1010  -22.8240 C.3    77  ALA77       0.0290
     30  N        -18.5790  -49.0930  -28.0160 N.3    81  ILE81      -0.1245
     31  CA       -17.4100  -48.7550  -28.8260 C.3    81  ILE81       0.1561
     32  C        -17.7830  -48.8070  -30.3050 C.2    81  ILE81       0.2260
     33  O        -17.3300  -47.9870  -31.1020 O.2    81  ILE81      -0.2867
     34  CB       -16.2280  -49.7210  -28.5400 C.3    81  ILE81       0.0252
     35  CG1      -15.6820  -49.4590  -27.1390 C.3    81  ILE81       0.0019
     36  CG2      -15.1370  -49.5490  -29.5710 C.3    81  ILE81       0.0019
     37  CD1      -14.5040  -50.3350  -26.7510 C.3    81  ILE81       0.0001
     38  N        -10.7200  -57.3590  -28.0380 N.3   173  TYR173     -0.1241
     39  CA       -11.2580  -56.8680  -26.7920 C.3   173  TYR173      0.1605
     40  C        -10.9940  -58.0480  -25.8870 C.2   173  TYR173      0.2264
     41  O        -11.7020  -59.0450  -25.9310 O.2   173  TYR173     -0.2867
     42  CB       -12.7490  -56.5860  -26.8870 C.3   173  TYR173      0.0534
     43  CG       -13.3060  -55.9360  -25.6450 C.ar  173  TYR173     -0.0201
     44  CD1      -13.8500  -54.6660  -25.6890 C.ar  173  TYR173     -0.0009
     45  CD2      -13.2690  -56.5860  -24.4250 C.ar  173  TYR173     -0.0009
     46  CE1      -14.3530  -54.0710  -24.5610 C.ar  173  TYR173      0.0417
     47  CE2      -13.7700  -55.9990  -23.2940 C.ar  173  TYR173      0.0417
     48  CZ       -14.3100  -54.7400  -23.3660 C.ar  173  TYR173      0.1957
     49  OH       -14.8090  -54.1460  -22.2370 O.3   173  TYR173     -0.2866
     50  N         -5.2140  -59.1460  -19.6210 N.3   293  GLU293     -0.1245
     51  CA        -5.3450  -57.8880  -20.3500 C.3   293  GLU293      0.1567
     52  C         -4.0100  -57.7180  -21.0770 C.2   293  GLU293      0.2260
     53  O         -2.9860  -58.2320  -20.6270 O.2   293  GLU293     -0.2867
     54  CB        -5.5560  -56.7000  -19.3930 C.3   293  GLU293      0.0388
     55  CG        -6.7350  -56.8100  -18.3990 C.3   293  GLU293      0.1160
     56  CD        -8.1270  -56.7040  -19.0400 C.2   293  GLU293      0.3649
     57  OE1       -9.1300  -56.5490  -18.2990 O.co2 293  GLU293     -0.2457
     58  OE2       -8.2200  -56.7820  -20.2820 O.co2 293  GLU293     -0.2457
     59  N         -9.9100  -51.1080  -26.6740 N.3   304  ARG304     -0.1245
     60  CA       -10.2510  -50.1280  -25.6520 C.3   304  ARG304      0.1563
     61  C         -9.2140  -49.0210  -25.5630 C.2   304  ARG304      0.2260
     62  O         -9.4820  -47.9510  -25.0240 O.2   304  ARG304     -0.2867
     63  CB       -10.4190  -50.8020  -24.2920 C.3   304  ARG304      0.0307
     64  CG       -11.8040  -51.3640  -24.0840 C.3   304  ARG304      0.0489
     65  CD       -11.8350  -52.3190  -22.9200 C.3   304  ARG304      0.2205
     66  NE       -11.0440  -53.5060  -23.2250 N.pl3 304  ARG304     -0.0865
     67  CZ       -10.8890  -54.5370  -22.4050 C.cat 304  ARG304      0.5346
     68  NH1      -11.4750  -54.5300  -21.2190 N.pl3 304  ARG304      0.1354
     69  NH2      -10.1560  -55.5810  -22.7740 N.pl3 304  ARG304      0.1354
     70  N        -10.8380  -46.1550  -27.6830 N.3   307  TYR307     -0.1227
     71  CA       -12.1690  -45.5950  -27.4620 C.3   307  TYR307      0.1736
     72  C        -12.6230  -45.6810  -26.0190 C.2   307  TYR307      0.2595
     73  O        -12.7760  -46.7750  -25.4710 O.2   307  TYR307     -0.2718
     74  CB       -13.1970  -46.3190  -28.3300 C.3   307  TYR307      0.0548
     75  CG       -12.9960  -46.1800  -29.8190 C.ar  307  TYR307     -0.0200
     76  CD1      -13.4630  -45.0570  -30.5100 C.ar  307  TYR307     -0.0009
     77  CD2      -12.3660  -47.1850  -30.5440 C.ar  307  TYR307     -0.0009
     78  CE1      -13.3090  -44.9470  -31.9000 C.ar  307  TYR307      0.0417
     79  CE2      -12.2040  -47.0880  -31.9240 C.ar  307  TYR307      0.0417
     80  CZ       -12.6760  -45.9700  -32.5970 C.ar  307  TYR307      0.1957
     81  OH       -12.5020  -45.8860  -33.9590 O.3   307  TYR307     -0.2866
     82  N        -12.8400  -44.5310  -25.3990 N.am  308  LYS308     -0.1966
     83  CA       -13.3070  -44.5220  -24.0270 C.3   308  LYS308      0.1728
     84  C        -14.8250  -44.3970  -24.0740 C.2   308  LYS308      0.2616
     85  O        -15.3620  -43.4660  -24.6670 O.2   308  LYS308     -0.2715
     86  CB       -12.6920  -43.3530  -23.2500 C.3   308  LYS308      0.0311
     87  CG       -11.1710  -43.2990  -23.3100 C.3   308  LYS308      0.0038
     88  CD       -10.5320  -44.4430  -22.5380 C.3   308  LYS308      0.0206
     89  CE        -9.0180  -44.4400  -22.6560 C.3   308  LYS308      0.1093
     90  NZ        -8.5420  -45.1030  -23.9030 N.3   308  LYS308     -0.1314
     91  N        -15.5100  -45.3620  -23.4790 N.am  309  VAL309     -0.1977
     92  CA       -16.9670  -45.3580  -23.4260 C.3   309  VAL309      0.1596
     93  C        -17.3050  -45.5790  -21.9570 C.2   309  VAL309      0.2287
     94  O        -16.4710  -46.0890  -21.1980 O.2   309  VAL309     -0.2864
     95  CB       -17.5770  -46.5170  -24.2700 C.3   309  VAL309      0.0276
     96  CG1      -17.2550  -46.3290  -25.7440 C.3   309  VAL309      0.0022
     97  CG2      -17.0210  -47.8610  -23.7900 C.3   309  VAL309      0.0022
     98  N        -19.9900  -47.5050  -19.6780 N.3   311  VAL311     -0.1245
     99  CA       -21.1030  -48.4390  -19.5850 C.3   311  VAL311      0.1561
    100  C        -22.0400  -48.0650  -18.4490 C.2   311  VAL311      0.2260
    101  O        -21.6010  -47.8370  -17.3260 O.2   311  VAL311     -0.2867
    102  CB       -20.5920  -49.8820  -19.3550 C.3   311  VAL311      0.0252
    103  CG1      -21.7570  -50.8120  -19.0770 C.3   311  VAL311      0.0019
    104  CG2      -19.8190  -50.3560  -20.5800 C.3   311  VAL311      0.0019
@<TRIPOS>BOND
     1    81    80    1
     2    80    79   ar
     3    80    78   ar
     4    79    77   ar
     5    78    76   ar
     6    33    32    2
     7    77    75   ar
     8    76    75   ar
     9    32    31    1
    10    75    74    1
    11    36    34    1
    12    31    34    1
    13    31    30    1
    14    34    35    1
    15    74    71    1
    16    38    39    1
    17    70    71    1
    18    71    72    1
    19    35    37    1
    20    42    39    1
    21    42    43    1
    22    39    40    1
    23    59    60    1
    24    72    73    2
    25    72    82   am
    26    41    40    2
    27    28    27    2
    28    96    95    1
    29    44    43   ar
    30    44    46   ar
    31    60    61    1
    32    60    63    1
    33    43    45   ar
    34    61    62    2
    35    82    83    1
    36    27    26    1
    37    85    84    2
    38    46    48   ar
    39    45    47   ar
    40    63    64    1
    41    95    97    1
    42    95    92    1
    43    64    65    1
    44    84    83    1
    45    84    91   am
    46    83    86    1
    47    90    89    1
    48    20    19    2
    49    26    25    1
    50    26    29    1
    51    91    92    1
    52    92    93    1
    53    48    47   ar
    54    48    49    1
    55    87    86    1
    56    87    88    1
    57    66    65    1
    58    66    67    2
    59    69    67    1
    60    19    18    1
    61    89    88    1
    62    67    68    1
    63    93    94    2
    64    18    21    1
    65    18    17    1
    66    21    22    1
    67    52    53    2
    68    52    51    1
    69    11    10    2
    70   104   102    1
    71    51    50    1
    72    51    54    1
    73    58    56   ar
    74    17    10   am
    75    24    22   ar
    76    22    23   ar
    77    10     9    1
    78     4     3    2
    79    98    99    1
    80    99   102    1
    81    99   100    1
    82    54    55    1
    83   102   103    1
    84    56    55    1
    85    56    57   ar
    86     3     2    1
    87     9     8    1
    88     9    12    1
    89     1     7    1
    90     1     2    1
    91   100   101    2
    92     7     6    1
    93     2     5    1
    94     6     5    1
    95    12    13    1
    96    15    14   ar
    97    13    14    1
    98    14    16   ar
