@<TRIPOS>MOLECULE
tmp/3vyrB04.pdb
 108 108 0 0 0
SMALL
GASTEIGER

@<TRIPOS>ATOM
      1  N         -9.1240  -93.1790  -36.2390 N.3     2  GLU2       -0.1231
      2  CA        -8.4670  -92.3730  -35.2140 C.3     2  GLU2        0.1684
      3  C         -7.7020  -93.2460  -34.2320 C.2     2  GLU2        0.2434
      4  O         -8.2110  -94.2520  -33.7460 O.2     2  GLU2       -0.2733
      5  CB        -9.5040  -91.5540  -34.4590 C.3     2  GLU2        0.0402
      6  CG       -10.6760  -91.1680  -35.3180 C.3     2  GLU2        0.1161
      7  CD       -11.3710  -89.9410  -34.8050 C.2     2  GLU2        0.3649
      8  OE1      -11.6440  -89.8890  -33.5830 O.co2   2  GLU2       -0.2457
      9  OE2      -11.6410  -89.0350  -35.6270 O.co2   2  GLU2       -0.2457
     10  N         -6.4610  -92.8710  -33.9200 N.am    3  PRO3       -0.2718
     11  CA        -5.7240  -93.7100  -32.9790 C.3     3  PRO3        0.1535
     12  C         -6.4170  -93.7610  -31.6160 C.2     3  PRO3        0.2598
     13  O         -7.4320  -93.0790  -31.3920 O.2     3  PRO3       -0.2715
     14  CB        -4.3590  -93.0380  -32.9300 C.3     3  PRO3        0.0310
     15  CG        -4.6980  -91.5840  -33.1470 C.3     3  PRO3        0.0237
     16  CD        -5.7110  -91.6480  -34.2550 C.3     3  PRO3        0.0939
     17  N         -5.8780  -94.5990  -30.7300 N.am    4  PHE4       -0.1974
     18  CA        -6.3900  -94.7630  -29.3690 C.3     4  PHE4        0.1639
     19  C         -7.8240  -95.3030  -29.2320 C.2     4  PHE4        0.2290
     20  O         -8.5910  -94.8340  -28.3890 O.2     4  PHE4       -0.2864
     21  CB        -6.2680  -93.4240  -28.6320 C.3     4  PHE4        0.0560
     22  CG        -4.8600  -92.9180  -28.5380 C.ar    4  PHE4       -0.0200
     23  CD1       -3.9840  -93.4290  -27.5800 C.ar    4  PHE4       -0.0042
     24  CD2       -4.3970  -91.9440  -29.4220 C.ar    4  PHE4       -0.0042
     25  CE1       -2.6640  -92.9750  -27.5050 C.ar    4  PHE4       -0.0003
     26  CE2       -3.0860  -91.4860  -29.3550 C.ar    4  PHE4       -0.0003
     27  CZ        -2.2160  -92.0010  -28.3960 C.ar    4  PHE4       -0.0000
     28  N         -9.7090  -95.9720  -25.8140 N.3     7  TYR7       -0.1227
     29  CA       -10.3110  -94.8700  -25.0710 C.3     7  TYR7        0.1736
     30  C        -11.7400  -94.5240  -25.4720 C.2     7  TYR7        0.2595
     31  O        -12.3700  -93.6620  -24.8520 O.2     7  TYR7       -0.2718
     32  CB        -9.4200  -93.6260  -25.1570 C.3     7  TYR7        0.0548
     33  CG        -8.1930  -93.7220  -24.2820 C.ar    7  TYR7       -0.0200
     34  CD1       -8.2500  -93.4090  -22.9220 C.ar    7  TYR7       -0.0009
     35  CD2       -6.9800  -94.1660  -24.8050 C.ar    7  TYR7       -0.0009
     36  CE1       -7.1190  -93.5390  -22.1030 C.ar    7  TYR7        0.0417
     37  CE2       -5.8510  -94.2940  -24.0000 C.ar    7  TYR7        0.0417
     38  CZ        -5.9260  -93.9820  -22.6550 C.ar    7  TYR7        0.1957
     39  OH        -4.8020  -94.1270  -21.8790 O.3     7  TYR7       -0.2866
     40  N        -12.2560  -95.1750  -26.5080 N.am    8  ARG8       -0.1980
     41  CA       -13.6360  -94.9220  -26.8940 C.3     8  ARG8        0.1597
     42  C        -14.4430  -96.1990  -27.0650 C.2     8  ARG8        0.2287
     43  O        -15.5220  -96.1880  -27.6500 O.2     8  ARG8       -0.2864
     44  CB       -13.7170  -94.0550  -28.1550 C.3     8  ARG8        0.0334
     45  CG       -12.8010  -94.4260  -29.2780 C.3     8  ARG8        0.0492
     46  CD       -12.8570  -93.3490  -30.3640 C.3     8  ARG8        0.2205
     47  NE       -11.6930  -93.4310  -31.2350 N.pl3   8  ARG8       -0.0865
     48  CZ       -11.5350  -94.3490  -32.1770 C.cat   8  ARG8        0.5346
     49  NH1      -12.4750  -95.2610  -32.3910 N.pl3   8  ARG8        0.1354
     50  NH2      -10.4190  -94.3810  -32.8790 N.pl3   8  ARG8        0.1354
     51  N         -7.9760  -79.9560  -22.2910 N.3   201  HIS201     -0.1241
     52  CA        -7.3930  -79.0420  -23.2620 C.3   201  HIS201      0.1621
     53  C         -6.6430  -77.8820  -22.6650 C.2   201  HIS201      0.2264
     54  O         -5.6160  -77.4680  -23.1950 O.2   201  HIS201     -0.2867
     55  CB        -8.4630  -78.5940  -24.2440 C.3   201  HIS201      0.0745
     56  CG        -8.8160  -79.6670  -25.2220 C.ar  201  HIS201      0.0817
     57  ND1       -9.8680  -79.5670  -26.1040 N.ar  201  HIS201     -0.2268
     58  CD2       -8.2410  -80.8720  -25.4520 C.ar  201  HIS201      0.1154
     59  CE1       -9.9270  -80.6670  -26.8350 C.ar  201  HIS201      0.1986
     60  NE2       -8.9510  -81.4750  -26.4580 N.ar  201  HIS201     -0.2212
     61  N        -11.2880  -86.1760  -23.2490 N.3   227  PHE227     -0.1227
     62  CA       -12.7220  -85.9660  -23.4220 C.3   227  PHE227      0.1736
     63  C        -13.5780  -87.1280  -23.9250 C.2   227  PHE227      0.2595
     64  O        -14.7530  -86.9470  -24.2150 O.2   227  PHE227     -0.2718
     65  CB       -12.9570  -84.6900  -24.2270 C.3   227  PHE227      0.0547
     66  CG       -12.3130  -83.4880  -23.6120 C.ar  227  PHE227     -0.0202
     67  CD1      -11.0170  -83.1410  -23.9360 C.ar  227  PHE227     -0.0042
     68  CD2      -12.9820  -82.7380  -22.6660 C.ar  227  PHE227     -0.0042
     69  CE1      -10.4170  -82.0550  -23.3530 C.ar  227  PHE227     -0.0003
     70  CE2      -12.3840  -81.6500  -22.0820 C.ar  227  PHE227     -0.0003
     71  CZ       -11.1020  -81.3090  -22.4250 C.ar  227  PHE227     -0.0000
     72  N        -13.0000  -88.3160  -24.0140 N.am  228  GLU228     -0.1979
     73  CA       -13.7560  -89.4770  -24.4470 C.3   228  GLU228      0.1602
     74  C        -14.4550  -89.9630  -23.1970 C.2   228  GLU228      0.2287
     75  O        -13.9730  -89.7100  -22.1020 O.2   228  GLU228     -0.2864
     76  CB       -12.8220  -90.5600  -24.9720 C.3   228  GLU228      0.0415
     77  CG       -12.0190  -90.1530  -26.1810 C.3   228  GLU228      0.1163
     78  CD       -12.8710  -90.0100  -27.4150 C.2   228  GLU228      0.3649
     79  OE1      -13.9930  -90.5450  -27.4280 O.co2 228  GLU228     -0.2457
     80  OE2      -12.4190  -89.3640  -28.3750 O.co2 228  GLU228     -0.2457
     81  N         -4.5420  -88.0500  -19.1700 N.3   254  TYR254     -0.1241
     82  CA        -4.5270  -87.5750  -20.5470 C.3   254  TYR254      0.1605
     83  C         -3.0890  -87.4320  -21.0640 C.2   254  TYR254      0.2264
     84  O         -2.7820  -86.6050  -21.9290 O.2   254  TYR254     -0.2867
     85  CB        -5.2640  -86.2360  -20.5980 C.3   254  TYR254      0.0534
     86  CG        -5.7710  -85.8110  -21.9540 C.ar  254  TYR254     -0.0201
     87  CD1       -6.0460  -84.4680  -22.2110 C.ar  254  TYR254     -0.0009
     88  CD2       -5.9990  -86.7400  -22.9700 C.ar  254  TYR254     -0.0009
     89  CE1       -6.5260  -84.0560  -23.4310 C.ar  254  TYR254      0.0417
     90  CE2       -6.4810  -86.3370  -24.2060 C.ar  254  TYR254      0.0417
     91  CZ        -6.7420  -84.9890  -24.4310 C.ar  254  TYR254      0.1957
     92  OH        -7.2070  -84.5610  -25.6540 O.3   254  TYR254     -0.2866
     93  N         -1.3690  -88.8690  -23.1440 N.3   256  ARG256     -0.1231
     94  CA        -1.1860  -88.8660  -24.5870 C.3   256  ARG256      0.1694
     95  C         -1.2730  -87.4960  -25.2500 C.2   256  ARG256      0.2591
     96  O         -0.8250  -87.3290  -26.3770 O.2   256  ARG256     -0.2718
     97  CB        -2.1900  -89.8160  -25.2470 C.3   256  ARG256      0.0321
     98  CG        -3.6430  -89.3380  -25.2620 C.3   256  ARG256      0.0489
     99  CD        -4.5390  -90.5000  -25.6820 C.3   256  ARG256      0.2205
    100  NE        -5.9440  -90.1420  -25.8250 N.pl3 256  ARG256     -0.0865
    101  CZ        -6.8040  -90.0030  -24.8240 C.cat 256  ARG256      0.5346
    102  NH1       -6.4190  -90.1890  -23.5650 N.pl3 256  ARG256      0.1354
    103  NH2       -8.0680  -89.7010  -25.0910 N.pl3 256  ARG256      0.1354
    104  N         -1.8410  -86.5160  -24.5580 N.am  257  ALA257     -0.1980
    105  CA        -1.9780  -85.1910  -25.1380 C.3   257  ALA257      0.1597
    106  C         -1.4110  -84.1010  -24.2570 C.2   257  ALA257      0.2287
    107  O         -1.1850  -82.9890  -24.7110 O.2   257  ALA257     -0.2864
    108  CB        -3.4480  -84.9010  -25.4130 C.3   257  ALA257      0.0319
@<TRIPOS>BOND
     1     1     2    1
     2     9     7   ar
     3     6     7    1
     4     6     5    1
     5     2     5    1
     6     2     3    1
     7     7     8   ar
     8    16    10    1
     9    16    15    1
    10     3    10   am
    11     3     4    2
    12    10    11    1
    13    15    14    1
    14    11    14    1
    15    11    12    1
    16    50    48    1
    17    49    48    1
    18    48    47    2
    19    12    13    2
    20    12    17   am
    21    47    46    1
    22    17    18    1
    23    46    45    1
    24    24    26   ar
    25    24    22   ar
    26    18    19    1
    27    18    21    1
    28    26    27   ar
    29    45    44    1
    30    19    20    2
    31    21    22    1
    32    22    23   ar
    33    27    25   ar
    34    80    78   ar
    35    44    41    1
    36    43    42    2
    37    23    25   ar
    38    79    78   ar
    39    78    77    1
    40    42    41    1
    41    41    40    1
    42    59    60   ar
    43    59    57   ar
    44    40    30   am
    45    60    58   ar
    46    96    95    2
    47    77    76    1
    48    57    56   ar
    49   100    99    1
    50   100   101    2
    51    28    29    1
    52    99    98    1
    53    92    91    1
    54    30    29    1
    55    30    31    2
    56    58    56   ar
    57   108   105    1
    58    98    97    1
    59    95    94    1
    60    95   104   am
    61    97    94    1
    62    56    55    1
    63    32    29    1
    64    32    33    1
    65   105   104    1
    66   105   106    1
    67   103   101    1
    68    76    73    1
    69   101   102    1
    70    35    33   ar
    71    35    37   ar
    72   107   106    2
    73    94    93    1
    74    73    72    1
    75    73    74    1
    76    91    90   ar
    77    91    89   ar
    78    33    34   ar
    79    55    52    1
    80    65    66    1
    81    65    62    1
    82    64    63    2
    83    90    88   ar
    84    72    63   am
    85    37    38   ar
    86    67    66   ar
    87    67    69   ar
    88    63    62    1
    89    66    68   ar
    90    89    87   ar
    91    62    61    1
    92    69    71   ar
    93    52    53    1
    94    52    51    1
    95    74    75    2
    96    54    53    2
    97    88    86   ar
    98    34    36   ar
    99    68    70   ar
   100    38    36   ar
   101    38    39    1
   102    71    70   ar
   103    87    86   ar
   104    86    85    1
   105    84    83    2
   106    83    82    1
   107    85    82    1
   108    82    81    1
