@<TRIPOS>MOLECULE
tmp/3vyrB00.pdb
 99 99 0 0 0
SMALL
GASTEIGER

@<TRIPOS>ATOM
      1  N        -16.2030  -70.3280  -20.7430 N.3    66  PRO66      -0.2102
      2  CA       -15.6650  -68.9770  -20.9320 C.3    66  PRO66       0.1504
      3  C        -16.6320  -67.8920  -21.4060 C.2    66  PRO66       0.2575
      4  O        -16.5330  -66.7450  -20.9670 O.2    66  PRO66      -0.2718
      5  CB       -14.4940  -69.2000  -21.8920 C.3    66  PRO66       0.0282
      6  CG       -14.8850  -70.4250  -22.6330 C.3    66  PRO66       0.0208
      7  CD       -15.4570  -71.3000  -21.5590 C.3    66  PRO66       0.0893
      8  N        -17.5580  -68.2390  -22.2960 N.am   67  VAL67      -0.1980
      9  CA       -18.5240  -67.2560  -22.7760 C.3    67  VAL67       0.1595
     10  C        -19.5130  -66.9230  -21.6580 C.2    67  VAL67       0.2287
     11  O        -19.7750  -65.7550  -21.3850 O.2    67  VAL67      -0.2864
     12  CB       -19.2890  -67.7740  -24.0220 C.3    67  VAL67       0.0276
     13  CG1      -20.4010  -66.8210  -24.3910 C.3    67  VAL67       0.0022
     14  CG2      -18.3330  -67.9020  -25.1960 C.3    67  VAL67       0.0022
     15  N        -17.4690  -65.3320  -31.5910 N.3    97  PHE97      -0.1227
     16  CA       -17.8210  -66.7240  -31.7390 C.3    97  PHE97       0.1736
     17  C        -19.3360  -66.7730  -31.8830 C.2    97  PHE97       0.2596
     18  O        -20.0290  -65.8340  -31.4960 O.2    97  PHE97      -0.2718
     19  CB       -17.3470  -67.5140  -30.5220 C.3    97  PHE97       0.0547
     20  CG       -15.8530  -67.6090  -30.4200 C.ar   97  PHE97      -0.0202
     21  CD1      -15.1740  -67.0200  -29.3600 C.ar   97  PHE97      -0.0042
     22  CD2      -15.1180  -68.2630  -31.4100 C.ar   97  PHE97      -0.0042
     23  CE1      -13.7830  -67.0720  -29.2830 C.ar   97  PHE97      -0.0003
     24  CE2      -13.7240  -68.3250  -31.3450 C.ar   97  PHE97      -0.0003
     25  CZ       -13.0550  -67.7240  -30.2750 C.ar   97  PHE97      -0.0000
     26  N        -19.8390  -67.8620  -32.4530 N.am   98  GLY98      -0.1942
     27  CA       -21.2670  -68.0070  -32.6680 C.3    98  GLY98       0.2014
     28  C        -22.1510  -67.8720  -31.4450 C.2    98  GLY98       0.2638
     29  O        -23.1750  -67.2000  -31.5050 O.2    98  GLY98      -0.2714
     30  N        -21.7870  -68.5120  -30.3380 N.am   99  ASP99      -0.1971
     31  CA       -22.6190  -68.4030  -29.1470 C.3    99  ASP99       0.1709
     32  C        -22.5220  -67.0210  -28.4890 C.2    99  ASP99       0.2293
     33  O        -23.5330  -66.4660  -28.0540 O.2    99  ASP99      -0.2864
     34  CB       -22.3000  -69.5250  -28.1440 C.3    99  ASP99       0.1436
     35  CG       -20.8220  -69.6220  -27.8010 C.2    99  ASP99       0.3671
     36  OD1      -20.0150  -68.8500  -28.3690 O.co2  99  ASP99      -0.2456
     37  OD2      -20.4730  -70.4850  -26.9570 O.co2  99  ASP99      -0.2456
     38  N        -14.7780  -68.7360  -36.2890 N.3   124  TYR124     -0.1241
     39  CA       -14.5120  -69.9470  -35.5320 C.3   124  TYR124      0.1605
     40  C        -13.1950  -69.8560  -34.7930 C.2   124  TYR124      0.2264
     41  O        -12.9070  -70.6720  -33.9300 O.2   124  TYR124     -0.2867
     42  CB       -14.5410  -71.1750  -36.4380 C.3   124  TYR124      0.0534
     43  CG       -15.9060  -71.4420  -37.0110 C.ar  124  TYR124     -0.0201
     44  CD1      -16.0930  -71.5910  -38.3740 C.ar  124  TYR124     -0.0009
     45  CD2      -17.0170  -71.5170  -36.1880 C.ar  124  TYR124     -0.0009
     46  CE1      -17.3450  -71.8240  -38.8960 C.ar  124  TYR124      0.0417
     47  CE2      -18.2680  -71.7460  -36.7000 C.ar  124  TYR124      0.0417
     48  CZ       -18.4290  -71.8980  -38.0540 C.ar  124  TYR124      0.1957
     49  OH       -19.6840  -72.1290  -38.5660 O.3   124  TYR124     -0.2866
     50  N        -12.8980  -63.8030  -25.8490 N.3   146  PRO146     -0.2102
     51  CA       -13.1400  -64.4530  -24.5660 C.3   146  PRO146      0.1504
     52  C        -12.3990  -65.7770  -24.6070 C.2   146  PRO146      0.2576
     53  O        -11.8340  -66.0930  -25.6440 O.2   146  PRO146     -0.2718
     54  CB       -14.6400  -64.7020  -24.5940 C.3   146  PRO146      0.0282
     55  CG       -14.9380  -64.9030  -26.0130 C.3   146  PRO146      0.0208
     56  CD       -14.0340  -63.9800  -26.7660 C.3   146  PRO146      0.0893
     57  N        -12.3940  -66.5430  -23.5270 N.am  147  GLY147     -0.1943
     58  CA       -11.6820  -67.8130  -23.5620 C.3   147  GLY147      0.2014
     59  C        -10.6820  -68.1200  -22.4600 C.2   147  GLY147      0.2638
     60  O        -10.0730  -67.2220  -21.8660 O.2   147  GLY147     -0.2714
     61  N        -10.5290  -69.4090  -22.1730 N.am  148  PHE148     -0.1973
     62  CA        -9.5670  -69.8550  -21.1750 C.3   148  PHE148      0.1639
     63  C         -8.2040  -70.0400  -21.8560 C.2   148  PHE148      0.2290
     64  O         -7.9730  -69.5840  -22.9770 O.2   148  PHE148     -0.2864
     65  CB       -10.0390  -71.1580  -20.5110 C.3   148  PHE148      0.0560
     66  CG       -11.2560  -70.9840  -19.6510 C.ar  148  PHE148     -0.0200
     67  CD1      -12.2140  -71.9810  -19.5660 C.ar  148  PHE148     -0.0042
     68  CD2      -11.4610  -69.8000  -18.9390 C.ar  148  PHE148     -0.0042
     69  CE1      -13.3720  -71.8070  -18.7880 C.ar  148  PHE148     -0.0003
     70  CE2      -12.6070  -69.6140  -18.1630 C.ar  148  PHE148     -0.0003
     71  CZ       -13.5660  -70.6220  -18.0890 C.ar  148  PHE148     -0.0000
     72  N         -7.8700  -71.0210  -25.6260 N.3   151  THR151     -0.1218
     73  CA        -8.2620  -70.0790  -26.6550 C.3   151  THR151      0.1862
     74  C         -7.3550  -68.8730  -26.6430 C.2   151  THR151      0.2287
     75  O         -7.1670  -68.2120  -27.6660 O.2   151  THR151     -0.2866
     76  CB        -9.7170  -69.6600  -26.4630 C.3   151  THR151      0.1770
     77  OG1      -10.5270  -70.8330  -26.5470 O.3   151  THR151     -0.2211
     78  CG2      -10.1590  -68.6810  -27.5460 C.3   151  THR151      0.0375
     79  N        -22.3920  -72.7150  -26.1000 N.3   357  TYR357     -0.1227
     80  CA       -22.1940  -74.0810  -26.5730 C.3   357  TYR357      0.1736
     81  C        -21.7360  -74.9440  -25.3850 C.2   357  TYR357      0.2595
     82  O        -22.1920  -76.0740  -25.2200 O.2   357  TYR357     -0.2718
     83  CB       -21.1280  -74.1040  -27.6780 C.3   357  TYR357      0.0548
     84  CG       -21.4870  -73.2850  -28.9000 C.ar  357  TYR357     -0.0200
     85  CD1      -20.5330  -72.4860  -29.5370 C.ar  357  TYR357     -0.0009
     86  CD2      -22.7660  -73.3440  -29.4560 C.ar  357  TYR357     -0.0009
     87  CE1      -20.8440  -71.7700  -30.7000 C.ar  357  TYR357      0.0417
     88  CE2      -23.0830  -72.6370  -30.6180 C.ar  357  TYR357      0.0417
     89  CZ       -22.1170  -71.8580  -31.2310 C.ar  357  TYR357      0.1957
     90  OH       -22.4200  -71.1900  -32.3890 O.3   357  TYR357     -0.2866
     91  N        -20.8490  -74.3840  -24.5630 N.am  358  GLU358     -0.1979
     92  CA       -20.3030  -75.0560  -23.3830 C.3   358  GLU358      0.1602
     93  C        -21.2070  -74.9110  -22.1490 C.2   358  GLU358      0.2287
     94  O        -20.8740  -75.4060  -21.0780 O.2   358  GLU358     -0.2864
     95  CB       -18.9390  -74.4600  -23.0170 C.3   358  GLU358      0.0415
     96  CG       -17.8880  -74.3940  -24.1070 C.3   358  GLU358      0.1163
     97  CD       -16.9930  -75.5930  -24.0880 C.2   358  GLU358      0.3649
     98  OE1      -17.4330  -76.6470  -24.5870 O.co2 358  GLU358     -0.2457
     99  OE2      -15.8610  -75.4880  -23.5590 O.co2 358  GLU358     -0.2457
@<TRIPOS>BOND
     1    46    44   ar
     2    46    48   ar
     3    49    48    1
     4    44    43   ar
     5    48    47   ar
     6    43    42    1
     7    43    45   ar
     8    47    45   ar
     9    42    39    1
    10    38    39    1
    11    39    40    1
    12    40    41    2
    13    27    26    1
    14    27    28    1
    15    26    17   am
    16    90    89    1
    17    17    16    1
    18    17    18    2
    19    16    15    1
    20    16    19    1
    21    29    28    2
    22    28    30   am
    23    22    24   ar
    24    22    20   ar
    25    24    25   ar
    26    89    87   ar
    27    89    88   ar
    28    87    85   ar
    29    88    86   ar
    30    19    20    1
    31    20    21   ar
    32    30    31    1
    33    25    23   ar
    34    85    84   ar
    35    86    84   ar
    36    21    23   ar
    37    31    32    1
    38    31    34    1
    39    84    83    1
    40    32    33    2
    41    36    35   ar
    42    34    35    1
    43    35    37   ar
    44    83    80    1
    45    75    74    2
    46    78    76    1
    47    56    55    1
    48    56    50    1
    49    73    74    1
    50    73    76    1
    51    73    72    1
    52    80    79    1
    53    80    81    1
    54    77    76    1
    55    55    54    1
    56    50    51    1
    57    53    52    2
    58    81    82    2
    59    81    91   am
    60    14    12    1
    61    52    51    1
    62    52    57   am
    63    54    51    1
    64    98    97   ar
    65    91    92    1
    66    13    12    1
    67    96    97    1
    68    96    95    1
    69    97    99   ar
    70    12     9    1
    71    58    57    1
    72    58    59    1
    73    92    95    1
    74    92    93    1
    75    64    63    2
    76     9     8    1
    77     9    10    1
    78     6     5    1
    79     6     7    1
    80    59    61   am
    81    59    60    2
    82     8     3   am
    83    61    62    1
    84    93    94    2
    85     5     2    1
    86    63    62    1
    87    10    11    2
    88     7     1    1
    89     3     4    2
    90     3     2    1
    91    62    65    1
    92     2     1    1
    93    65    66    1
    94    66    67   ar
    95    66    68   ar
    96    67    69   ar
    97    68    70   ar
    98    69    71   ar
    99    70    71   ar
