@<TRIPOS>MOLECULE
tmp/3vyrB02.pdb
 104 99 0 0 0
SMALL
GASTEIGER

@<TRIPOS>ATOM
      1  N        -14.2580  -78.6980  -14.6200 N.3    36  VAL36      -0.1231
      2  CA       -14.4510  -77.3210  -15.0360 C.3    36  VAL36       0.1692
      3  C        -14.2450  -77.2170  -16.5260 C.2    36  VAL36       0.2592
      4  O        -13.4480  -76.4150  -16.9960 O.2    36  VAL36      -0.2718
      5  CB       -13.4720  -76.3770  -14.3390 C.3    36  VAL36       0.0266
      6  CG1      -13.9530  -76.0510  -12.9480 C.3    36  VAL36       0.0020
      7  CG2      -12.0940  -76.9900  -14.2990 C.3    36  VAL36       0.0020
      8  N        -14.9650  -78.0370  -17.2750 N.am   37  CYS37      -0.1970
      9  CA       -14.8230  -78.0120  -18.7180 C.3    37  CYS37       0.1712
     10  C        -16.1430  -78.3620  -19.3950 C.2    37  CYS37       0.2296
     11  O        -16.7030  -79.4410  -19.1760 O.2    37  CYS37      -0.2864
     12  CB       -13.7310  -79.0030  -19.1230 C.3    37  CYS37       0.0983
     13  SG       -13.2060  -78.8470  -20.8160 S.3    37  CYS37      -0.0798
     14  N        -16.7290  -79.2520  -22.3170 N.3    39  THR39      -0.1218
     15  CA       -16.6000  -80.4390  -23.1400 C.3    39  THR39       0.1862
     16  C        -16.7470  -81.6880  -22.2660 C.2    39  THR39       0.2287
     17  O        -17.2830  -82.7100  -22.7070 O.2    39  THR39      -0.2866
     18  CB       -15.2570  -80.4410  -23.8760 C.3    39  THR39       0.1770
     19  OG1      -15.0840  -79.1770  -24.5420 O.3    39  THR39      -0.2211
     20  CG2      -15.2190  -81.5640  -24.9080 C.3    39  THR39       0.0375
     21  N        -16.6770  -74.1460  -16.2620 N.3    64  GLY64      -0.1225
     22  CA       -15.9550  -74.4040  -17.4960 C.3    64  GLY64       0.1811
     23  C        -16.6810  -73.9480  -18.7510 C.2    64  GLY64       0.2280
     24  O        -16.9280  -74.7430  -19.6620 O.2    64  GLY64      -0.2866
     25  N        -16.2030  -70.3280  -20.7430 N.3    66  PRO66      -0.2116
     26  CA       -15.6650  -68.9770  -20.9320 C.3    66  PRO66       0.1372
     27  C        -16.6320  -67.8920  -21.4060 C.2    66  PRO66       0.2244
     28  O        -16.5330  -66.7450  -20.9670 O.2    66  PRO66      -0.2868
     29  CB       -14.4940  -69.2000  -21.8920 C.3    66  PRO66       0.0268
     30  CG       -14.8850  -70.4250  -22.6330 C.3    66  PRO66       0.0207
     31  CD       -15.4570  -71.3000  -21.5590 C.3    66  PRO66       0.0892
     32  N        -12.3940  -66.5430  -23.5270 N.3   147  GLY147     -0.1210
     33  CA       -11.6820  -67.8130  -23.5620 C.3   147  GLY147      0.1956
     34  C        -10.6820  -68.1200  -22.4600 C.2   147  GLY147      0.2611
     35  O        -10.0730  -67.2220  -21.8660 O.2   147  GLY147     -0.2717
     36  N        -10.5290  -69.4090  -22.1730 N.am  148  PHE148     -0.1976
     37  CA        -9.5670  -69.8550  -21.1750 C.3   148  PHE148      0.1639
     38  C         -8.2040  -70.0400  -21.8560 C.2   148  PHE148      0.2290
     39  O         -7.9730  -69.5840  -22.9770 O.2   148  PHE148     -0.2864
     40  CB       -10.0390  -71.1580  -20.5110 C.3   148  PHE148      0.0560
     41  CG       -11.2560  -70.9840  -19.6510 C.ar  148  PHE148     -0.0200
     42  CD1      -12.2140  -71.9810  -19.5660 C.ar  148  PHE148     -0.0042
     43  CD2      -11.4610  -69.8000  -18.9390 C.ar  148  PHE148     -0.0042
     44  CE1      -13.3720  -71.8070  -18.7880 C.ar  148  PHE148     -0.0003
     45  CE2      -12.6070  -69.6140  -18.1630 C.ar  148  PHE148     -0.0003
     46  CZ       -13.5660  -70.6220  -18.0890 C.ar  148  PHE148     -0.0000
     47  N         -6.7590  -72.3860  -23.4920 N.3   150  THR150     -0.1203
     48  CA        -6.7760  -73.0240  -24.8090 C.3   150  THR150      0.1994
     49  C         -7.1280  -72.0730  -25.9400 C.2   150  THR150      0.2618
     50  O         -6.7440  -72.2920  -27.0890 O.2   150  THR150     -0.2717
     51  CB        -7.7990  -74.1840  -24.8680 C.3   150  THR150      0.1784
     52  OG1       -7.8430  -74.8560  -23.6070 O.3   150  THR150     -0.2211
     53  CG2       -7.4190  -75.1800  -25.9470 C.3   150  THR150      0.0376
     54  N         -7.8700  -71.0210  -25.6260 N.am  151  THR151     -0.1952
     55  CA        -8.2620  -70.0790  -26.6550 C.3   151  THR151      0.1897
     56  C         -7.3550  -68.8730  -26.6430 C.2   151  THR151      0.2313
     57  O         -7.1670  -68.2120  -27.6660 O.2   151  THR151     -0.2863
     58  CB        -9.7170  -69.6600  -26.4630 C.3   151  THR151      0.1794
     59  OG1      -10.5270  -70.8330  -26.5470 O.3   151  THR151     -0.2208
     60  CG2      -10.1590  -68.6810  -27.5460 C.3   151  THR151      0.0378
     61  N         -9.3600  -79.8290  -16.5010 N.3   199  PRO199     -0.2116
     62  CA        -9.6600  -79.7230  -17.9370 C.3   199  PRO199      0.1372
     63  C         -8.5290  -80.1690  -18.8570 C.2   199  PRO199      0.2244
     64  O         -7.4150  -79.6300  -18.8190 O.2   199  PRO199     -0.2868
     65  CB       -10.0340  -78.2450  -18.1110 C.3   199  PRO199      0.0268
     66  CG        -9.2470  -77.5610  -17.0490 C.3   199  PRO199      0.0207
     67  CD        -9.3770  -78.5060  -15.8570 C.3   199  PRO199      0.0892
     68  N         -7.9760  -79.9560  -22.2910 N.3   201  HIS201     -0.1226
     69  CA        -7.3930  -79.0420  -23.2620 C.3   201  HIS201      0.1752
     70  C         -6.6430  -77.8820  -22.6650 C.2   201  HIS201      0.2595
     71  O         -5.6160  -77.4680  -23.1950 O.2   201  HIS201     -0.2718
     72  CB        -8.4630  -78.5940  -24.2440 C.3   201  HIS201      0.0759
     73  CG        -8.8160  -79.6670  -25.2220 C.ar  201  HIS201      0.0818
     74  ND1       -9.8680  -79.5670  -26.1040 N.ar  201  HIS201     -0.2268
     75  CD2       -8.2410  -80.8720  -25.4520 C.ar  201  HIS201      0.1154
     76  CE1       -9.9270  -80.6670  -26.8350 C.ar  201  HIS201      0.1986
     77  NE2       -8.9510  -81.4750  -26.4580 N.ar  201  HIS201     -0.2212
     78  N         -7.1430  -77.3700  -21.5500 N.am  202  VAL202     -0.1980
     79  CA        -6.4580  -76.2970  -20.8620 C.3   202  VAL202      0.1595
     80  C         -5.1000  -76.8510  -20.3880 C.2   202  VAL202      0.2287
     81  O         -4.0860  -76.1510  -20.4180 O.2   202  VAL202     -0.2864
     82  CB        -7.2830  -75.8200  -19.6420 C.3   202  VAL202      0.0276
     83  CG1       -6.3890  -75.1150  -18.6450 C.3   202  VAL202      0.0022
     84  CG2       -8.3810  -74.8920  -20.0940 C.3   202  VAL202      0.0022
     85  N        -11.2880  -86.1760  -23.2490 N.3   227  PHE227     -0.1241
     86  CA       -12.7220  -85.9660  -23.4220 C.3   227  PHE227      0.1605
     87  C        -13.5780  -87.1280  -23.9250 C.2   227  PHE227      0.2264
     88  O        -14.7530  -86.9470  -24.2150 O.2   227  PHE227     -0.2867
     89  CB       -12.9570  -84.6900  -24.2270 C.3   227  PHE227      0.0534
     90  CG       -12.3130  -83.4880  -23.6120 C.ar  227  PHE227     -0.0203
     91  CD1      -11.0170  -83.1410  -23.9360 C.ar  227  PHE227     -0.0042
     92  CD2      -12.9820  -82.7380  -22.6660 C.ar  227  PHE227     -0.0042
     93  CE1      -10.4170  -82.0550  -23.3530 C.ar  227  PHE227     -0.0003
     94  CE2      -12.3840  -81.6500  -22.0820 C.ar  227  PHE227     -0.0003
     95  CZ       -11.1020  -81.3090  -22.4250 C.ar  227  PHE227     -0.0000
     96  N        -20.8490  -74.3840  -24.5630 N.3   358  GLU358     -0.1245
     97  CA       -20.3030  -75.0560  -23.3830 C.3   358  GLU358      0.1567
     98  C        -21.2070  -74.9110  -22.1490 C.2   358  GLU358      0.2260
     99  O        -20.8740  -75.4060  -21.0780 O.2   358  GLU358     -0.2867
    100  CB       -18.9390  -74.4600  -23.0170 C.3   358  GLU358      0.0388
    101  CG       -17.8880  -74.3940  -24.1070 C.3   358  GLU358      0.1160
    102  CD       -16.9930  -75.5930  -24.0880 C.2   358  GLU358      0.3649
    103  OE1      -17.4330  -76.6470  -24.5870 O.co2 358  GLU358     -0.2457
    104  OE2      -15.8610  -75.4880  -23.5590 O.co2 358  GLU358     -0.2457
@<TRIPOS>BOND
     1    57    56    2
     2    60    58    1
     3    50    49    2
     4    76    77   ar
     5    76    74   ar
     6    55    56    1
     7    55    58    1
     8    55    54    1
     9    59    58    1
    10    77    75   ar
    11    74    73   ar
    12    53    51    1
    13    49    54   am
    14    49    48    1
    15    75    73   ar
    16    73    72    1
    17    20    18    1
    18    51    48    1
    19    51    52    1
    20    48    47    1
    21   103   102   ar
    22    96    97    1
    23    19    18    1
    24    72    69    1
    25    89    90    1
    26    89    86    1
    27    88    87    2
    28   101   102    1
    29   101   100    1
    30   102   104   ar
    31    91    90   ar
    32    91    93   ar
    33    87    86    1
    34    18    15    1
    35    90    92   ar
    36    33    32    1
    37    33    34    1
    38    86    85    1
    39    97   100    1
    40    97    98    1
    41    93    95   ar
    42    69    70    1
    43    69    68    1
    44    71    70    2
    45    15    14    1
    46    15    16    1
    47    39    38    2
    48    17    16    2
    49    92    94   ar
    50    70    78   am
    51    30    29    1
    52    30    31    1
    53    34    36   am
    54    34    35    2
    55    95    94   ar
    56    36    37    1
    57    98    99    2
    58    29    26    1
    59    38    37    1
    60    31    25    1
    61    78    79    1
    62    27    28    2
    63    27    26    1
    64    37    40    1
    65    26    25    1
    66    79    80    1
    67    79    82    1
    68    13    12    1
    69    40    41    1
    70    81    80    2
    71    84    82    1
    72    24    23    2
    73    41    42   ar
    74    41    43   ar
    75    82    83    1
    76    42    44   ar
    77    10    11    2
    78    10     9    1
    79    12     9    1
    80    43    45   ar
    81    63    64    2
    82    63    62    1
    83    44    46   ar
    84    23    22    1
    85     9     8    1
    86    45    46   ar
    87    65    62    1
    88    65    66    1
    89    62    61    1
    90    22    21    1
    91     8     3   am
    92    66    67    1
    93     4     3    2
    94     3     2    1
    95    61    67    1
    96     2     1    1
    97     2     5    1
    98     5     7    1
    99     5     6    1
