@<TRIPOS>MOLECULE
tmp/3vywD00.pdb
 233 233 0 0 0
SMALL
GASTEIGER

@<TRIPOS>ATOM
      1  N         55.2850   -7.5060  -41.5920 N.3    59  HIS59      -0.1241
      2  CA        56.4630   -7.1230  -42.2440 C.3    59  HIS59       0.1621
      3  C         56.0840   -6.0380  -43.1440 C.2    59  HIS59       0.2264
      4  O         55.2520   -6.2030  -44.0220 O.2    59  HIS59      -0.2867
      5  CB        57.0410   -8.2670  -43.0220 C.3    59  HIS59       0.0745
      6  CG        58.4910   -8.1020  -43.3030 C.ar   59  HIS59       0.0817
      7  ND1       58.9610   -7.0730  -43.9620 N.ar   59  HIS59      -0.2268
      8  CD2       59.5670   -8.8650  -42.9620 C.ar   59  HIS59       0.1154
      9  CE1       60.2690   -7.1630  -44.0410 C.ar   59  HIS59       0.1986
     10  NE2       60.6380   -8.2570  -43.4250 N.ar   59  HIS59      -0.2212
     11  N         56.6210   -6.1680  -47.0180 N.3    62  TYR62      -0.1241
     12  CA        55.6500   -6.9960  -47.6910 C.3    62  TYR62       0.1605
     13  C         54.2460   -6.6400  -47.3740 C.2    62  TYR62       0.2264
     14  O         53.3580   -7.0380  -48.0550 O.2    62  TYR62      -0.2867
     15  CB        55.8750   -8.4510  -47.3410 C.3    62  TYR62       0.0534
     16  CG        57.2160   -8.9200  -47.7450 C.ar   62  TYR62      -0.0201
     17  CD1       58.2430   -8.9370  -46.8580 C.ar   62  TYR62      -0.0009
     18  CD2       57.4550   -9.3200  -49.0240 C.ar   62  TYR62      -0.0009
     19  CE1       59.4800   -9.3450  -47.2310 C.ar   62  TYR62       0.0417
     20  CE2       58.6870   -9.7450  -49.4130 C.ar   62  TYR62       0.0417
     21  CZ        59.6940   -9.7570  -48.5100 C.ar   62  TYR62       0.1957
     22  OH        60.9160  -10.1760  -48.8870 O.3    62  TYR62      -0.2866
     23  N         51.2430   -9.8480  -42.5470 N.3    65  PRO65      -0.2102
     24  CA        51.4930  -10.4870  -41.2740 C.3    65  PRO65       0.1504
     25  C         52.2290  -11.7730  -41.4910 C.2    65  PRO65       0.2576
     26  O         51.9790  -12.3900  -42.4630 O.2    65  PRO65      -0.2718
     27  CB        50.0940  -10.7850  -40.7950 C.3    65  PRO65       0.0282
     28  CG        49.3650  -11.0760  -42.0300 C.3    65  PRO65       0.0208
     29  CD        49.9060  -10.1410  -43.0550 C.3    65  PRO65       0.0893
     30  N         53.0910  -12.1810  -40.5910 N.am   66  TYR66      -0.1963
     31  CA        53.8290  -13.4110  -40.7690 C.3    66  TYR66       0.1771
     32  C         52.9010  -14.5870  -40.8260 C.2    66  TYR66       0.2619
     33  O         53.1250  -15.5180  -41.5580 O.2    66  TYR66      -0.2715
     34  CB        54.8460  -13.6080  -39.6680 C.3    66  TYR66       0.0574
     35  CG        56.0940  -12.8300  -39.8670 C.ar   66  TYR66      -0.0198
     36  CD1       56.0850  -11.4700  -39.7930 C.ar   66  TYR66      -0.0009
     37  CD2       57.2740  -13.4530  -40.1220 C.ar   66  TYR66      -0.0009
     38  CE1       57.2090  -10.7470  -39.9750 C.ar   66  TYR66       0.0417
     39  CE2       58.4070  -12.7350  -40.3060 C.ar   66  TYR66       0.0417
     40  CZ        58.3530  -11.3810  -40.2340 C.ar   66  TYR66       0.1957
     41  OH        59.4500  -10.6430  -40.4280 O.3    66  TYR66      -0.2866
     42  N         51.8330  -14.5270  -40.0550 N.am   67  HIS67      -0.1973
     43  CA        50.8190  -15.5350  -40.0570 C.3    67  HIS67       0.1656
     44  C         49.5180  -14.8350  -39.9930 C.2    67  HIS67       0.2291
     45  O         49.4810  -13.6630  -39.7050 O.2    67  HIS67      -0.2864
     46  CB        50.9860  -16.4530  -38.8850 C.3    67  HIS67       0.0771
     47  CG        51.6070  -17.7630  -39.2370 C.ar   67  HIS67       0.0820
     48  ND1       52.9050  -17.9160  -39.3740 N.ar   67  HIS67      -0.2267
     49  CD2       51.0470  -18.9860  -39.4900 C.ar   67  HIS67       0.1154
     50  CE1       53.1680  -19.1690  -39.6980 C.ar   67  HIS67       0.1986
     51  NE2       52.0300  -19.8200  -39.7740 N.ar   67  HIS67      -0.2212
     52  N         61.6860  -26.2840  -44.5760 N.3   101  ASP101     -0.1225
     53  CA        60.9040  -25.1660  -44.1830 C.3   101  ASP101      0.1805
     54  C         61.3570  -23.9890  -44.9860 C.2   101  ASP101      0.2598
     55  O         62.4500  -23.5600  -44.8870 O.2   101  ASP101     -0.2718
     56  CB        61.1250  -24.9420  -42.7040 C.3   101  ASP101      0.1424
     57  CG        60.3410  -23.8290  -42.1570 C.2   101  ASP101      0.3668
     58  OD1       60.8880  -23.0440  -41.4080 O.co2 101  ASP101     -0.2456
     59  OD2       59.1680  -23.7330  -42.4290 O.co2 101  ASP101     -0.2456
     60  N         60.4710  -23.4720  -45.7990 N.am  102  VAL102     -0.1966
     61  CA        60.7740  -22.3130  -46.5780 C.3   102  VAL102      0.1727
     62  C         60.2920  -21.1130  -45.8120 C.2   102  VAL102      0.2617
     63  O         59.1430  -20.8900  -45.6700 O.2   102  VAL102     -0.2715
     64  CB        60.0580  -22.3750  -47.9280 C.3   102  VAL102      0.0290
     65  CG1       60.2090  -21.0900  -48.6900 C.3   102  VAL102      0.0023
     66  CG2       60.5940  -23.4990  -48.7510 C.3   102  VAL102      0.0023
     67  N         61.2190  -20.3540  -45.2970 N.am  103  GLY103     -0.1940
     68  CA        60.9040  -19.1690  -44.5580 C.3   103  GLY103      0.2014
     69  C         60.8430  -19.4050  -43.0850 C.2   103  GLY103      0.2639
     70  O         59.8520  -19.8050  -42.5910 O.2   103  GLY103     -0.2714
     71  N         61.8900  -19.1250  -42.3540 N.am  104  PHE104     -0.1959
     72  CA        61.8130  -19.3970  -40.9540 C.3   104  PHE104      0.1771
     73  C         60.7390  -18.5880  -40.2620 C.2   104  PHE104      0.2620
     74  O         60.0240  -19.0890  -39.4520 O.2   104  PHE104     -0.2715
     75  CB        63.1430  -19.1990  -40.2620 C.3   104  PHE104      0.0574
     76  CG        63.0940  -19.5320  -38.8210 C.ar  104  PHE104     -0.0200
     77  CD1       63.1440  -20.8180  -38.4120 C.ar  104  PHE104     -0.0042
     78  CD2       62.9300  -18.5550  -37.8890 C.ar  104  PHE104     -0.0042
     79  CE1       63.0590  -21.1260  -37.0950 C.ar  104  PHE104     -0.0003
     80  CE2       62.8400  -18.8520  -36.5730 C.ar  104  PHE104     -0.0003
     81  CZ        62.9080  -20.1390  -36.1740 C.ar  104  PHE104     -0.0000
     82  N         60.6440  -17.3280  -40.6100 N.am  105  GLY105     -0.1940
     83  CA        59.6760  -16.4620  -40.0040 C.3   105  GLY105      0.2014
     84  C         59.8750  -16.3350  -38.5360 C.2   105  GLY105      0.2639
     85  O         60.9090  -15.9780  -38.0870 O.2   105  GLY105     -0.2714
     86  N         58.8390  -16.6040  -37.7860 N.am  106  LEU106     -0.1963
     87  CA        58.9610  -16.6700  -36.3710 C.3   106  LEU106      0.1728
     88  C         59.0230  -18.0880  -35.8880 C.2   106  LEU106      0.2617
     89  O         59.1010  -18.3140  -34.7280 O.2   106  LEU106     -0.2715
     90  CB        57.8350  -15.9130  -35.7000 C.3   106  LEU106      0.0311
     91  CG        57.2800  -14.7230  -36.4470 C.3   106  LEU106      0.0022
     92  CD1       55.8670  -14.4600  -36.0210 C.3   106  LEU106      0.0001
     93  CD2       58.1220  -13.5110  -36.2480 C.3   106  LEU106      0.0001
     94  N         59.0200  -19.0510  -36.7700 N.am  107  GLY107     -0.1940
     95  CA        59.1550  -20.4030  -36.3250 C.3   107  GLY107      0.2014
     96  C         57.9360  -21.0760  -35.7840 C.2   107  GLY107      0.2639
     97  O         58.0370  -22.0600  -35.1060 O.2   107  GLY107     -0.2714
     98  N         56.7750  -20.5580  -36.0870 N.am  108  TYR108     -0.1959
     99  CA        55.5700  -21.1610  -35.6000 C.3   108  TYR108      0.1771
    100  C         55.3450  -22.5040  -36.1450 C.2   108  TYR108      0.2619
    101  O         54.9840  -23.3840  -35.4310 O.2   108  TYR108     -0.2715
    102  CB        54.3860  -20.3410  -35.9720 C.3   108  TYR108      0.0574
    103  CG        54.2880  -19.1120  -35.1950 C.ar  108  TYR108     -0.0198
    104  CD1       55.3160  -18.7020  -34.4140 C.ar  108  TYR108     -0.0009
    105  CD2       53.1690  -18.3530  -35.2430 C.ar  108  TYR108     -0.0009
    106  CE1       55.2340  -17.5530  -33.6960 C.ar  108  TYR108      0.0417
    107  CE2       53.0780  -17.2030  -34.5280 C.ar  108  TYR108      0.0417
    108  CZ        54.1230  -16.8200  -33.7660 C.ar  108  TYR108      0.1957
    109  OH        54.0350  -15.6750  -33.0740 O.3   108  TYR108     -0.2866
    110  N         55.5260  -22.6500  -37.4330 N.am  109  ASN109     -0.1972
    111  CA        55.2210  -23.8990  -38.0640 C.3   109  ASN109      0.1688
    112  C         56.0770  -24.9650  -37.4660 C.2   109  ASN109      0.2292
    113  O         55.6340  -26.0430  -37.2410 O.2   109  ASN109     -0.2864
    114  CB        55.4590  -23.8350  -39.5710 C.3   109  ASN109      0.1181
    115  CG        54.4070  -23.0570  -40.3160 C.2   109  ASN109      0.2629
    116  OD1       53.3470  -22.8080  -39.8260 O.2   109  ASN109     -0.2716
    117  ND2       54.7180  -22.6760  -41.5080 N.am  109  ASN109     -0.0877
    118  N         65.0690  -21.8480  -44.3730 N.3   131  PHE131     -0.1227
    119  CA        65.7310  -20.7670  -45.0470 C.3   131  PHE131      0.1736
    120  C         65.2480  -19.4610  -44.5630 C.2   131  PHE131      0.2595
    121  O         64.1010  -19.2390  -44.5320 O.2   131  PHE131     -0.2718
    122  CB        65.4440  -20.8090  -46.5270 C.3   131  PHE131      0.0547
    123  CG        65.7740  -22.0880  -47.1500 C.ar  131  PHE131     -0.0202
    124  CD1       64.9180  -23.1220  -47.0720 C.ar  131  PHE131     -0.0042
    125  CD2       66.9410  -22.2550  -47.7950 C.ar  131  PHE131     -0.0042
    126  CE1       65.2170  -24.3130  -47.6290 C.ar  131  PHE131     -0.0003
    127  CE2       67.2550  -23.4450  -48.3540 C.ar  131  PHE131     -0.0003
    128  CZ        66.3890  -24.4770  -48.2740 C.ar  131  PHE131     -0.0000
    129  N         66.1290  -18.5800  -44.1700 N.am  132  GLU132     -0.1965
    130  CA        65.6900  -17.2790  -43.7720 C.3   132  GLU132      0.1733
    131  C         66.6210  -16.2470  -44.3020 C.2   132  GLU132      0.2616
    132  O         67.7850  -16.3570  -44.1310 O.2   132  GLU132     -0.2715
    133  CB        65.6560  -17.2300  -42.2680 C.3   132  GLU132      0.0429
    134  CG        65.1360  -15.9730  -41.6840 C.3   132  GLU132      0.1163
    135  CD        63.9760  -15.4390  -42.4330 C.2   132  GLU132      0.3649
    136  OE1       64.1530  -14.4730  -43.1460 O.co2 132  GLU132     -0.2457
    137  OE2       62.8840  -15.9690  -42.3080 O.co2 132  GLU132     -0.2457
    138  N         66.1160  -15.2280  -44.9480 N.am  133  LYS133     -0.1963
    139  CA        66.9950  -14.1840  -45.3770 C.3   133  LYS133      0.1728
    140  C         67.1120  -13.0010  -44.4460 C.2   133  LYS133      0.2616
    141  O         67.8880  -12.1080  -44.6750 O.2   133  LYS133     -0.2715
    142  CB        66.6240  -13.7220  -46.7590 C.3   133  LYS133      0.0311
    143  CG        65.5340  -12.7110  -46.8280 C.3   133  LYS133      0.0038
    144  CD        65.1960  -12.5140  -48.2740 C.3   133  LYS133      0.0206
    145  CE        64.6380  -11.1550  -48.5720 C.3   133  LYS133      0.1093
    146  NZ        65.6780  -10.3190  -49.1960 N.3   133  LYS133     -0.1314
    147  N         66.2900  -12.9470  -43.4320 N.am  134  GLU134     -0.1977
    148  CA        66.3690  -11.8590  -42.5080 C.3   134  GLU134      0.1602
    149  C         65.9850  -12.3520  -41.1650 C.2   134  GLU134      0.2287
    150  O         64.9310  -12.0730  -40.7150 O.2   134  GLU134     -0.2864
    151  CB        65.4510  -10.7330  -42.9490 C.3   134  GLU134      0.0415
    152  CG        64.8320   -9.9380  -41.8320 C.3   134  GLU134      0.1163
    153  CD        64.2300   -8.6180  -42.2890 C.2   134  GLU134      0.3649
    154  OE1       64.4820   -7.6110  -41.6280 O.co2 134  GLU134     -0.2457
    155  OE2       63.4950   -8.5730  -43.2790 O.co2 134  GLU134     -0.2457
    156  N         70.1760  -16.0710  -45.8960 N.3   172  GLY172     -0.1210
    157  CA        70.4190  -15.4660  -47.1770 C.3   172  GLY172      0.1956
    158  C         69.3450  -15.8970  -48.1100 C.2   172  GLY172      0.2612
    159  O         68.4350  -16.5320  -47.6940 O.2   172  GLY172     -0.2717
    160  N         69.4520  -15.5500  -49.3730 N.am  173  ASP173     -0.1959
    161  CA        68.4080  -15.8440  -50.3290 C.3   173  ASP173      0.1840
    162  C         68.2510  -17.3190  -50.4470 C.2   173  ASP173      0.2621
    163  O         69.1940  -17.9940  -50.6510 O.2   173  ASP173     -0.2715
    164  CB        68.8350  -15.3260  -51.6750 C.3   173  ASP173      0.1450
    165  CG        67.7110  -15.1750  -52.6420 C.2   173  ASP173      0.3671
    166  OD1       66.6880  -15.8070  -52.5430 O.co2 173  ASP173     -0.2456
    167  OD2       67.8690  -14.4030  -53.5520 O.co2 173  ASP173     -0.2456
    168  N         67.0360  -17.7990  -50.3760 N.am  174  ALA174     -0.1977
    169  CA        66.7600  -19.1990  -50.4630 C.3   174  ALA174      0.1597
    170  C         67.2050  -19.7520  -51.8040 C.2   174  ALA174      0.2287
    171  O         67.6670  -20.8450  -51.9050 O.2   174  ALA174     -0.2864
    172  CB        65.2960  -19.4530  -50.2320 C.3   174  ALA174      0.0319
    173  N         56.1400  -21.4770  -46.8150 N.3   192  ASP192     -0.1225
    174  CA        55.5530  -20.3470  -46.1660 C.3   192  ASP192      0.1805
    175  C         56.3760  -19.1070  -46.3490 C.2   192  ASP192      0.2598
    176  O         57.0030  -18.6420  -45.4440 O.2   192  ASP192     -0.2718
    177  CB        55.4030  -20.6530  -44.7030 C.3   192  ASP192      0.1424
    178  CG        54.4380  -19.7630  -44.0230 C.2   192  ASP192      0.3668
    179  OD1       53.8500  -18.9000  -44.6560 O.co2 192  ASP192     -0.2456
    180  OD2       54.2550  -19.9320  -42.8320 O.co2 192  ASP192     -0.2456
    181  N         56.3930  -18.6150  -47.5610 N.am  193  ALA193     -0.1966
    182  CA        56.9530  -17.3440  -47.8660 C.3   193  ALA193      0.1728
    183  C         55.8370  -16.4020  -47.7720 C.2   193  ALA193      0.2616
    184  O         54.7360  -16.8000  -47.6220 O.2   193  ALA193     -0.2715
    185  CB        57.5090  -17.3250  -49.2530 C.3   193  ALA193      0.0334
    186  N         56.1280  -15.1420  -47.9140 N.am  194  PHE194     -0.1974
    187  CA        55.1050  -14.1700  -48.0010 C.3   194  PHE194      0.1639
    188  C         54.4280  -14.3830  -49.3180 C.2   194  PHE194      0.2290
    189  O         54.9320  -15.0220  -50.1640 O.2   194  PHE194     -0.2864
    190  CB        55.6720  -12.7730  -47.8860 C.3   194  PHE194      0.0560
    191  CG        56.0870  -12.4200  -46.5070 C.ar  194  PHE194     -0.0200
    192  CD1       57.3850  -12.2200  -46.2070 C.ar  194  PHE194     -0.0042
    193  CD2       55.1720  -12.3330  -45.5140 C.ar  194  PHE194     -0.0042
    194  CE1       57.7610  -11.9270  -44.9380 C.ar  194  PHE194     -0.0003
    195  CE2       55.5390  -12.0430  -44.2410 C.ar  194  PHE194     -0.0003
    196  CZ        56.8360  -11.8350  -43.9510 C.ar  194  PHE194     -0.0000
    197  N         56.1160  -11.7960  -52.7070 N.3   199  ASN199     -0.1240
    198  CA        57.3480  -12.4990  -52.5250 C.3   199  ASN199      0.1653
    199  C         57.5080  -13.4840  -53.6420 C.2   199  ASN199      0.2266
    200  O         57.5370  -14.6510  -53.4470 O.2   199  ASN199     -0.2867
    201  CB        57.2790  -13.2140  -51.2040 C.3   199  ASN199      0.1155
    202  CG        58.6020  -13.3840  -50.5590 C.2   199  ASN199      0.2627
    203  OD1       58.6950  -13.8700  -49.4790 O.2   199  ASN199     -0.2716
    204  ND2       59.6160  -12.9990  -51.2220 N.am  199  ASN199     -0.0877
    205  N         59.9600  -14.5180  -55.7030 N.3   201  GLU201     -0.1231
    206  CA        61.0990  -15.3700  -55.9390 C.3   201  GLU201      0.1699
    207  C         60.9620  -16.7280  -55.3860 C.2   201  GLU201      0.2592
    208  O         61.6440  -17.6000  -55.7940 O.2   201  GLU201     -0.2718
    209  CB        62.3790  -14.8080  -55.3570 C.3   201  GLU201      0.0402
    210  CG        62.3650  -13.3650  -55.0000 C.3   201  GLU201      0.1161
    211  CD        61.9120  -13.1030  -53.6190 C.2   201  GLU201      0.3649
    212  OE1       60.7710  -12.8090  -53.4700 O.co2 201  GLU201     -0.2457
    213  OE2       62.6890  -13.1650  -52.7030 O.co2 201  GLU201     -0.2457
    214  N         60.1150  -16.8800  -54.4080 N.am  202  LEU202     -0.1980
    215  CA        59.9450  -18.1410  -53.7570 C.3   202  LEU202      0.1596
    216  C         58.8130  -18.9480  -54.3110 C.2   202  LEU202      0.2287
    217  O         58.5240  -19.9770  -53.8090 O.2   202  LEU202     -0.2864
    218  CB        59.7360  -17.9160  -52.2860 C.3   202  LEU202      0.0297
    219  CG        61.0200  -17.4310  -51.7030 C.3   202  LEU202      0.0022
    220  CD1       60.9660  -17.2350  -50.2190 C.3   202  LEU202      0.0001
    221  CD2       62.0550  -18.4390  -52.0680 C.3   202  LEU202      0.0001
    222  N         49.6910  -22.4120  -47.1220 N.3   224  TYR224     -0.1241
    223  CA        48.4980  -21.6190  -47.0150 C.3   224  TYR224      0.1605
    224  C         47.9360  -21.1850  -48.3310 C.2   224  TYR224      0.2264
    225  O         46.7720  -21.0110  -48.4520 O.2   224  TYR224     -0.2867
    226  CB        48.6730  -20.4390  -46.1030 C.3   224  TYR224      0.0534
    227  CG        49.6190  -19.4510  -46.6210 C.ar  224  TYR224     -0.0201
    228  CD1       49.1910  -18.3770  -47.3590 C.ar  224  TYR224     -0.0009
    229  CD2       50.9450  -19.5890  -46.3910 C.ar  224  TYR224     -0.0009
    230  CE1       50.0750  -17.4810  -47.8610 C.ar  224  TYR224      0.0417
    231  CE2       51.8200  -18.6920  -46.8770 C.ar  224  TYR224      0.0417
    232  CZ        51.3760  -17.6480  -47.6060 C.ar  224  TYR224      0.1957
    233  OH        52.2960  -16.7910  -48.0500 O.3   224  TYR224     -0.2866
@<TRIPOS>BOND
     1   206   205    1
     2   206   207    1
     3   206   209    1
     4   208   207    2
     5   207   214   am
     6   209   210    1
     7   210   211    1
     8   214   215    1
     9   216   217    2
    10   216   215    1
    11   215   218    1
    12   199   200    2
    13   199   198    1
    14   211   212   ar
    15   211   213   ar
    16   167   165   ar
    17   197   198    1
    18   165   166   ar
    19   165   164    1
    20   198   201    1
    21   218   219    1
    22   221   219    1
    23   171   170    2
    24   170   169    1
    25   219   220    1
    26   164   161    1
    27   204   202   am
    28   201   202    1
    29   163   162    2
    30   202   203    2
    31   169   168    1
    32   169   172    1
    33   162   168   am
    34   162   161    1
    35   161   160    1
    36   189   188    2
    37    20    18   ar
    38    20    21   ar
    39   160   158   am
    40   188   187    1
    41   185   182    1
    42   146   145    1
    43    18    16   ar
    44    22    21    1
    45    66    64    1
    46    65    64    1
    47   145   144    1
    48    21    19   ar
    49   225   224    2
    50   127   128   ar
    51   127   125   ar
    52   224   223    1
    53   144   143    1
    54   128   126   ar
    55   158   159    2
    56   158   157    1
    57    14    13    2
    58   233   232    1
    59   187   186    1
    60   187   190    1
    61    64    61    1
    62   186   183   am
    63   190   191    1
    64   182   183    1
    65   182   181    1
    66   230   232   ar
    67   230   228   ar
    68   125   123   ar
    69   183   184    2
    70    16    15    1
    71    16    17   ar
    72    12    13    1
    73    12    15    1
    74    12    11    1
    75   126   124   ar
    76   232   231   ar
    77   181   175   am
    78   228   227   ar
    79    19    17   ar
    80   157   156    1
    81   123   124   ar
    82   123   122    1
    83   222   223    1
    84   223   226    1
    85   231   229   ar
    86   143   142    1
    87   173   174    1
    88   142   139    1
    89   227   229   ar
    90   227   226    1
    91    61    62    1
    92    61    60    1
    93   122   119    1
    94   191   192   ar
    95   191   193   ar
    96   175   174    1
    97   175   176    2
    98   192   194   ar
    99   174   177    1
   100    62    63    2
   101    62    67   am
   102    60    54   am
   103   193   195   ar
   104   139   138    1
   105   139   140    1
   106    67    68    1
   107   119   120    1
   108   119   118    1
   109    54    55    2
   110    54    53    1
   111   138   131   am
   112   194   196   ar
   113   177   178    1
   114   141   140    2
   115   179   178   ar
   116    52    53    1
   117   120   121    2
   118   120   129   am
   119    68    69    1
   120   140   147   am
   121   131   132    2
   122   131   130    1
   123   195   196   ar
   124    53    56    1
   125   129   130    1
   126     9     7   ar
   127     9    10   ar
   128   178   180   ar
   129     4     3    2
   130     7     6   ar
   131   130   133    1
   132   147   148    1
   133    10     8   ar
   134     6     5    1
   135     6     8   ar
   136   155   153   ar
   137   136   135   ar
   138     3     2    1
   139    69    70    2
   140    69    71   am
   141    29    23    1
   142    29    28    1
   143     5     2    1
   144   151   148    1
   145   151   152    1
   146    56    57    1
   147    23    24    1
   148   148   149    1
   149    26    25    2
   150   135   137   ar
   151   135   134    1
   152    59    57   ar
   153    71    72    1
   154   153   152    1
   155   153   154   ar
   156   133   134    1
   157     2     1    1
   158    57    58   ar
   159    28    27    1
   160    33    32    2
   161   117   115   am
   162    25    24    1
   163    25    30   am
   164    24    27    1
   165   149   150    2
   166    72    75    1
   167    72    73    1
   168    32    31    1
   169    32    42   am
   170    31    30    1
   171    31    34    1
   172    82    73   am
   173    82    83    1
   174    41    40    1
   175   115   116    2
   176   115   114    1
   177    39    40   ar
   178    39    37   ar
   179    75    76    1
   180    73    74    2
   181    40    38   ar
   182    37    35   ar
   183    43    42    1
   184    43    44    1
   185    43    46    1
   186    83    84    1
   187    44    45    2
   188    38    36   ar
   189    35    36   ar
   190    35    34    1
   191    51    50   ar
   192    51    49   ar
   193    50    48   ar
   194   114   111    1
   195    49    47   ar
   196    48    47   ar
   197    47    46    1
   198    76    77   ar
   199    76    78   ar
   200    84    85    2
   201    84    86   am
   202    77    79   ar
   203   111   112    1
   204   111   110    1
   205    78    80   ar
   206    86    87    1
   207   112   113    2
   208   110   100   am
   209    79    81   ar
   210    94    95    1
   211    94    88   am
   212    80    81   ar
   213    91    93    1
   214    91    92    1
   215    91    90    1
   216    87    88    1
   217    87    90    1
   218    95    96    1
   219   100    99    1
   220   100   101    2
   221    98    96   am
   222    98    99    1
   223   102    99    1
   224   102   103    1
   225    88    89    2
   226    96    97    2
   227   105   103   ar
   228   105   107   ar
   229   103   104   ar
   230   107   108   ar
   231   104   106   ar
   232   108   106   ar
   233   108   109    1
