@<TRIPOS>MOLECULE
tmp/3vz0C00.pdb
 170 163 0 0 0
SMALL
GASTEIGER

@<TRIPOS>ATOM
      1  N        113.9810   12.2480   24.4250 N.3    78  ASP78      -0.1239
      2  CA       114.4550   12.5070   25.7720 C.3    78  ASP78       0.1674
      3  C        115.4110   13.7090   25.7890 C.2    78  ASP78       0.2266
      4  O        115.3870   14.5170   26.7280 O.2    78  ASP78      -0.2867
      5  CB       115.1140   11.2440   26.3540 C.3    78  ASP78       0.1410
      6  CG       114.0980   10.1300   26.6380 C.2    78  ASP78       0.3668
      7  OD1      112.8820   10.3820   26.4770 O.co2  78  ASP78      -0.2456
      8  OD2      114.5070    8.9990   27.0200 O.co2  78  ASP78      -0.2456
      9  N        113.0520   16.8810   25.5010 N.3    81  GLU81      -0.1231
     10  CA       112.4640   17.1110   26.8340 C.3    81  GLU81       0.1699
     11  C        113.4700   17.6350   27.8650 C.2    81  GLU81       0.2592
     12  O        113.1040   18.4500   28.7130 O.2    81  GLU81      -0.2718
     13  CB       111.7540   15.8550   27.3720 C.3    81  GLU81       0.0402
     14  CG       110.4310   15.5570   26.6300 C.3    81  GLU81       0.1161
     15  CD       109.6250   14.3680   27.1880 C.2    81  GLU81       0.3649
     16  OE1      110.0460   13.7430   28.2010 O.co2  81  GLU81      -0.2457
     17  OE2      108.5490   14.0700   26.5990 O.co2  81  GLU81      -0.2457
     18  N        114.7270   17.1860   27.7920 N.am   82  GLU82      -0.1979
     19  CA       115.7540   17.7120   28.6780 C.3    82  GLU82       0.1602
     20  C        116.0260   19.1960   28.4490 C.2    82  GLU82       0.2287
     21  O        116.1300   19.9710   29.4110 O.2    82  GLU82      -0.2864
     22  CB       117.0780   16.9420   28.5790 C.3    82  GLU82       0.0415
     23  CG       117.9920   17.3800   29.7040 C.3    82  GLU82       0.1163
     24  CD       119.4150   16.8970   29.6260 C.2    82  GLU82       0.3649
     25  OE1      120.2770   17.6160   30.1780 O.co2  82  GLU82      -0.2457
     26  OE2      119.6710   15.8110   29.0610 O.co2  82  GLU82      -0.2457
     27  N        113.0700   21.4110   29.6370 N.3    85  VAL85      -0.1245
     28  CA       113.0740   21.5760   31.0900 C.3    85  VAL85       0.1561
     29  C        114.2670   22.3890   31.5850 C.2    85  VAL85       0.2260
     30  O        114.1560   23.1090   32.5630 O.2    85  VAL85      -0.2867
     31  CB       112.9820   20.2230   31.8210 C.3    85  VAL85       0.0252
     32  CG1      112.9050   20.4400   33.3120 C.3    85  VAL85       0.0019
     33  CG2      111.7320   19.4740   31.3780 C.3    85  VAL85       0.0019
     34  N        122.5010   13.9940   32.3570 N.3   131  PHE131     -0.1241
     35  CA       121.6730   15.1250   31.9660 C.3   131  PHE131      0.1605
     36  C        122.6030   16.3310   31.8210 C.2   131  PHE131      0.2264
     37  O        122.6690   17.1760   32.7130 O.2   131  PHE131     -0.2867
     38  CB       120.5980   15.3940   33.0020 C.3   131  PHE131      0.0534
     39  CG       119.5910   14.2880   33.1350 C.ar  131  PHE131     -0.0203
     40  CD1      118.4580   14.2620   32.3320 C.ar  131  PHE131     -0.0042
     41  CD2      119.7570   13.2890   34.1020 C.ar  131  PHE131     -0.0042
     42  CE1      117.5180   13.2320   32.4640 C.ar  131  PHE131     -0.0003
     43  CE2      118.8360   12.2890   34.2380 C.ar  131  PHE131     -0.0003
     44  CZ       117.7090   12.2590   33.4180 C.ar  131  PHE131     -0.0000
     45  N        120.5550   19.8970   31.9110 N.3   134  TYR134     -0.1241
     46  CA       119.6910   20.0890   33.0530 C.3   134  TYR134      0.1605
     47  C        120.5090   20.1920   34.3270 C.2   134  TYR134      0.2264
     48  O        120.1610   20.9660   35.2190 O.2   134  TYR134     -0.2867
     49  CB       118.6480   18.9570   33.1260 C.3   134  TYR134      0.0534
     50  CG       118.1530   18.6290   34.5160 C.ar  134  TYR134     -0.0201
     51  CD1      117.0020   19.2160   35.0340 C.ar  134  TYR134     -0.0009
     52  CD2      118.8490   17.7180   35.3160 C.ar  134  TYR134     -0.0009
     53  CE1      116.5440   18.8860   36.3170 C.ar  134  TYR134      0.0417
     54  CE2      118.4190   17.3920   36.5850 C.ar  134  TYR134      0.0417
     55  CZ       117.2680   17.9710   37.0880 C.ar  134  TYR134      0.1957
     56  OH       116.8760   17.6230   38.3800 O.3   134  TYR134     -0.2866
     57  N         98.5870    1.7300   35.0330 N.3   242  LEU242     -0.1245
     58  CA        99.2640    2.9900   35.2170 C.3   242  LEU242      0.1561
     59  C        100.6310    2.7250   35.8730 C.2   242  LEU242      0.2260
     60  O        101.6610    3.3010   35.4840 O.2   242  LEU242     -0.2867
     61  CB        98.3730    3.8760   36.0900 C.3   242  LEU242      0.0270
     62  CG        98.7610    5.3070   36.4540 C.3   242  LEU242      0.0019
     63  CD1       98.8130    6.1930   35.2210 C.3   242  LEU242      0.0001
     64  CD2       97.7900    5.8720   37.5140 C.3   242  LEU242      0.0001
     65  N        103.0330    1.3380   33.1760 N.3   245  LYS245     -0.1231
     66  CA       103.4360    2.4590   32.3110 C.3   245  LYS245      0.1693
     67  C        104.4880    3.3840   32.9190 C.2   245  LYS245      0.2592
     68  O        105.4670    3.7450   32.2560 O.2   245  LYS245     -0.2718
     69  CB       102.2050    3.2650   31.8650 C.3   245  LYS245      0.0285
     70  CG       101.4900    2.6440   30.6640 C.3   245  LYS245      0.0035
     71  CD       100.0720    3.1560   30.5090 C.3   245  LYS245      0.0206
     72  CE        99.2720    2.2600   29.5520 C.3   245  LYS245      0.1093
     73  NZ        97.8300    2.1300   29.9640 N.3   245  LYS245     -0.1314
     74  N        104.2730    3.7810   34.1730 N.am  246  TRP246     -0.1976
     75  CA       105.2260    4.6390   34.8600 C.3   246  TRP246      0.1640
     76  C        106.4950    3.8950   35.2690 C.2   246  TRP246      0.2290
     77  O        107.5730    4.4790   35.2670 O.2   246  TRP246     -0.2864
     78  CB       104.5850    5.3100   36.0680 C.3   246  TRP246      0.0576
     79  CG       103.8270    6.5500   35.7260 C.ar  246  TRP246      0.0006
     80  CD1      102.4880    6.7550   35.8730 C.ar  246  TRP246      0.0946
     81  CD2      104.3620    7.7640   35.1890 C.ar  246  TRP246      0.0152
     82  NE1      102.1540    8.0130   35.4600 N.ar  246  TRP246     -0.2442
     83  CE2      103.2860    8.6590   35.0380 C.ar  246  TRP246      0.0810
     84  CE3      105.6500    8.1800   34.8080 C.ar  246  TRP246      0.0012
     85  CZ2      103.4570    9.9600   34.5250 C.ar  246  TRP246      0.0191
     86  CZ3      105.8200    9.4700   34.3080 C.ar  246  TRP246      0.0001
     87  CH2      104.7330   10.3430   34.1720 C.ar  246  TRP246      0.0015
     88  N        108.6570    3.8160   32.1880 N.3   249  TRP249     -0.1241
     89  CA       109.3300    5.0920   32.0530 C.3   249  TRP249      0.1605
     90  C        110.3590    5.3020   33.1780 C.2   249  TRP249      0.2264
     91  O        111.4730    5.7770   32.9280 O.2   249  TRP249     -0.2867
     92  CB       108.3350    6.2640   32.0140 C.3   249  TRP249      0.0550
     93  CG       109.0510    7.6030   31.8320 C.ar  249  TRP249      0.0003
     94  CD1      109.3910    8.1970   30.6500 C.ar  249  TRP249      0.0946
     95  CD2      109.5540    8.4650   32.8710 C.ar  249  TRP249      0.0152
     96  NE1      110.0510    9.3840   30.8840 N.ar  249  TRP249     -0.2442
     97  CE2      110.1630    9.5720   32.2370 C.ar  249  TRP249      0.0810
     98  CE3      109.5180    8.4230   34.2810 C.ar  249  TRP249      0.0012
     99  CZ2      110.7600   10.6170   32.9640 C.ar  249  TRP249      0.0191
    100  CZ3      110.0940    9.4520   34.9960 C.ar  249  TRP249      0.0001
    101  CH2      110.7120   10.5380   34.3420 C.ar  249  TRP249      0.0015
    102  N        119.8760    7.2260   35.4550 N.3   258  VAL258     -0.1245
    103  CA       119.1480    8.2930   36.1410 C.3   258  VAL258      0.1561
    104  C        119.2400    7.9680   37.6190 C.2   258  VAL258      0.2260
    105  O        119.0200    6.8190   38.0230 O.2   258  VAL258     -0.2867
    106  CB       117.6490    8.3510   35.6910 C.3   258  VAL258      0.0252
    107  CG1      116.9110    9.5730   36.2940 C.3   258  VAL258      0.0019
    108  CG2      117.5410    8.4060   34.1800 C.3   258  VAL258      0.0019
    109  N        117.3500    8.9520   39.9500 N.3   260  THR260     -0.1218
    110  CA       116.0060    8.7310   40.4520 C.3   260  THR260      0.1862
    111  C        115.2410    7.6890   39.6410 C.2   260  THR260      0.2287
    112  O        114.0040    7.6650   39.6790 O.2   260  THR260     -0.2866
    113  CB       115.1790   10.0390   40.5020 C.3   260  THR260      0.1770
    114  OG1      115.2160   10.6900   39.2230 O.3   260  THR260     -0.2211
    115  CG2      115.6970   10.9950   41.6050 C.3   260  THR260      0.0375
    116  N        106.8800   10.3030   45.1340 N.3   403  PHE403     -0.1241
    117  CA       105.8500   10.6140   44.1680 C.3   403  PHE403      0.1605
    118  C        104.7220    9.5990   44.2590 C.2   403  PHE403      0.2264
    119  O        104.9540    8.3930   44.3230 O.2   403  PHE403     -0.2867
    120  CB       106.4360   10.6460   42.7570 C.3   403  PHE403      0.0534
    121  CG       107.2600   11.8830   42.4580 C.ar  403  PHE403     -0.0203
    122  CD1      108.3600   12.2260   43.2440 C.ar  403  PHE403     -0.0042
    123  CD2      106.9500   12.6870   41.3650 C.ar  403  PHE403     -0.0042
    124  CE1      109.1160   13.3590   42.9620 C.ar  403  PHE403     -0.0003
    125  CE2      107.7120   13.8230   41.0790 C.ar  403  PHE403     -0.0003
    126  CZ       108.7950   14.1500   41.8810 C.ar  403  PHE403     -0.0000
    127  N        108.9670    9.3880   39.9160 N.3   408  THR408     -0.1203
    128  CA       109.8210   10.5150   40.2590 C.3   408  THR408      0.1994
    129  C        110.2470   11.2080   38.9680 C.2   408  THR408      0.2618
    130  O        110.7980   10.5770   38.0600 O.2   408  THR408     -0.2717
    131  CB       111.0420   10.0320   41.0730 C.3   408  THR408      0.1784
    132  OG1      110.5870    9.1870   42.1260 O.3   408  THR408     -0.2211
    133  CG2      111.8380   11.2050   41.6740 C.3   408  THR408      0.0376
    134  N        109.9400   12.4920   38.8600 N.am  409  ALA409     -0.1965
    135  CA       110.1720   13.2180   37.6160 C.3   409  ALA409      0.1728
    136  C        110.4920   14.6730   37.8930 C.2   409  ALA409      0.2616
    137  O        109.8830   15.2990   38.7640 O.2   409  ALA409     -0.2715
    138  CB       108.9570   13.1050   36.6770 C.3   409  ALA409      0.0334
    139  N        111.4380   15.2000   37.1210 N.am  410  ALA410     -0.1977
    140  CA       111.9500   16.5590   37.2900 C.3   410  ALA410      0.1597
    141  C        110.9230   17.5970   36.9300 C.2   410  ALA410      0.2287
    142  O        110.1820   17.4390   35.9460 O.2   410  ALA410     -0.2864
    143  CB       113.1750   16.7590   36.4340 C.3   410  ALA410      0.0319
    144  N        109.7150   21.7540   41.8270 N.3   414  LEU414     -0.1245
    145  CA       109.8830   20.7680   42.8910 C.3   414  LEU414      0.1561
    146  C        111.3300   20.6980   43.3990 C.2   414  LEU414      0.2260
    147  O        112.2600   20.6440   42.5960 O.2   414  LEU414     -0.2867
    148  CB       109.3900   19.3870   42.4480 C.3   414  LEU414      0.0270
    149  CG       107.9870   19.2830   41.8360 C.3   414  LEU414      0.0019
    150  CD1      107.6870   17.8660   41.2900 C.3   414  LEU414      0.0001
    151  CD2      106.8990   19.7390   42.8080 C.3   414  LEU414      0.0001
    152  N        114.7160   19.0470   45.0460 N.3   416  PHE416     -0.1241
    153  CA       115.3190   17.7820   44.7000 C.3   416  PHE416      0.1605
    154  C        116.5150   17.5300   45.6110 C.2   416  PHE416      0.2264
    155  O        117.3990   18.3710   45.7230 O.2   416  PHE416     -0.2867
    156  CB       115.7230   17.7720   43.2070 C.3   416  PHE416      0.0534
    157  CG       116.4350   16.5180   42.7660 C.ar  416  PHE416     -0.0203
    158  CD1      115.8250   15.6340   41.8920 C.ar  416  PHE416     -0.0042
    159  CD2      117.7250   16.2220   43.2250 C.ar  416  PHE416     -0.0042
    160  CE1      116.4860   14.4630   41.4770 C.ar  416  PHE416     -0.0003
    161  CE2      118.3900   15.0530   42.8260 C.ar  416  PHE416     -0.0003
    162  CZ       117.7670   14.1730   41.9470 C.ar  416  PHE416     -0.0000
    163  N        116.7480   22.9440   42.9470 N.3   428  LEU428     -0.1245
    164  CA       115.4510   23.3500   42.3680 C.3   428  LEU428      0.1561
    165  C        114.4780   23.9430   43.3940 C.2   428  LEU428      0.2260
    166  O        114.7570   23.9320   44.6030 O.2   428  LEU428     -0.2867
    167  CB       114.7960   22.2090   41.5710 C.3   428  LEU428      0.0270
    168  CG       115.5900   21.6190   40.3980 C.3   428  LEU428      0.0019
    169  CD1      114.8040   20.5070   39.7040 C.3   428  LEU428      0.0001
    170  CD2      115.9860   22.6990   39.4040 C.3   428  LEU428      0.0001
@<TRIPOS>BOND
     1     1     2    1
     2     9    10    1
     3     2     3    1
     4     2     5    1
     5     3     4    2
     6     5     6    1
     7     7     6   ar
     8    17    15   ar
     9    14    15    1
    10    14    13    1
    11     6     8   ar
    12    10    13    1
    13    10    11    1
    14    15    16   ar
    15    18    11   am
    16    18    19    1
    17    11    12    2
    18    20    19    1
    19    20    21    2
    20    22    19    1
    21    22    23    1
    22    26    24   ar
    23    72    73    1
    24    72    71    1
    25    24    23    1
    26    24    25   ar
    27    27    28    1
    28    71    70    1
    29    94    96   ar
    30    94    93   ar
    31    70    69    1
    32    96    97   ar
    33    28    29    1
    34    28    31    1
    35    33    31    1
    36    29    30    2
    37    31    32    1
    38    36    35    1
    39    36    37    2
    40    93    92    1
    41    93    95   ar
    42    69    66    1
    43    45    46    1
    44    35    34    1
    45    35    38    1
    46    92    89    1
    47    89    88    1
    48    89    90    1
    49    97    95   ar
    50    97    99   ar
    51    68    67    2
    52    66    67    1
    53    66    65    1
    54    40    42   ar
    55    40    39   ar
    56    42    44   ar
    57    95    98   ar
    58    67    74   am
    59    91    90    2
    60    99   101   ar
    61    38    39    1
    62    46    49    1
    63    46    47    1
    64    49    50    1
    65    39    41   ar
    66    44    43   ar
    67    41    43   ar
    68    87    86   ar
    69    87    85   ar
    70    74    75    1
    71   108   106    1
    72    98   100   ar
    73    86    84   ar
    74    47    48    2
    75   101   100   ar
    76    50    51   ar
    77    50    52   ar
    78    85    83   ar
    79    84    81   ar
    80    75    76    1
    81    75    78    1
    82    57    58    1
    83    51    53   ar
    84    83    81   ar
    85    83    82   ar
    86    81    79   ar
    87    58    59    1
    88    58    61    1
    89    63    62    1
    90    77    76    2
    91    52    54   ar
    92   102   103    1
    93    82    80   ar
    94    60    59    2
    95   106   103    1
    96   106   107    1
    97    79    80   ar
    98    79    78    1
    99   142   141    2
   100    61    62    1
   101   103   104    1
   102    53    55   ar
   103   143   140    1
   104    62    64    1
   105    54    55   ar
   106   138   135    1
   107   141   140    1
   108    55    56    1
   109   139   140    1
   110   139   136   am
   111   135   136    1
   112   135   134    1
   113   104   105    2
   114   136   137    2
   115   130   129    2
   116   134   129   am
   117   129   128    1
   118   114   113    1
   119   170   168    1
   120   111   112    2
   121   111   110    1
   122   169   168    1
   123   127   128    1
   124   109   110    1
   125   128   131    1
   126   168   167    1
   127   110   113    1
   128   113   115    1
   129   131   133    1
   130   131   132    1
   131   125   123   ar
   132   125   126   ar
   133   150   149    1
   134   123   121   ar
   135   160   158   ar
   136   160   162   ar
   137   167   164    1
   138   144   145    1
   139   149   148    1
   140   149   151    1
   141   126   124   ar
   142   158   157   ar
   143   162   161   ar
   144   164   163    1
   145   164   165    1
   146   148   145    1
   147   121   120    1
   148   121   122   ar
   149   147   146    2
   150   120   117    1
   151   157   156    1
   152   157   159   ar
   153   161   159   ar
   154   145   146    1
   155   124   122   ar
   156   156   153    1
   157   165   166    2
   158   117   118    1
   159   117   116    1
   160   118   119    2
   161   153   152    1
   162   153   154    1
   163   154   155    2
