@<TRIPOS>MOLECULE
tmp/3vzbB00.pdb
 208 191 0 0 0
SMALL
GASTEIGER

@<TRIPOS>ATOM
      1  N         27.8630   84.6670  -12.6860 N.3    74  ASP74      -0.1239
      2  CA        26.6130   85.1310  -12.1260 C.3    74  ASP74       0.1674
      3  C         26.4730   86.6420  -12.3590 C.2    74  ASP74       0.2266
      4  O         25.3600   87.1390  -12.5390 O.2    74  ASP74      -0.2867
      5  CB        26.5760   84.8120  -10.6260 C.3    74  ASP74       0.1410
      6  CG        26.7620   83.3070  -10.3270 C.2    74  ASP74       0.3668
      7  OD1       26.2940   82.4660  -11.1430 O.co2  74  ASP74      -0.2456
      8  OD2       27.3850   82.9810   -9.2790 O.co2  74  ASP74      -0.2456
      9  N         32.2640   82.7330   -9.5750 N.3   106  GLY106     -0.1225
     10  CA        30.8720   83.1670   -9.5870 C.3   106  GLY106      0.1811
     11  C         30.1210   82.3600  -10.6230 C.2   106  GLY106      0.2280
     12  O         29.6470   82.9050  -11.6090 O.2   106  GLY106     -0.2866
     13  N         20.1760   85.3390   -8.1520 N.3   160  LEU160     -0.1231
     14  CA        20.8520   84.3610   -7.3220 C.3   160  LEU160      0.1693
     15  C         20.7660   84.6770   -5.8340 C.2   160  LEU160      0.2592
     16  O         20.2730   83.8510   -5.0510 O.2   160  LEU160     -0.2718
     17  CB        22.3140   84.2220   -7.7470 C.3   160  LEU160      0.0284
     18  CG        23.1770   83.2670   -6.9040 C.3   160  LEU160      0.0019
     19  CD1       22.8010   81.8210   -7.1660 C.3   160  LEU160      0.0001
     20  CD2       24.6520   83.5060   -7.1690 C.3   160  LEU160      0.0001
     21  N         21.2480   85.8560   -5.4410 N.am  161  SER161     -0.1952
     22  CA        21.4990   86.1180   -4.0320 C.3   161  SER161      0.1924
     23  C         21.5560   87.5860   -3.6220 C.2   161  SER161      0.2314
     24  O         22.0130   88.4460   -4.3650 O.2   161  SER161     -0.2863
     25  CB        22.8170   85.4630   -3.6250 C.3   161  SER161      0.2116
     26  OG        23.8840   85.9290   -4.4350 O.3   161  SER161     -0.2180
     27  N         23.3300   89.0820   -0.1760 N.3   163  ALA163     -0.1245
     28  CA        24.0940   88.7850    1.0400 C.3   163  ALA163      0.1562
     29  C         24.4910   90.0580    1.7950 C.2   163  ALA163      0.2260
     30  O         24.6830   91.1100    1.2100 O.2   163  ALA163     -0.2867
     31  CB        25.3290   87.9670    0.7030 C.3   163  ALA163      0.0290
     32  N         29.1400   88.7790    6.8180 N.3   166  PHE166     -0.1227
     33  CA        30.2840   87.9200    6.4710 C.3   166  PHE166      0.1736
     34  C         30.4590   87.6940    4.9710 C.2   166  PHE166      0.2595
     35  O         31.5400   87.9240    4.4270 O.2   166  PHE166     -0.2718
     36  CB        30.1170   86.5690    7.1820 C.3   166  PHE166      0.0547
     37  CG        31.3390   85.6910    7.1560 C.ar  166  PHE166     -0.0202
     38  CD1       31.6070   84.8750    6.0620 C.ar  166  PHE166     -0.0042
     39  CD2       32.1930   85.6390    8.2480 C.ar  166  PHE166     -0.0042
     40  CE1       32.7110   84.0530    6.0480 C.ar  166  PHE166     -0.0003
     41  CE2       33.3020   84.8110    8.2390 C.ar  166  PHE166     -0.0003
     42  CZ        33.5660   84.0250    7.1340 C.ar  166  PHE166     -0.0000
     43  N         29.4070   87.2190    4.3010 N.am  167  ILE167     -0.1980
     44  CA        29.5090   86.8740    2.8800 C.3   167  ILE167      0.1595
     45  C         29.8050   88.1020    2.0140 C.2   167  ILE167      0.2287
     46  O         30.6740   88.0570    1.1470 O.2   167  ILE167     -0.2864
     47  CB        28.2420   86.1480    2.3770 C.3   167  ILE167      0.0276
     48  CG1       28.1290   84.7690    3.0290 C.3   167  ILE167      0.0022
     49  CG2       28.2630   86.0050    0.8540 C.3   167  ILE167      0.0022
     50  CD1       26.7140   84.2630    3.1690 C.3   167  ILE167      0.0001
     51  N         33.3450   89.0990    2.4980 N.3   170  VAL170     -0.1231
     52  CA        34.2650   88.1990    1.7970 C.3   170  VAL170      0.1692
     53  C         34.3490   88.5800    0.3160 C.2   170  VAL170      0.2592
     54  O         35.4280   88.5620   -0.2680 O.2   170  VAL170     -0.2718
     55  CB        33.8870   86.7040    1.9800 C.3   170  VAL170      0.0266
     56  CG1       34.7230   85.8100    1.0810 C.3   170  VAL170      0.0020
     57  CG2       34.0650   86.2770    3.4320 C.3   170  VAL170      0.0020
     58  N         33.2210   88.9420   -0.2870 N.am  171  ASP171     -0.1974
     59  CA        33.2400   89.4370   -1.6620 C.3   171  ASP171      0.1709
     60  C         34.0160   90.7540   -1.7570 C.2   171  ASP171      0.2293
     61  O         34.8420   90.9280   -2.6550 O.2   171  ASP171     -0.2864
     62  CB        31.8210   89.6000   -2.2030 C.3   171  ASP171      0.1436
     63  CG        31.1530   88.2670   -2.4950 C.2   171  ASP171      0.3671
     64  OD1       31.8750   87.2780   -2.7860 O.co2 171  ASP171     -0.2456
     65  OD2       29.9030   88.2130   -2.4370 O.co2 171  ASP171     -0.2456
     66  N         38.1710   83.7400   -2.9510 N.3   183  PHE183     -0.1241
     67  CA        37.0070   83.6990   -2.0520 C.3   183  PHE183      0.1605
     68  C         37.2270   82.7350   -0.8720 C.2   183  PHE183      0.2264
     69  O         36.7590   82.9890    0.2430 O.2   183  PHE183     -0.2867
     70  CB        35.7250   83.3600   -2.8420 C.3   183  PHE183      0.0534
     71  CG        35.4180   84.3440   -3.9530 C.ar  183  PHE183     -0.0203
     72  CD1       34.6960   85.5020   -3.6980 C.ar  183  PHE183     -0.0042
     73  CD2       35.8690   84.1190   -5.2490 C.ar  183  PHE183     -0.0042
     74  CE1       34.4290   86.4140   -4.7110 C.ar  183  PHE183     -0.0003
     75  CE2       35.6040   85.0270   -6.2700 C.ar  183  PHE183     -0.0003
     76  CZ        34.8820   86.1750   -6.0010 C.ar  183  PHE183     -0.0000
     77  N         37.3970   84.0020    2.9660 N.3   187  THR187     -0.1218
     78  CA        36.5690   83.3190    3.9540 C.3   187  THR187      0.1862
     79  C         37.3730   83.0150    5.2110 C.2   187  THR187      0.2287
     80  O         36.9430   83.3300    6.3210 O.2   187  THR187     -0.2866
     81  CB        35.9940   82.0000    3.3750 C.3   187  THR187      0.1770
     82  OG1       35.0240   82.3080    2.3640 O.3   187  THR187     -0.2211
     83  CG2       35.3360   81.1540    4.4630 C.3   187  THR187      0.0375
     84  N         25.8990   87.0210    9.4580 N.3   238  LEU238     -0.1245
     85  CA        25.4720   87.1400    8.0560 C.3   238  LEU238      0.1561
     86  C         23.9670   87.0190    7.8600 C.2   238  LEU238      0.2260
     87  O         23.2490   86.4580    8.7020 O.2   238  LEU238     -0.2867
     88  CB        26.1850   86.1070    7.1810 C.3   238  LEU238      0.0270
     89  CG        25.8120   84.6240    7.3540 C.3   238  LEU238      0.0019
     90  CD1       24.7020   84.1790    6.3960 C.3   238  LEU238      0.0001
     91  CD2       27.0400   83.7640    7.1270 C.3   238  LEU238      0.0001
     92  N         21.6000   85.9090    4.3710 N.3   240  LEU240     -0.1245
     93  CA        21.6850   85.4330    2.9950 C.3   240  LEU240      0.1561
     94  C         20.3110   85.0310    2.4800 C.2   240  LEU240      0.2260
     95  O         19.6840   84.1000    3.0080 O.2   240  LEU240     -0.2867
     96  CB        22.6420   84.2380    2.8970 C.3   240  LEU240      0.0270
     97  CG        22.7460   83.5830    1.5120 C.3   240  LEU240      0.0019
     98  CD1       23.2710   84.5740    0.4890 C.3   240  LEU240      0.0001
     99  CD2       23.6070   82.3270    1.5450 C.3   240  LEU240      0.0001
    100  N         25.7430   78.2690   -3.7910 N.3   247  LEU247     -0.1245
    101  CA        26.3360   79.6050   -3.6800 C.3   247  LEU247      0.1561
    102  C         27.6130   79.7080   -4.5210 C.2   247  LEU247      0.2260
    103  O         28.1300   80.7930   -4.7590 O.2   247  LEU247     -0.2867
    104  CB        26.6180   79.9160   -2.2170 C.3   247  LEU247      0.0270
    105  CG        26.7080   81.3730   -1.7710 C.3   247  LEU247      0.0019
    106  CD1       25.5260   82.2030   -2.2360 C.3   247  LEU247      0.0001
    107  CD2       26.8200   81.3980   -0.2560 C.3   247  LEU247      0.0001
    108  N         29.9260   74.9990   -3.2490 N.3   251  MET251     -0.1245
    109  CA        29.1910   75.4380   -2.0520 C.3   251  MET251      0.1570
    110  C         27.7140   75.1330   -2.1820 C.2   251  MET251      0.2261
    111  O         26.9280   75.9510   -2.6880 O.2   251  MET251     -0.2867
    112  CB        29.3800   76.9200   -1.7760 C.3   251  MET251      0.0387
    113  CG        30.7470   77.2890   -1.2490 C.3   251  MET251      0.0595
    114  SD        30.8050   79.0420   -0.8630 S.3   251  MET251     -0.1393
    115  CE        30.9880   79.7640   -2.4910 C.3   251  MET251      0.0692
    116  N         24.8670   75.2580   -0.6660 N.3   253  ALA253     -0.1245
    117  CA        24.3740   76.0560    0.4450 C.3   253  ALA253      0.1562
    118  C         22.9570   75.7340    0.9050 C.2   253  ALA253      0.2260
    119  O         22.6400   75.9310    2.0800 O.2   253  ALA253     -0.2867
    120  CB        24.4640   77.5360    0.0930 C.3   253  ALA253      0.0290
    121  N         18.7340   82.5310    4.9250 N.3   267  PHE267     -0.1241
    122  CA        19.5890   82.0800    6.0020 C.3   267  PHE267      0.1605
    123  C         20.0670   83.2810    6.8060 C.2   267  PHE267      0.2264
    124  O         20.3400   84.3490    6.2460 O.2   267  PHE267     -0.2867
    125  CB        20.8130   81.3690    5.4690 C.3   267  PHE267      0.0534
    126  CG        20.5240   80.1180    4.6920 C.ar  267  PHE267     -0.0203
    127  CD1       20.5280   78.8830    5.3230 C.ar  267  PHE267     -0.0042
    128  CD2       20.2940   80.1730    3.3250 C.ar  267  PHE267     -0.0042
    129  CE1       20.2860   77.7170    4.6240 C.ar  267  PHE267     -0.0003
    130  CE2       20.0640   79.0060    2.6030 C.ar  267  PHE267     -0.0003
    131  CZ        20.0610   77.7770    3.2520 C.ar  267  PHE267     -0.0000
    132  N         22.8680   83.9070   10.3770 N.3   269  VAL269     -0.1245
    133  CA        23.6580   83.4490   11.5090 C.3   269  VAL269      0.1561
    134  C         23.6370   84.5370   12.5710 C.2   269  VAL269      0.2260
    135  O         24.0460   85.6610   12.3140 O.2   269  VAL269     -0.2867
    136  CB        25.0990   83.0860   11.1130 C.3   269  VAL269      0.0252
    137  CG1       25.8350   82.5030   12.3170 C.3   269  VAL269      0.0019
    138  CG2       25.0850   82.0630    9.9820 C.3   269  VAL269      0.0019
    139  N         31.6490   77.9640   13.0120 N.3   278  LEU278     -0.1245
    140  CA        31.5690   78.5890   11.6860 C.3   278  LEU278      0.1561
    141  C         32.4610   77.9020   10.6810 C.2   278  LEU278      0.2260
    142  O         32.0570   77.7020    9.5450 O.2   278  LEU278     -0.2867
    143  CB        31.9770   80.0680   11.7060 C.3   278  LEU278      0.0270
    144  CG        30.9000   81.1060   11.3850 C.3   278  LEU278      0.0019
    145  CD1       30.2720   81.6040   12.6750 C.3   278  LEU278      0.0001
    146  CD2       31.4770   82.2860   10.6060 C.3   278  LEU278      0.0001
    147  N         30.9370   74.5530    9.7140 N.3   281  LEU281     -0.1231
    148  CA        29.7730   74.7860    8.8450 C.3   281  LEU281      0.1693
    149  C         30.2550   75.0830    7.4350 C.2   281  LEU281      0.2592
    150  O         29.8140   74.4550    6.4740 O.2   281  LEU281     -0.2718
    151  CB        28.9270   75.9520    9.3740 C.3   281  LEU281      0.0284
    152  CG        28.2670   75.6760   10.7350 C.3   281  LEU281      0.0019
    153  CD1       27.5890   76.9130   11.3010 C.3   281  LEU281      0.0001
    154  CD2       27.2830   74.5180   10.6470 C.3   281  LEU281      0.0001
    155  N         31.2090   76.0040    7.3310 N.am  282  PHE282     -0.1976
    156  CA        31.7750   76.3510    6.0470 C.3   282  PHE282      0.1639
    157  C         32.2960   75.1340    5.2910 C.2   282  PHE282      0.2290
    158  O         31.9620   74.9600    4.1190 O.2   282  PHE282     -0.2864
    159  CB        32.8940   77.3770    6.2010 C.3   282  PHE282      0.0560
    160  CG        33.5920   77.6750    4.9190 C.ar  282  PHE282     -0.0200
    161  CD1       32.9000   78.2650    3.8690 C.ar  282  PHE282     -0.0042
    162  CD2       34.9200   77.3290    4.7340 C.ar  282  PHE282     -0.0042
    163  CE1       33.5340   78.5190    2.6640 C.ar  282  PHE282     -0.0003
    164  CE2       35.5580   77.5840    3.5290 C.ar  282  PHE282     -0.0003
    165  CZ        34.8690   78.1880    2.5010 C.ar  282  PHE282     -0.0000
    166  N         29.6640   72.7940    4.0200 N.3   285  MET285     -0.1245
    167  CA        28.9110   73.3520    2.8850 C.3   285  MET285      0.1570
    168  C         29.2550   72.7360    1.5400 C.2   285  MET285      0.2261
    169  O         28.4060   72.6810    0.6490 O.2   285  MET285     -0.2867
    170  CB        29.1480   74.8450    2.7650 C.3   285  MET285      0.0387
    171  CG        28.5240   75.7100    3.8370 C.3   285  MET285      0.0595
    172  SD        28.5410   77.4530    3.3280 S.3   285  MET285     -0.1393
    173  CE        27.5920   77.3160    1.8300 C.3   285  MET285      0.0692
    174  N         26.1380   71.1570    6.2650 N.3   290  HIS290     -0.1241
    175  CA        26.1660   72.1740    7.2990 C.3   290  HIS290      0.1621
    176  C         24.8750   72.3200    8.1270 C.2   290  HIS290      0.2264
    177  O         24.9200   72.8000    9.2790 O.2   290  HIS290     -0.2867
    178  CB        26.5440   73.5280    6.6760 C.3   290  HIS290      0.0745
    179  CG        25.6630   73.9360    5.5370 C.ar  290  HIS290      0.0817
    180  ND1       25.6830   73.2980    4.3140 N.ar  290  HIS290     -0.2268
    181  CD2       24.7230   74.9040    5.4400 C.ar  290  HIS290      0.1154
    182  CE1       24.7910   73.8550    3.5160 C.ar  290  HIS290      0.1986
    183  NE2       24.2000   74.8360    4.1720 N.ar  290  HIS290     -0.2212
    184  N         22.6000   79.2570   13.5020 N.3   298  LEU298     -0.1245
    185  CA        22.2240   79.1940   12.0770 C.3   298  LEU298      0.1561
    186  C         20.7230   78.9640   11.9590 C.2   298  LEU298      0.2260
    187  O         20.2030   77.9670   12.4510 O.2   298  LEU298     -0.2867
    188  CB        23.0020   78.0890   11.3570 C.3   298  LEU298      0.0270
    189  CG        22.7510   77.8720    9.8590 C.3   298  LEU298      0.0019
    190  CD1       22.8990   79.1480    9.0360 C.3   298  LEU298      0.0001
    191  CD2       23.6850   76.7950    9.3440 C.3   298  LEU298      0.0001
    192  N         26.1370   92.3280   -1.1780 N.3   315  ALA315     -0.1245
    193  CA        26.4550   91.6240   -2.4140 C.3   315  ALA315      0.1562
    194  C         25.1570   91.0870   -3.0200 C.2   315  ALA315      0.2260
    195  O         24.4310   90.3280   -2.3690 O.2   315  ALA315     -0.2867
    196  CB        27.4340   90.5050   -2.1590 C.3   315  ALA315      0.0290
    197  N         24.0360   89.0060   -6.2640 N.3   317  ASP317     -0.1225
    198  CA        24.5410   88.1340   -7.3190 C.3   317  ASP317      0.1805
    199  C         26.0460   88.2940   -7.4060 C.2   317  ASP317      0.2598
    200  O         26.6210   88.2490   -8.4830 O.2   317  ASP317     -0.2718
    201  CB        23.8490   88.4340   -8.6750 C.3   317  ASP317      0.1424
    202  CG        22.3420   88.3020   -8.6110 C.2   317  ASP317      0.3668
    203  OD1       21.8050   87.6300   -7.6850 O.co2 317  ASP317     -0.2456
    204  OD2       21.6560   88.8530   -9.5040 O.co2 317  ASP317     -0.2456
    205  N         26.6820   88.4800   -6.2520 N.am  318  GLY318     -0.1957
    206  CA        28.1350   88.6540   -6.1650 C.3   318  GLY318      0.1869
    207  C         28.6650   90.0580   -6.4290 C.2   318  GLY318      0.2309
    208  O         29.8510   90.3120   -6.2380 O.2   318  GLY318     -0.2863
@<TRIPOS>BOND
     1     1     2    1
     2     4     3    2
     3     3     2    1
     4     2     5    1
     5    12    11    2
     6     7     6   ar
     7     5     6    1
     8    11    10    1
     9     6     8   ar
    10    10     9    1
    11   204   202   ar
    12   201   202    1
    13   201   198    1
    14   202   203   ar
    15   200   199    2
    16    13    14    1
    17    17    14    1
    18    17    18    1
    19   199   198    1
    20   199   205   am
    21    14    15    1
    22   198   197    1
    23    20    18    1
    24    19    18    1
    25   207   208    2
    26   207   206    1
    27    75    76   ar
    28    75    73   ar
    29   205   206    1
    30    76    74   ar
    31    15    21   am
    32    15    16    2
    33    21    22    1
    34    73    71   ar
    35   103   102    2
    36    74    72   ar
    37   102   101    1
    38    26    25    1
    39    24    23    2
    40    22    25    1
    41    22    23    1
    42    71    72   ar
    43    71    70    1
    44   100   101    1
    45   101   104    1
    46   108   109    1
    47   194   193    1
    48   194   195    2
    49    66    67    1
    50    70    67    1
    51    64    63   ar
    52   111   110    2
    53    61    60    2
    54    63    65   ar
    55    63    62    1
    56   115   114    1
    57   193   196    1
    58   193   192    1
    59   106   105    1
    60   104   105    1
    61    62    59    1
    62   110   109    1
    63   109   112    1
    64    67    68    1
    65   112   113    1
    66   105   107    1
    67    60    59    1
    68    59    58    1
    69   113   114    1
    70    68    69    2
    71   116   117    1
    72    58    53   am
    73    54    53    2
    74    27    28    1
    75   120   117    1
    76    53    52    1
    77   117   118    1
    78    98    97    1
    79   169   168    2
    80    31    28    1
    81    49    47    1
    82   118   119    2
    83    28    29    1
    84    56    55    1
    85    46    45    2
    86    30    29    2
    87    97    99    1
    88    97    96    1
    89   168   167    1
    90    52    55    1
    91    52    51    1
    92   173   172    1
    93    55    57    1
    94    45    44    1
    95    82    81    1
    96    47    44    1
    97    47    48    1
    98    94    93    1
    99    94    95    2
   100   165   163   ar
   101   165   164   ar
   102   130   131   ar
   103   130   128   ar
   104   163   161   ar
   105   170   167    1
   106   170   171    1
   107    44    43    1
   108   167   166    1
   109    96    93    1
   110    77    78    1
   111    93    92    1
   112    48    50    1
   113   131   129   ar
   114   128   126   ar
   115   172   171    1
   116    81    78    1
   117    81    83    1
   118   182   183   ar
   119   182   180   ar
   120   164   162   ar
   121   161   160   ar
   122    78    79    1
   123   158   157    2
   124   183   181   ar
   125    43    34   am
   126   180   179   ar
   127    35    34    2
   128   129   127   ar
   129   126   127   ar
   130   126   125    1
   131   162   160   ar
   132   160   159    1
   133   121   122    1
   134    34    33    1
   135    79    80    2
   136   157   156    1
   137   181   179   ar
   138   125   122    1
   139   179   178    1
   140   122   123    1
   141   156   159    1
   142   156   155    1
   143    40    38   ar
   144    40    42   ar
   145    38    37   ar
   146   124   123    2
   147   174   175    1
   148    90    89    1
   149    33    32    1
   150    33    36    1
   151   150   149    2
   152   178   175    1
   153    91    89    1
   154    42    41   ar
   155    37    36    1
   156    37    39   ar
   157    88    89    1
   158    88    85    1
   159   175   176    1
   160   155   149   am
   161   149   148    1
   162    86    85    1
   163    86    87    2
   164    85    84    1
   165   176   177    2
   166    41    39   ar
   167   148   151    1
   168   148   147    1
   169   190   189    1
   170   191   189    1
   171   151   152    1
   172   142   141    2
   173   189   188    1
   174   138   136    1
   175   132   133    1
   176   146   144    1
   177   154   152    1
   178   141   140    1
   179   152   153    1
   180   136   133    1
   181   136   137    1
   182   188   185    1
   183   144   143    1
   184   144   145    1
   185   133   134    1
   186   140   143    1
   187   140   139    1
   188   186   185    1
   189   186   187    2
   190   185   184    1
   191   135   134    2
