@<TRIPOS>MOLECULE
tmp/3vzcF00.pdb
 153 143 0 0 0
SMALL
GASTEIGER

@<TRIPOS>ATOM
      1  N        -42.8430  -91.2830   28.4370 N.3   168  PHE168     -0.1227
      2  CA       -44.0510  -90.4800   28.2160 C.3   168  PHE168      0.1736
      3  C        -43.8610  -89.0020   28.5850 C.2   168  PHE168      0.2595
      4  O        -44.0660  -88.1300   27.7350 O.2   168  PHE168     -0.2718
      5  CB       -45.2510  -91.0930   28.9550 C.3   168  PHE168      0.0547
      6  CG       -46.5820  -90.4510   28.6370 C.ar  168  PHE168     -0.0202
      7  CD1      -46.9390  -89.2170   29.1880 C.ar  168  PHE168     -0.0042
      8  CD2      -47.5080  -91.1100   27.8360 C.ar  168  PHE168     -0.0042
      9  CE1      -48.1740  -88.6380   28.9130 C.ar  168  PHE168     -0.0003
     10  CE2      -48.7480  -90.5400   27.5600 C.ar  168  PHE168     -0.0003
     11  CZ       -49.0770  -89.3020   28.0920 C.ar  168  PHE168     -0.0000
     12  N        -43.4530  -88.7340   29.8340 N.am  169  ILE169     -0.1980
     13  CA       -43.2980  -87.3560   30.3290 C.3   169  ILE169      0.1595
     14  C        -42.2380  -86.5830   29.5300 C.2   169  ILE169      0.2287
     15  O        -42.4860  -85.4470   29.1170 O.2   169  ILE169     -0.2864
     16  CB       -43.0760  -87.2950   31.8730 C.3   169  ILE169      0.0276
     17  CG1      -44.4110  -87.4150   32.6150 C.3   169  ILE169      0.0022
     18  CG2      -42.4520  -85.9710   32.3100 C.3   169  ILE169      0.0022
     19  CD1      -45.1840  -88.6950   32.3680 C.3   169  ILE169      0.0001
     20  N        -43.7760  -86.0050   25.9460 N.3   172  VAL172     -0.1231
     21  CA       -44.7760  -84.9290   26.0370 C.3   172  VAL172      0.1692
     22  C        -44.1130  -83.5580   26.2850 C.2   172  VAL172      0.2592
     23  O        -44.6180  -82.5400   25.8110 O.2   172  VAL172     -0.2718
     24  CB       -45.8760  -85.2150   27.1010 C.3   172  VAL172      0.0266
     25  CG1      -46.8600  -84.0510   27.2440 C.3   172  VAL172      0.0020
     26  CG2      -46.6390  -86.4790   26.7560 C.3   172  VAL172      0.0020
     27  N        -42.9920  -83.5360   27.0160 N.am  173  ASP173     -0.1974
     28  CA       -42.2190  -82.2930   27.2420 C.3   173  ASP173      0.1709
     29  C        -41.5370  -81.8230   25.9540 C.2   173  ASP173      0.2293
     30  O        -41.6610  -80.6570   25.5780 O.2   173  ASP173     -0.2864
     31  CB       -41.1630  -82.4670   28.3510 C.3   173  ASP173      0.1436
     32  CG       -41.7220  -82.2530   29.7610 C.2   173  ASP173      0.3671
     33  OD1      -40.9020  -82.2240   30.7040 O.co2 173  ASP173     -0.2456
     34  OD2      -42.9580  -82.1160   29.9360 O.co2 173  ASP173     -0.2456
     35  N        -49.4440  -79.5060   28.5590 N.3   183  PHE183     -0.1241
     36  CA       -49.0730  -80.7730   29.1720 C.3   183  PHE183      0.1605
     37  C        -50.2510  -81.7340   29.1040 C.2   183  PHE183      0.2264
     38  O        -50.0920  -82.8840   28.6960 O.2   183  PHE183     -0.2867
     39  CB       -48.6120  -80.5700   30.6220 C.3   183  PHE183      0.0534
     40  CG       -47.3320  -79.7870   30.7480 C.ar  183  PHE183     -0.0203
     41  CD1      -46.1700  -80.2070   30.0890 C.ar  183  PHE183     -0.0042
     42  CD2      -47.2820  -78.6330   31.5320 C.ar  183  PHE183     -0.0042
     43  CE1      -44.9930  -79.4840   30.1950 C.ar  183  PHE183     -0.0003
     44  CE2      -46.1020  -77.9090   31.6480 C.ar  183  PHE183     -0.0003
     45  CZ       -44.9580  -78.3360   30.9790 C.ar  183  PHE183     -0.0000
     46  N        -50.3870  -84.7510   26.7660 N.3   187  THR187     -0.1218
     47  CA       -50.7460  -86.0090   27.4260 C.3   187  THR187      0.1862
     48  C        -51.9100  -86.7130   26.7330 C.2   187  THR187      0.2287
     49  O        -51.8100  -87.8960   26.4150 O.2   187  THR187     -0.2866
     50  CB       -51.0870  -85.7900   28.9200 C.3   187  THR187      0.1770
     51  OG1      -49.9400  -85.2610   29.5950 O.3   187  THR187     -0.2211
     52  CG2      -51.5100  -87.0940   29.6010 C.3   187  THR187      0.0375
     53  N        -43.0690  -94.7670   31.6430 N.3   239  LEU239     -0.1245
     54  CA       -42.3470  -93.6020   32.2000 C.3   239  LEU239      0.1561
     55  C        -41.4660  -93.9270   33.4170 C.2   239  LEU239      0.2260
     56  O        -41.8070  -94.8030   34.2050 O.2   239  LEU239     -0.2867
     57  CB       -43.3170  -92.4390   32.5260 C.3   239  LEU239      0.0270
     58  CG       -44.3580  -92.5760   33.6500 C.3   239  LEU239      0.0019
     59  CD1      -43.9150  -91.8980   34.9420 C.3   239  LEU239      0.0001
     60  CD2      -45.7100  -92.0250   33.2250 C.3   239  LEU239      0.0001
     61  N        -39.5460  -91.5490   36.5020 N.3   241  LEU241     -0.1245
     62  CA       -39.5130  -90.1910   37.0570 C.3   241  LEU241      0.1561
     63  C        -38.8200  -90.1210   38.4170 C.2   241  LEU241      0.2260
     64  O        -39.3750  -90.5440   39.4360 O.2   241  LEU241     -0.2867
     65  CB       -40.9300  -89.5970   37.1490 C.3   241  LEU241      0.0270
     66  CG       -41.0890  -88.2410   37.8620 C.3   241  LEU241      0.0019
     67  CD1      -40.4630  -87.1030   37.0580 C.3   241  LEU241      0.0001
     68  CD2      -42.5520  -87.9350   38.1640 C.3   241  LEU241      0.0001
     69  N        -45.0510  -81.9090   40.2900 N.3   248  LEU248     -0.1245
     70  CA       -44.4870  -81.9540   38.9200 C.3   248  LEU248      0.1561
     71  C        -44.7980  -80.6890   38.1080 C.2   248  LEU248      0.2260
     72  O        -43.9860  -80.2550   37.2910 O.2   248  LEU248     -0.2867
     73  CB       -45.0080  -83.1720   38.1450 C.3   248  LEU248      0.0270
     74  CG       -44.0350  -84.2730   37.7240 C.3   248  LEU248      0.0019
     75  CD1      -44.7930  -85.3830   37.0190 C.3   248  LEU248      0.0001
     76  CD2      -42.9450  -83.7260   36.8180 C.3   248  LEU248      0.0001
     77  N        -50.0020  -80.2260   39.4650 N.3   252  MET252     -0.1245
     78  CA       -49.6370  -81.6390   39.5180 C.3   252  MET252      0.1570
     79  C        -48.9480  -81.9900   40.8560 C.2   252  MET252      0.2261
     80  O        -47.7450  -81.7730   41.0420 O.2   252  MET252     -0.2867
     81  CB       -48.7870  -82.0250   38.3040 C.3   252  MET252      0.0387
     82  CG       -49.5440  -81.9240   36.9970 C.3   252  MET252      0.0595
     83  SD       -48.5030  -82.2550   35.5580 S.3   252  MET252     -0.1393
     84  CE       -47.8990  -80.6170   35.1710 C.3   252  MET252      0.0692
     85  N        -47.7380  -84.6470   42.3740 N.3   254  ALA254     -0.1245
     86  CA       -47.2800  -86.0040   42.0150 C.3   254  ALA254      0.1562
     87  C        -46.7260  -86.8770   43.1540 C.2   254  ALA254      0.2260
     88  O        -46.5690  -88.0980   42.9760 O.2   254  ALA254     -0.2867
     89  CB       -46.2450  -85.9130   40.9050 C.3   254  ALA254      0.0290
     90  N        -40.6060  -92.7020   40.9040 N.3   268  PHE268     -0.1241
     91  CA       -41.7830  -93.3880   40.4140 C.3   268  PHE268      0.1605
     92  C        -41.3960  -94.0810   39.1180 C.2   268  PHE268      0.2264
     93  O        -40.3850  -93.7410   38.4960 O.2   268  PHE268     -0.2867
     94  CB       -42.9140  -92.4170   40.1000 C.3   268  PHE268      0.0534
     95  CG       -43.3620  -91.5730   41.2550 C.ar  268  PHE268     -0.0203
     96  CD1      -44.5470  -91.8540   41.9100 C.ar  268  PHE268     -0.0042
     97  CD2      -42.6340  -90.4550   41.6480 C.ar  268  PHE268     -0.0042
     98  CE1      -44.9930  -91.0560   42.9530 C.ar  268  PHE268     -0.0003
     99  CE2      -43.0680  -89.6530   42.6990 C.ar  268  PHE268     -0.0003
    100  CZ       -44.2510  -89.9530   43.3510 C.ar  268  PHE268     -0.0000
    101  N        -54.3290  -94.6700   32.6730 N.3   279  LEU279     -0.1245
    102  CA       -53.1950  -93.7560   32.6530 C.3   279  LEU279      0.1561
    103  C        -53.6570  -92.3020   32.7500 C.2   279  LEU279      0.2260
    104  O        -53.0150  -91.4720   33.4220 O.2   279  LEU279     -0.2867
    105  CB       -52.3400  -93.9840   31.4090 C.3   279  LEU279      0.0270
    106  CG       -50.8450  -94.1620   31.7020 C.3   279  LEU279      0.0019
    107  CD1      -50.1680  -94.9760   30.6090 C.3   279  LEU279      0.0001
    108  CD2      -50.1290  -92.8340   31.9170 C.3   279  LEU279      0.0001
    109  N        -54.8460  -91.6580   36.4370 N.3   282  LEU282     -0.1231
    110  CA       -53.6400  -91.3660   37.2090 C.3   282  LEU282      0.1693
    111  C        -53.2830  -89.8950   37.0600 C.2   282  LEU282      0.2592
    112  O        -53.1260  -89.1860   38.0600 O.2   282  LEU282     -0.2718
    113  CB       -52.4660  -92.2180   36.7370 C.3   282  LEU282      0.0284
    114  CG       -52.5770  -93.7360   36.8560 C.3   282  LEU282      0.0019
    115  CD1      -51.4340  -94.3870   36.1000 C.3   282  LEU282      0.0001
    116  CD2      -52.5920  -94.1800   38.3130 C.3   282  LEU282      0.0001
    117  N        -53.1810  -89.4480   35.8040 N.am  283  PHE283     -0.1976
    118  CA       -52.8530  -88.0650   35.4870 C.3   283  PHE283      0.1639
    119  C        -53.8600  -87.0660   36.0800 C.2   283  PHE283      0.2290
    120  O        -53.4650  -86.1080   36.7570 O.2   283  PHE283     -0.2864
    121  CB       -52.7160  -87.8740   33.9690 C.3   283  PHE283      0.0560
    122  CG       -52.5340  -86.4350   33.5470 C.ar  283  PHE283     -0.0200
    123  CD1      -51.2650  -85.8760   33.4580 C.ar  283  PHE283     -0.0042
    124  CD2      -53.6330  -85.6350   33.2390 C.ar  283  PHE283     -0.0042
    125  CE1      -51.0940  -84.5550   33.0650 C.ar  283  PHE283     -0.0003
    126  CE2      -53.4680  -84.3100   32.8570 C.ar  283  PHE283     -0.0003
    127  CZ       -52.1970  -83.7710   32.7670 C.ar  283  PHE283     -0.0000
    128  N        -53.9220  -86.8030   39.8060 N.3   286  MET286     -0.1245
    129  CA       -52.6850  -86.1740   40.2500 C.3   286  MET286      0.1570
    130  C        -52.8460  -84.6790   40.5250 C.2   286  MET286      0.2261
    131  O        -52.0350  -84.0830   41.2270 O.2   286  MET286     -0.2867
    132  CB       -51.5500  -86.4380   39.2550 C.3   286  MET286      0.0387
    133  CG       -50.2600  -85.6950   39.5620 C.3   286  MET286      0.0595
    134  SD       -48.8500  -86.2380   38.5880 S.3   286  MET286     -0.1393
    135  CE       -49.3350  -85.7190   36.9390 C.3   286  MET286      0.0692
    136  N        -53.7090  -89.8030   43.2440 N.3   291  HIS291     -0.1241
    137  CA       -53.3940  -90.8500   42.2650 C.3   291  HIS291      0.1621
    138  C        -52.8380  -92.1170   42.8520 C.2   291  HIS291      0.2264
    139  O        -52.9790  -93.1910   42.2600 O.2   291  HIS291     -0.2867
    140  CB       -52.4920  -90.3170   41.1470 C.3   291  HIS291      0.0745
    141  CG       -51.1620  -89.7850   41.6240 C.ar  291  HIS291      0.0817
    142  ND1      -51.0440  -88.6160   42.2900 N.ar  291  HIS291     -0.2268
    143  CD2      -49.8690  -90.2970   41.4920 C.ar  291  HIS291      0.1154
    144  CE1      -49.7430  -88.3930   42.5740 C.ar  291  HIS291      0.1986
    145  NE2      -49.0260  -89.4220   42.0870 N.ar  291  HIS291     -0.2212
    146  N        -48.1220  -98.5710   38.5270 N.3   299  LEU299     -0.1245
    147  CA       -47.3740  -97.4390   39.0600 C.3   299  LEU299      0.1561
    148  C        -46.5770  -97.8510   40.2940 C.2   299  LEU299      0.2260
    149  O        -47.1440  -98.1210   41.3570 O.2   299  LEU299     -0.2867
    150  CB       -48.3190  -96.2670   39.3800 C.3   299  LEU299      0.0270
    151  CG       -47.7710  -94.9710   39.9970 C.3   299  LEU299      0.0019
    152  CD1      -46.7990  -94.2460   39.0690 C.3   299  LEU299      0.0001
    153  CD2      -48.9130  -94.0480   40.4090 C.3   299  LEU299      0.0001
@<TRIPOS>BOND
     1    30    29    2
     2    23    22    2
     3    20    21    1
     4    29    28    1
     5    21    22    1
     6    21    24    1
     7    22    27   am
     8    49    48    2
     9    48    47    1
    10    26    24    1
    11    46    47    1
    12    27    28    1
    13    24    25    1
    14    28    31    1
    15    47    50    1
    16    10     8   ar
    17    10    11   ar
    18     4     3    2
    19     8     6   ar
    20    11     9   ar
    21     2     1    1
    22     2     3    1
    23     2     5    1
    24    31    32    1
    25    35    36    1
    26     3    12   am
    27     6     5    1
    28     6     7   ar
    29    38    37    2
    30     9     7   ar
    31    50    51    1
    32    50    52    1
    33    37    36    1
    34    15    14    2
    35    36    39    1
    36    14    13    1
    37    32    34   ar
    38    32    33   ar
    39    12    13    1
    40    41    43   ar
    41    41    40   ar
    42    43    45   ar
    43    13    16    1
    44   107   106    1
    45    39    40    1
    46    40    42   ar
    47    45    44   ar
    48   105   106    1
    49   105   102    1
    50    42    44   ar
    51    53    54    1
    52   106   108    1
    53    16    18    1
    54    16    17    1
    55    54    57    1
    56    54    55    1
    57    19    17    1
    58    57    58    1
    59   102   101    1
    60   102   103    1
    61   103   104    2
    62   127   126   ar
    63   127   125   ar
    64   126   124   ar
    65   125   123   ar
    66    60    58    1
    67   124   122   ar
    68    55    56    2
    69   123   122   ar
    70   122   121    1
    71    58    59    1
    72   121   118    1
    73    84    83    1
    74   118   117    1
    75   118   119    1
    76    83    82    1
    77   117   111   am
    78   119   120    2
    79   115   114    1
    80   109   110    1
    81    61    62    1
    82   113   114    1
    83   113   110    1
    84    76    74    1
    85   114   116    1
    86   135   134    1
    87    82    81    1
    88    75    74    1
    89    62    65    1
    90    62    63    1
    91    67    66    1
    92   111   110    1
    93   111   112    2
    94    65    66    1
    95    72    71    2
    96    74    73    1
    97    66    68    1
    98    71    70    1
    99    73    70    1
   100    81    78    1
   101    63    64    2
   102    93    92    2
   103   146   147    1
   104   134   133    1
   105    70    69    1
   106   147   150    1
   107   147   148    1
   108   152   151    1
   109    92    91    1
   110   132   133    1
   111   132   129    1
   112   150   151    1
   113    77    78    1
   114    78    79    1
   115   128   129    1
   116   151   153    1
   117    94    91    1
   118    94    95    1
   119   129   130    1
   120   148   149    2
   121    91    90    1
   122   130   131    2
   123    79    80    2
   124    89    86    1
   125   140   141    1
   126   140   137    1
   127    95    97   ar
   128    95    96   ar
   129   143   141   ar
   130   143   145   ar
   131   141   142   ar
   132    97    99   ar
   133    96    98   ar
   134    86    85    1
   135    86    87    1
   136   145   144   ar
   137   139   138    2
   138   137   138    1
   139   137   136    1
   140   142   144   ar
   141    99   100   ar
   142    98   100   ar
   143    88    87    2
