@<TRIPOS>MOLECULE
tmp/3vzdC01.pdb
 175 169 0 0 0
SMALL
GASTEIGER

@<TRIPOS>ATOM
      1  N         36.9510  -40.4180   31.7310 N.3    17  ASN17      -0.1226
      2  CA        37.1210  -40.0820   30.3360 C.3    17  ASN17       0.1770
      3  C         38.3950  -40.7570   29.8300 C.2    17  ASN17       0.2439
      4  O         39.5090  -40.3730   30.2200 O.2    17  ASN17      -0.2733
      5  CB        37.2260  -38.5910   30.1570 C.3    17  ASN17       0.1168
      6  CG        37.3350  -38.1790   28.7150 C.2    17  ASN17       0.2627
      7  OD1       37.5540  -38.9970   27.7960 O.2    17  ASN17      -0.2716
      8  ND2       37.1570  -36.8940   28.4950 N.am   17  ASN17      -0.0877
      9  N         38.2310  -41.7770   28.9670 N.am   18  PRO18      -0.2718
     10  CA        39.3510  -42.6160   28.5530 C.3    18  PRO18       0.1535
     11  C         40.3500  -41.8790   27.6520 C.2    18  PRO18       0.2598
     12  O         41.5650  -42.2070   27.6680 O.2    18  PRO18      -0.2715
     13  CB        38.6610  -43.8000   27.8420 C.3    18  PRO18       0.0310
     14  CG        37.4050  -43.1900   27.3190 C.3    18  PRO18       0.0237
     15  CD        36.9590  -42.2330   28.3870 C.3    18  PRO18       0.0939
     16  N         39.8940  -40.9000   26.8860 N.am   19  ARG19      -0.1964
     17  CA        40.8880  -40.0850   26.2550 C.3    19  ARG19       0.1729
     18  C         40.9950  -38.8140   27.0770 C.2    19  ARG19       0.2616
     19  O         40.1690  -37.8730   26.8980 O.2    19  ARG19      -0.2715
     20  CB        40.6190  -39.8370   24.7680 C.3    19  ARG19       0.0348
     21  CG        39.2540  -39.3510   24.3860 C.3    19  ARG19       0.0492
     22  CD        38.8970  -39.9430   23.0330 C.3    19  ARG19       0.2205
     23  NE        37.5340  -39.5560   22.6770 N.pl3  19  ARG19      -0.0865
     24  CZ        36.8950  -39.8840   21.5500 C.cat  19  ARG19       0.5346
     25  NH1       35.6400  -39.4590   21.3600 N.pl3  19  ARG19       0.1354
     26  NH2       37.4990  -40.6310   20.6190 N.pl3  19  ARG19       0.1354
     27  N         41.9780  -38.8170   28.0050 N.am   20  GLY20      -0.1955
     28  CA        42.1500  -37.7520   29.0230 C.3    20  GLY20       0.1869
     29  C         42.6400  -36.3890   28.5240 C.2    20  GLY20       0.2309
     30  O         41.9140  -35.6210   27.8530 O.2    20  GLY20      -0.2863
     31  N         33.0370  -42.2160   29.8830 N.3    49  THR49      -0.1203
     32  CA        32.2740  -41.2150   29.1790 C.3    49  THR49       0.1994
     33  C         32.7480  -41.2020   27.7460 C.2    49  THR49       0.2618
     34  O         33.9050  -41.5100   27.4720 O.2    49  THR49      -0.2717
     35  CB        32.4540  -39.7940   29.7670 C.3    49  THR49       0.1784
     36  OG1       33.8310  -39.3450   29.5990 O.3    49  THR49      -0.2211
     37  CG2       32.0110  -39.7730   31.2240 C.3    49  THR49       0.0376
     38  N         31.8640  -40.8070   26.8360 N.am   50  GLU50      -0.1965
     39  CA        32.0810  -41.0460   25.4030 C.3    50  GLU50       0.1733
     40  C         32.0400  -39.7670   24.5510 C.2    50  GLU50       0.2616
     41  O         32.4610  -39.7910   23.3880 O.2    50  GLU50      -0.2715
     42  CB        31.0360  -42.0660   24.8810 C.3    50  GLU50       0.0429
     43  CG        31.2580  -43.4780   25.4070 C.3    50  GLU50       0.1163
     44  CD        32.6610  -44.0320   25.0960 C.2    50  GLU50       0.3649
     45  OE1       33.2570  -44.7020   25.9570 O.co2  50  GLU50      -0.2457
     46  OE2       33.1840  -43.7550   23.9950 O.co2  50  GLU50      -0.2457
     47  N         31.5040  -38.6840   25.1140 N.am   51  ARG51      -0.1963
     48  CA        31.2310  -37.4520   24.3610 C.3    51  ARG51       0.1729
     49  C         30.8310  -36.3770   25.3340 C.2    51  ARG51       0.2616
     50  O         30.5740  -36.6450   26.5370 O.2    51  ARG51      -0.2715
     51  CB        30.1050  -37.6380   23.3120 C.3    51  ARG51       0.0348
     52  CG        28.6990  -37.9930   23.9050 C.3    51  ARG51       0.0492
     53  CD        28.0810  -39.2320   23.2210 C.3    51  ARG51       0.2205
     54  NE        27.3890  -40.0980   24.1830 N.pl3  51  ARG51      -0.0865
     55  CZ        27.3680  -41.4450   24.1610 C.cat  51  ARG51       0.5346
     56  NH1       27.9990  -42.1690   23.2180 N.pl3  51  ARG51       0.1354
     57  NH2       26.6850  -42.0730   25.1140 N.pl3  51  ARG51       0.1354
     58  N         30.7780  -35.1600   24.8090 N.am   52  ARG52      -0.1977
     59  CA        30.3210  -33.9910   25.5760 C.3    52  ARG52       0.1597
     60  C         28.8830  -34.2600   26.1220 C.2    52  ARG52       0.2287
     61  O         28.0030  -34.8660   25.4180 O.2    52  ARG52      -0.2864
     62  CB        30.4070  -32.7300   24.6940 C.3    52  ARG52       0.0334
     63  CG        30.0730  -31.3730   25.4040 C.3    52  ARG52       0.0492
     64  CD        30.3620  -30.1420   24.4910 C.3    52  ARG52       0.2205
     65  NE        31.5730  -29.4070   24.9080 N.pl3  52  ARG52      -0.0865
     66  CZ        31.7810  -28.0860   24.7530 C.cat  52  ARG52       0.5346
     67  NH1       30.8510  -27.3140   24.1720 N.pl3  52  ARG52       0.1354
     68  NH2       32.9270  -27.5240   25.1990 N.pl3  52  ARG52       0.1354
     69  N         39.1640  -37.2250   35.1900 N.3    74  SER74      -0.1202
     70  CA        39.2260  -36.4450   33.9830 C.3    74  SER74       0.2020
     71  C         39.9110  -35.1060   34.2120 C.2    74  SER74       0.2619
     72  O         40.7550  -34.9940   35.1280 O.2    74  SER74      -0.2717
     73  CB        37.8360  -36.1180   33.5680 C.3    74  SER74       0.2103
     74  OG        37.8580  -35.9130   32.1660 O.3    74  SER74      -0.2182
     75  N         39.5330  -34.0980   33.4190 N.am   75  GLY75      -0.1942
     76  CA        39.7510  -32.6650   33.7560 C.3    75  GLY75       0.2014
     77  C         38.6100  -31.9490   34.5160 C.2    75  GLY75       0.2639
     78  O         37.6500  -32.5650   35.0410 O.2    75  GLY75      -0.2714
     79  N         38.7000  -30.6160   34.5850 N.am   76  ASP76      -0.1957
     80  CA        37.7580  -29.8660   35.4230 C.3    76  ASP76       0.1840
     81  C         36.4170  -29.9230   34.7160 C.2    76  ASP76       0.2623
     82  O         35.3460  -29.8340   35.3570 O.2    76  ASP76      -0.2715
     83  CB        38.2210  -28.3980   35.5970 C.3    76  ASP76       0.1450
     84  CG        39.5790  -28.2820   36.2820 C.2    76  ASP76       0.3671
     85  OD1       39.6960  -28.8810   37.3970 O.co2  76  ASP76      -0.2456
     86  OD2       40.5180  -27.6040   35.6840 O.co2  76  ASP76      -0.2456
     87  N         36.4770  -30.0990   33.4000 N.am   77  GLY77      -0.1940
     88  CA        35.2700  -30.0940   32.5340 C.3    77  GLY77       0.2014
     89  C         34.2870  -31.1940   32.8820 C.2    77  GLY77       0.2638
     90  O         33.0700  -30.9830   32.8920 O.2    77  GLY77      -0.2714
     91  N         34.7790  -32.3590   33.2290 N.am   78  LEU78      -0.1977
     92  CA        33.8440  -33.3910   33.5710 C.3    78  LEU78       0.1596
     93  C         33.1490  -33.0440   34.8730 C.2    78  LEU78       0.2287
     94  O         31.9630  -33.2840   35.0140 O.2    78  LEU78      -0.2864
     95  CB        34.5270  -34.7630   33.7490 C.3    78  LEU78       0.0297
     96  CG        34.2140  -35.9030   32.7950 C.3    78  LEU78       0.0022
     97  CD1       34.1950  -37.3100   33.5180 C.3    78  LEU78       0.0001
     98  CD2       32.9510  -35.6130   31.9900 C.3    78  LEU78       0.0001
     99  N         30.2270  -30.8460   34.2720 N.3    81  GLU81      -0.1245
    100  CA        29.1010  -31.6580   33.8120 C.3    81  GLU81       0.1567
    101  C         28.3430  -32.4020   34.9260 C.2    81  GLU81       0.2260
    102  O         27.0890  -32.4350   34.9230 O.2    81  GLU81      -0.2867
    103  CB        29.6250  -32.6600   32.8150 C.3    81  GLU81       0.0388
    104  CG        29.7320  -32.0410   31.4230 C.3    81  GLU81       0.1160
    105  CD        29.9690  -33.1150   30.3390 C.2    81  GLU81       0.3649
    106  OE1       29.6470  -34.3140   30.5690 O.co2  81  GLU81      -0.2457
    107  OE2       30.4600  -32.7540   29.2390 O.co2  81  GLU81      -0.2457
    108  N         42.9290  -34.9700   33.1860 N.3   106  GLY106     -0.1210
    109  CA        42.7860  -34.1200   31.9640 C.3   106  GLY106      0.1956
    110  C         44.0570  -33.2820   31.7440 C.2   106  GLY106      0.2613
    111  O         45.1560  -33.5690   32.2860 O.2   106  GLY106     -0.2717
    112  N         43.9130  -32.2290   30.9580 N.am  107  SER107     -0.1938
    113  CA        44.9900  -31.3010   30.7840 C.3   107  SER107      0.2055
    114  C         44.6600  -30.0800   31.6290 C.2   107  SER107      0.2643
    115  O         45.5680  -29.2590   31.9370 O.2   107  SER107     -0.2714
    116  CB        45.2130  -30.9640   29.3090 C.3   107  SER107      0.2130
    117  OG        44.1120  -30.2810   28.7190 O.3   107  SER107     -0.2179
    118  N         43.3830  -29.9710   32.0250 N.am  108  GLY108     -0.1954
    119  CA        42.9720  -28.9470   32.9910 C.3   108  GLY108      0.1869
    120  C         42.5400  -29.5950   34.3010 C.2   108  GLY108      0.2309
    121  O         41.4130  -30.1040   34.4100 O.2   108  GLY108     -0.2863
    122  N         45.7970  -30.4120   22.5410 N.3   180  ARG180     -0.1245
    123  CA        45.5340  -31.1970   23.7850 C.3   180  ARG180      0.1563
    124  C         46.4100  -32.4280   23.7980 C.2   180  ARG180      0.2260
    125  O         46.7070  -33.0260   24.8410 O.2   180  ARG180     -0.2867
    126  CB        44.0570  -31.6420   23.9000 C.3   180  ARG180      0.0307
    127  CG        43.7300  -32.5550   25.1540 C.3   180  ARG180      0.0489
    128  CD        42.2920  -33.2140   25.1260 C.3   180  ARG180      0.2205
    129  NE        41.3330  -32.4840   25.9810 N.pl3 180  ARG180     -0.0865
    130  CZ        40.4710  -31.5300   25.5760 C.cat 180  ARG180      0.5346
    131  NH1       40.3810  -31.1720   24.2890 N.pl3 180  ARG180      0.1354
    132  NH2       39.6660  -30.9310   26.4600 N.pl3 180  ARG180      0.1354
    133  N         49.4410  -27.6170   26.6880 N.3   186  ARG186     -0.1231
    134  CA        48.6210  -26.9310   25.7310 C.3   186  ARG186      0.1694
    135  C         48.3310  -25.4870   26.2030 C.2   186  ARG186      0.2592
    136  O         48.1790  -24.6020   25.3730 O.2   186  ARG186     -0.2718
    137  CB        47.3490  -27.7010   25.4180 C.3   186  ARG186      0.0321
    138  CG        46.3490  -27.8310   26.5250 C.3   186  ARG186      0.0489
    139  CD        44.9570  -27.8080   25.8990 C.3   186  ARG186      0.2205
    140  NE        43.8240  -28.1040   26.7860 N.pl3 186  ARG186     -0.0865
    141  CZ        42.5890  -27.5940   26.6230 C.cat 186  ARG186      0.5346
    142  NH1       42.3190  -26.7350   25.6270 N.pl3 186  ARG186      0.1354
    143  NH2       41.6150  -27.9410   27.4660 N.pl3 186  ARG186      0.1354
    144  N         48.2990  -25.2530   27.5220 N.am  187  PHE187     -0.1976
    145  CA        47.9530  -23.9150   28.0450 C.3   187  PHE187      0.1639
    146  C         49.1810  -23.0170   27.9520 C.2   187  PHE187      0.2290
    147  O         49.1010  -21.8250   27.6500 O.2   187  PHE187     -0.2864
    148  CB        47.3330  -23.9750   29.4560 C.3   187  PHE187      0.0560
    149  CG        46.0580  -24.7600   29.4970 C.ar  187  PHE187     -0.0200
    150  CD1       44.9040  -24.2730   28.8530 C.ar  187  PHE187     -0.0042
    151  CD2       46.0210  -26.0060   30.1010 C.ar  187  PHE187     -0.0042
    152  CE1       43.7400  -25.0110   28.8300 C.ar  187  PHE187     -0.0003
    153  CE2       44.8560  -26.7670   30.0970 C.ar  187  PHE187     -0.0003
    154  CZ        43.7050  -26.2650   29.4660 C.ar  187  PHE187     -0.0000
    155  N         34.4890  -23.2430   33.6450 N.3   323  ASP323     -0.1225
    156  CA        35.2510  -24.3840   34.1030 C.3   323  ASP323      0.1805
    157  C         36.0910  -25.0430   32.9920 C.2   323  ASP323      0.2598
    158  O         36.1860  -26.2820   32.9500 O.2   323  ASP323     -0.2718
    159  CB        34.3700  -25.4380   34.8170 C.3   323  ASP323      0.1424
    160  CG        33.5230  -24.8460   35.9710 C.2   323  ASP323      0.3668
    161  OD1       33.9290  -23.8140   36.5470 O.co2 323  ASP323     -0.2456
    162  OD2       32.4530  -25.4280   36.2930 O.co2 323  ASP323     -0.2456
    163  N         36.7550  -24.2190   32.1730 N.am  324  GLY324     -0.1942
    164  CA        37.3710  -24.6570   30.9340 C.3   324  GLY324      0.2014
    165  C         36.4660  -24.9630   29.7130 C.2   324  GLY324      0.2638
    166  O         36.9850  -25.1430   28.6180 O.2   324  GLY324     -0.2714
    167  N         35.1380  -25.0280   29.8710 N.am  325  GLU325     -0.1977
    168  CA        34.2390  -25.4040   28.7900 C.3   325  GLU325      0.1602
    169  C         33.8420  -24.1640   28.0450 C.2   325  GLU325      0.2287
    170  O         33.5720  -23.1130   28.6850 O.2   325  GLU325     -0.2864
    171  CB        33.0130  -26.0590   29.3690 C.3   325  GLU325      0.0415
    172  CG        33.3510  -27.2900   30.0910 C.3   325  GLU325      0.1163
    173  CD        33.8730  -28.3460   29.1430 C.2   325  GLU325      0.3649
    174  OE1       33.1030  -28.6810   28.2190 O.co2 325  GLU325     -0.2457
    175  OE2       35.0190  -28.8370   29.2890 O.co2 325  GLU325     -0.2457
@<TRIPOS>BOND
     1    26    24    1
     2    25    24    1
     3    24    23    2
     4   122   123    1
     5    23    22    1
     6    22    21    1
     7    56    55    1
     8    53    52    1
     9    53    54    1
    10    51    52    1
    11    51    48    1
    12    41    40    2
    13   123   124    1
    14   123   126    1
    15   124   125    2
    16   126   127    1
    17    46    44   ar
    18    55    54    2
    19    55    57    1
    20    67    66    1
    21   131   130    1
    22    48    47    1
    23    48    49    1
    24    21    20    1
    25    64    65    1
    26    64    63    1
    27    40    47   am
    28    40    39    1
    29    62    63    1
    30    62    59    1
    31    66    65    2
    32    66    68    1
    33    20    17    1
    34    58    49   am
    35    58    59    1
    36    42    39    1
    37    42    43    1
    38    44    43    1
    39    44    45   ar
    40   128   127    1
    41   128   129    1
    42    49    50    2
    43   136   135    2
    44    39    38    1
    45    61    60    2
    46   137   134    1
    47   137   138    1
    48   130   129    2
    49   130   132    1
    50    59    60    1
    51   142   141    1
    52   134   135    1
    53   134   133    1
    54   139   138    1
    55   139   140    1
    56   135   144   am
    57    17    16    1
    58    17    18    1
    59   141   140    2
    60   141   143    1
    61    38    33   am
    62    16    11   am
    63    19    18    2
    64    18    27   am
    65    14    13    1
    66    14    15    1
    67    34    33    2
    68   144   145    1
    69   147   146    2
    70    11    12    2
    71    11    10    1
    72    33    32    1
    73     7     6    2
    74    13    10    1
    75    30    29    2
    76   146   145    1
    77    27    28    1
    78   169   170    2
    79   169   168    1
    80   145   148    1
    81   174   173   ar
    82    15     9    1
    83     8     6   am
    84    29    28    1
    85    10     9    1
    86   166   165    2
    87     6     5    1
    88   117   116    1
    89   168   171    1
    90   168   167    1
    91   152   150   ar
    92   152   154   ar
    93   150   149   ar
    94     9     3   am
    95   173   175   ar
    96   173   172    1
    97    32    35    1
    98    32    31    1
    99   107   105   ar
   100   116   113    1
   101   171   172    1
   102   148   149    1
   103   154   153   ar
   104   149   151   ar
   105    36    35    1
   106   165   167   am
   107   165   164    1
   108    35    37    1
   109     3     4    2
   110     3     2    1
   111   153   151   ar
   112     5     2    1
   113     2     1    1
   114   105   106   ar
   115   105   104    1
   116   113   112    1
   117   113   114    1
   118   164   163    1
   119   112   110   am
   120   104   103    1
   121   114   115    2
   122   114   118   am
   123   110   109    1
   124   110   111    2
   125   109   108    1
   126    98    96    1
   127   118   119    1
   128    74    73    1
   129   163   157   am
   130    88    89    1
   131    88    87    1
   132    96    97    1
   133    96    95    1
   134   103   100    1
   135    89    90    2
   136    89    91   am
   137   158   157    2
   138   119   120    1
   139   157   156    1
   140    91    92    1
   141    87    81   am
   142    75    76    1
   143    75    71   am
   144    73    70    1
   145    92    95    1
   146    92    93    1
   147   155   156    1
   148    76    77    1
   149   100    99    1
   150   100   101    1
   151    70    71    1
   152    70    69    1
   153   156   159    1
   154    71    72    2
   155   120   121    2
   156    77    79   am
   157    77    78    2
   158    79    80    1
   159    81    82    2
   160    81    80    1
   161   159   160    1
   162    93    94    2
   163   102   101    2
   164    80    83    1
   165    83    84    1
   166    86    84   ar
   167   160   162   ar
   168   160   161   ar
   169    84    85   ar
