@<TRIPOS>MOLECULE
tmp/3vzdB01.pdb
 106 100 0 0 0
SMALL
GASTEIGER

@<TRIPOS>ATOM
      1  N         32.9320  -57.0850   30.4310 N.3    14  ASN14      -0.1240
      2  CA        33.9470  -57.6170   31.2940 C.3    14  ASN14       0.1653
      3  C         35.3120  -57.4970   30.6680 C.2    14  ASN14       0.2266
      4  O         35.6030  -58.2460   29.7480 O.2    14  ASN14      -0.2867
      5  CB        33.6860  -59.0740   31.6090 C.3    14  ASN14       0.1155
      6  CG        34.7360  -59.6440   32.5050 C.2    14  ASN14       0.2627
      7  OD1       35.8590  -59.1120   32.5880 O.2    14  ASN14      -0.2716
      8  ND2       34.3940  -60.7030   33.2090 N.am   14  ASN14      -0.0877
      9  N         37.9840  -61.7080   31.4100 N.3    17  GLY17      -0.1210
     10  CA        37.7080  -63.1770   31.0660 C.3    17  GLY17       0.1956
     11  C         37.4590  -63.6450   29.5940 C.2    17  GLY17       0.2612
     12  O         36.7250  -62.9910   28.8230 O.2    17  GLY17      -0.2717
     13  N         38.0080  -64.8180   29.2290 N.am   18  GLY18      -0.1956
     14  CA        38.3690  -65.1560   27.8490 C.3    18  GLY18       0.1869
     15  C         39.8250  -64.6780   27.7000 C.2    18  GLY18       0.2309
     16  O         40.7420  -65.2780   28.2590 O.2    18  GLY18      -0.2863
     17  N         30.6490  -60.3300   26.9940 N.3    71  SER71      -0.1202
     18  CA        31.4360  -61.2320   27.7860 C.3    71  SER71       0.2020
     19  C         30.9780  -62.5750   27.2860 C.2    71  SER71       0.2619
     20  O         30.9310  -62.7780   26.1000 O.2    71  SER71      -0.2717
     21  CB        31.1360  -61.0630   29.2690 C.3    71  SER71       0.2103
     22  OG        32.1060  -61.7390   30.0990 O.3    71  SER71      -0.2182
     23  N         30.5720  -63.4580   28.1630 N.am   72  GLY72      -0.1942
     24  CA        30.1280  -64.7500   27.7720 C.3    72  GLY72       0.2014
     25  C         28.7420  -64.9760   28.3290 C.2    72  GLY72       0.2639
     26  O         28.0810  -64.0420   28.8470 O.2    72  GLY72      -0.2714
     27  N         28.3190  -66.2360   28.2310 N.am   73  ASP73      -0.1957
     28  CA        27.0630  -66.6870   28.7390 C.3    73  ASP73       0.1840
     29  C         26.8750  -66.3680   30.2380 C.2    73  ASP73       0.2623
     30  O         25.7650  -66.0260   30.6560 O.2    73  ASP73      -0.2715
     31  CB        26.9060  -68.1760   28.4130 C.3    73  ASP73       0.1450
     32  CG        26.9310  -68.4430   26.9070 C.2    73  ASP73       0.3671
     33  OD1       26.2450  -67.7010   26.1580 O.co2  73  ASP73      -0.2456
     34  OD2       27.6710  -69.3860   26.4460 O.co2  73  ASP73      -0.2456
     35  N         27.9520  -66.4540   31.0290 N.am   74  GLY74      -0.1940
     36  CA        27.9290  -66.1440   32.4940 C.3    74  GLY74       0.2014
     37  C         27.3980  -64.7780   32.8530 C.2    74  GLY74       0.2638
     38  O         26.5110  -64.6320   33.7420 O.2    74  GLY74      -0.2714
     39  N         27.8770  -63.7810   32.1030 N.am   75  LEU75      -0.1977
     40  CA        27.4440  -62.4000   32.2940 C.3    75  LEU75       0.1596
     41  C         25.9710  -62.2870   32.0410 C.2    75  LEU75       0.2287
     42  O         25.2510  -61.5970   32.7890 O.2    75  LEU75      -0.2864
     43  CB        28.1790  -61.4120   31.3620 C.3    75  LEU75       0.0297
     44  CG        28.7930  -60.1570   32.0110 C.3    75  LEU75       0.0022
     45  CD1       28.9390  -58.8970   31.1670 C.3    75  LEU75       0.0001
     46  CD2       28.0730  -59.8070   33.2700 C.3    75  LEU75       0.0001
     47  N         34.0720  -63.4690   25.8870 N.3   103  GLY103     -0.1210
     48  CA        34.3860  -64.7290   26.6680 C.3   103  GLY103      0.1956
     49  C         34.7350  -66.0200   25.8790 C.2   103  GLY103      0.2613
     50  O         35.0910  -65.9880   24.6750 O.2   103  GLY103     -0.2717
     51  N         34.6550  -67.1740   26.5430 N.am  104  SER104     -0.1938
     52  CA        35.0650  -68.4370   25.8980 C.3   104  SER104      0.2055
     53  C         33.8270  -69.2280   25.4850 C.2   104  SER104      0.2643
     54  O         33.8710  -70.0540   24.5310 O.2   104  SER104     -0.2714
     55  CB        35.8730  -69.3150   26.8720 C.3   104  SER104      0.2130
     56  OG        36.9740  -68.6040   27.3890 O.3   104  SER104     -0.2179
     57  N         32.7660  -69.0380   26.2770 N.am  105  GLY105     -0.1954
     58  CA        31.4850  -69.6530   26.0370 C.3   105  GLY105      0.1869
     59  C         30.5880  -68.5410   25.5130 C.2   105  GLY105      0.2309
     60  O         30.1350  -67.6610   26.2820 O.2   105  GLY105     -0.2863
     61  N         41.2730  -70.8820   30.7800 N.3   177  ARG177     -0.1245
     62  CA        40.4550  -69.8430   30.1200 C.3   177  ARG177      0.1563
     63  C         41.3380  -69.2560   29.0130 C.2   177  ARG177      0.2260
     64  O         40.8560  -68.6600   28.0320 O.2   177  ARG177     -0.2867
     65  CB        39.9530  -68.7580   31.0960 C.3   177  ARG177      0.0307
     66  CG        38.7330  -67.9690   30.5420 C.3   177  ARG177      0.0489
     67  CD        38.0260  -67.0720   31.5860 C.3   177  ARG177      0.2205
     68  NE        36.6870  -67.5450   31.9820 N.pl3 177  ARG177     -0.0865
     69  CZ        36.4430  -68.4110   32.9700 C.cat 177  ARG177      0.5346
     70  NH1       37.4370  -68.9350   33.6800 N.pl3 177  ARG177      0.1354
     71  NH2       35.2000  -68.7700   33.2480 N.pl3 177  ARG177      0.1354
     72  N         39.4750  -74.4410   25.0070 N.3   183  ARG183     -0.1231
     73  CA        39.6300  -74.9930   26.3310 C.3   183  ARG183      0.1694
     74  C         38.6610  -76.1280   26.5870 C.2   183  ARG183      0.2592
     75  O         39.0120  -77.0570   27.2980 O.2   183  ARG183     -0.2718
     76  CB        39.5380  -73.9230   27.4250 C.3   183  ARG183      0.0321
     77  CG        38.1620  -73.3270   27.7200 C.3   183  ARG183      0.0489
     78  CD        38.2770  -72.2920   28.8810 C.3   183  ARG183      0.2205
     79  NE        37.0250  -71.6130   29.2500 N.pl3 183  ARG183     -0.0865
     80  CZ        36.1760  -72.0330   30.1960 C.cat 183  ARG183      0.5346
     81  NH1       36.4300  -73.1390   30.8880 N.pl3 183  ARG183      0.1354
     82  NH2       35.0650  -71.3430   30.4630 N.pl3 183  ARG183      0.1354
     83  N         37.4550  -76.0530   26.0200 N.am  184  PHE184     -0.1976
     84  CA        36.4840  -77.1280   26.1550 C.3   184  PHE184      0.1639
     85  C         36.8920  -78.3810   25.3700 C.2   184  PHE184      0.2290
     86  O         36.5090  -79.4870   25.7170 O.2   184  PHE184     -0.2864
     87  CB        35.0940  -76.6810   25.7250 C.3   184  PHE184      0.0560
     88  CG        34.5910  -75.4860   26.4690 C.ar  184  PHE184     -0.0200
     89  CD1       34.2490  -75.5820   27.8310 C.ar  184  PHE184     -0.0042
     90  CD2       34.4690  -74.2510   25.8140 C.ar  184  PHE184     -0.0042
     91  CE1       33.8070  -74.4740   28.5330 C.ar  184  PHE184     -0.0003
     92  CE2       34.0260  -73.1370   26.4940 C.ar  184  PHE184     -0.0003
     93  CZ        33.6900  -73.2410   27.8650 C.ar  184  PHE184     -0.0000
     94  N         26.8390  -72.4140   32.0030 N.3   320  GLY320     -0.1210
     95  CA        28.3040  -72.5290   32.0540 C.3   320  GLY320      0.1956
     96  C         28.9580  -72.2080   33.4110 C.2   320  GLY320      0.2611
     97  O         30.1590  -72.3590   33.5340 O.2   320  GLY320     -0.2717
     98  N         28.1560  -71.8100   34.4100 N.am  321  GLU321     -0.1979
     99  CA        28.6130  -71.3820   35.7140 C.3   321  GLU321      0.1602
    100  C         28.4260  -72.5600   36.6420 C.2   321  GLU321      0.2287
    101  O         27.3570  -73.1690   36.6850 O.2   321  GLU321     -0.2864
    102  CB        27.7770  -70.2170   36.2310 C.3   321  GLU321      0.0415
    103  CG        27.7640  -69.0010   35.3370 C.3   321  GLU321      0.1163
    104  CD        29.0710  -68.2880   35.3200 C.2   321  GLU321      0.3649
    105  OE1       29.1520  -67.2500   36.0090 O.co2 321  GLU321     -0.2457
    106  OE2       30.0160  -68.7600   34.6520 O.co2 321  GLU321     -0.2457
@<TRIPOS>BOND
     1    54    53    2
     2    50    49    2
     3    72    73    1
     4    85    86    2
     5    85    84    1
     6    53    52    1
     7    53    57   am
     8    59    58    1
     9    59    60    2
    10    87    84    1
    11    87    88    1
    12    90    88   ar
    13    90    92   ar
    14    49    51   am
    15    49    48    1
    16    47    48    1
    17    52    51    1
    18    52    55    1
    19    83    84    1
    20    83    74   am
    21    58    57    1
    22    20    19    2
    23    33    32   ar
    24    73    74    1
    25    73    76    1
    26    34    32   ar
    27    88    89   ar
    28    92    93   ar
    29    74    75    2
    30    55    56    1
    31    32    31    1
    32    17    18    1
    33    19    18    1
    34    19    23   am
    35    76    77    1
    36    15    14    1
    37    15    16    2
    38    77    78    1
    39    24    23    1
    40    24    25    1
    41    18    21    1
    42    89    91   ar
    43    14    13    1
    44    93    91   ar
    45    64    63    2
    46    27    25   am
    47    27    28    1
    48    25    26    2
    49    31    28    1
    50    28    29    1
    51    12    11    2
    52    78    79    1
    53    63    62    1
    54    13    11   am
    55    79    80    2
    56    21    22    1
    57    11    10    1
    58     4     3    2
    59    62    61    1
    60    62    65    1
    61    80    82    1
    62    80    81    1
    63    29    30    2
    64    29    35   am
    65     1     2    1
    66    66    65    1
    67    66    67    1
    68     3     2    1
    69    35    36    1
    70    10     9    1
    71    45    44    1
    72     2     5    1
    73    43    44    1
    74    43    40    1
    75    67    68    1
    76     5     6    1
    77    68    69    2
    78    94    95    1
    79    44    46    1
    80    41    40    1
    81    41    42    2
    82    95    96    1
    83    39    40    1
    84    39    37   am
    85    36    37    1
    86     6     7    2
    87     6     8   am
    88    37    38    2
    89    69    71    1
    90    69    70    1
    91    96    97    2
    92    96    98   am
    93    98    99    1
    94   106   104   ar
    95   104   103    1
    96   104   105   ar
    97   103   102    1
    98    99   102    1
    99    99   100    1
   100   100   101    2
