@<TRIPOS>MOLECULE
tmp/3vzmA00.pdb
 174 171 0 0 0
SMALL
GASTEIGER

@<TRIPOS>ATOM
      1  N        -17.6370    6.7490    7.0660 N.3     7  GLN7       -0.1245
      2  CA       -17.4040    5.5640    6.2810 C.3     7  GLN7        0.1566
      3  C        -18.5840    4.6080    6.4470 C.2     7  GLN7        0.2260
      4  O        -18.9180    4.1530    7.5750 O.2     7  GLN7       -0.2867
      5  CB       -16.0820    4.8810    6.6830 C.3     7  GLN7        0.0367
      6  CG       -15.9370    3.4310    6.1600 C.3     7  GLN7        0.0905
      7  CD       -15.7190    3.3890    4.6440 C.2     7  GLN7        0.2608
      8  OE1      -15.3860    4.3950    4.0300 O.2     7  GLN7       -0.2717
      9  NE2      -15.9240    2.2170    4.0400 N.am    7  GLN7       -0.0878
     10  N        -19.6470    1.2940    4.1820 N.3     9  TRP9       -0.1241
     11  CA       -19.5270    0.4740    2.9970 C.3     9  TRP9        0.1605
     12  C        -20.0400   -0.9160    3.2880 C.2     9  TRP9        0.2264
     13  O        -19.7210   -1.4870    4.3420 O.2     9  TRP9       -0.2867
     14  CB       -18.0500    0.3970    2.5500 C.3     9  TRP9        0.0550
     15  CG       -17.8430   -0.5540    1.3640 C.ar    9  TRP9        0.0003
     16  CD1      -18.0260   -0.2720    0.0010 C.ar    9  TRP9        0.0946
     17  CD2      -17.4550   -1.9290    1.4440 C.ar    9  TRP9        0.0152
     18  NE1      -17.7560   -1.4180   -0.7450 N.ar    9  TRP9       -0.2442
     19  CE2      -17.4160   -2.4420    0.1150 C.ar    9  TRP9        0.0810
     20  CE3      -17.1460   -2.7900    2.5110 C.ar    9  TRP9        0.0012
     21  CZ2      -17.0480   -3.7670   -0.1630 C.ar    9  TRP9        0.0191
     22  CZ3      -16.7830   -4.1140    2.2290 C.ar    9  TRP9        0.0001
     23  CH2      -16.7430   -4.5870    0.8960 C.ar    9  TRP9        0.0015
     24  N        -19.3690   -8.7020    3.6550 N.3    35  ASN35      -0.1225
     25  CA       -18.3430   -7.8390    4.1870 C.3    35  ASN35       0.1785
     26  C        -18.9010   -6.4350    4.3260 C.2    35  ASN35       0.2597
     27  O        -19.5650   -5.9240    3.4000 O.2    35  ASN35      -0.2718
     28  CB       -17.1240   -7.7940    3.2580 C.3    35  ASN35       0.1169
     29  CG       -16.2880   -9.0270    3.3570 C.2    35  ASN35       0.2627
     30  OD1      -15.5650   -9.2230    4.3340 O.2    35  ASN35      -0.2716
     31  ND2      -16.3630   -9.8570    2.3600 N.am   35  ASN35      -0.0877
     32  N        -18.6030   -5.7860    5.4520 N.am   36  PHE36      -0.1962
     33  CA       -18.9440   -4.3740    5.6170 C.3    36  PHE36       0.1771
     34  C        -17.9790   -3.6640    6.5960 C.2    36  PHE36       0.2619
     35  O        -17.3880   -4.2960    7.4670 O.2    36  PHE36      -0.2715
     36  CB       -20.4280   -4.2570    6.0970 C.3    36  PHE36       0.0574
     37  CG       -20.6040   -4.6010    7.5950 C.ar   36  PHE36      -0.0200
     38  CD1      -20.9240   -5.8930    7.9670 C.ar   36  PHE36      -0.0042
     39  CD2      -20.3710   -3.6450    8.5890 C.ar   36  PHE36      -0.0042
     40  CE1      -21.0410   -6.2510    9.3160 C.ar   36  PHE36      -0.0003
     41  CE2      -20.4530   -4.0100    9.9400 C.ar   36  PHE36      -0.0003
     42  CZ       -20.7970   -5.3100   10.2890 C.ar   36  PHE36      -0.0000
     43  N        -17.8910   -2.3510    6.4910 N.am   37  VAL37      -0.1977
     44  CA       -17.1260   -1.5750    7.4010 C.3    37  VAL37       0.1596
     45  C        -17.8000   -0.2490    7.5630 C.2    37  VAL37       0.2287
     46  O        -18.1070    0.4110    6.5950 O.2    37  VAL37      -0.2864
     47  CB       -15.6350   -1.3390    6.9190 C.3    37  VAL37       0.0276
     48  CG1      -14.8460   -0.7560    8.1140 C.3    37  VAL37       0.0022
     49  CG2      -14.9720   -2.6190    6.4200 C.3    37  VAL37       0.0022
     50  N         -9.0390    1.7960   11.4300 N.3    69  TYR69      -0.1241
     51  CA        -9.1510    1.1860   10.0960 C.3    69  TYR69       0.1605
     52  C         -8.7960    2.3060    9.1200 C.2    69  TYR69       0.2264
     53  O         -9.3290    3.4460    9.2380 O.2    69  TYR69      -0.2867
     54  CB       -10.6050    0.7010    9.8610 C.3    69  TYR69       0.0534
     55  CG       -10.8280    0.1770    8.5190 C.ar   69  TYR69      -0.0201
     56  CD1      -10.3200   -1.0650    8.1580 C.ar   69  TYR69      -0.0009
     57  CD2      -11.4660    0.9230    7.5650 C.ar   69  TYR69      -0.0009
     58  CE1      -10.5010   -1.5970    6.8730 C.ar   69  TYR69       0.0417
     59  CE2      -11.6530    0.4150    6.2410 C.ar   69  TYR69       0.0417
     60  CZ       -11.1540   -0.8350    5.9120 C.ar   69  TYR69       0.1957
     61  OH       -11.3010   -1.3200    4.6290 O.3    69  TYR69      -0.2866
     62  N         -6.5410    3.3160    4.9930 N.3    71  TRP71      -0.1241
     63  CA        -5.7510    2.9410    3.8190 C.3    71  TRP71       0.1605
     64  C         -4.6730    3.9530    3.5160 C.2    71  TRP71       0.2264
     65  O         -4.8020    5.1560    3.8480 O.2    71  TRP71      -0.2867
     66  CB        -6.6460    2.8290    2.5840 C.3    71  TRP71       0.0550
     67  CG        -7.6200    1.7570    2.5850 C.ar   71  TRP71       0.0003
     68  CD1       -8.8580    1.7700    3.2040 C.ar   71  TRP71       0.0946
     69  CD2       -7.5460    0.5150    1.8750 C.ar   71  TRP71       0.0152
     70  NE1       -9.5250    0.5930    2.9340 N.ar   71  TRP71      -0.2442
     71  CE2       -8.7650   -0.1760    2.1090 C.ar   71  TRP71       0.0810
     72  CE3       -6.5940   -0.0720    1.0490 C.ar   71  TRP71       0.0012
     73  CZ2       -9.0260   -1.4590    1.5800 C.ar   71  TRP71       0.0191
     74  CZ3       -6.8550   -1.3310    0.4930 C.ar   71  TRP71       0.0001
     75  CH2       -8.0660   -2.0020    0.7540 C.ar   71  TRP71       0.0015
     76  N         -4.0770   -1.7570    3.5060 N.3    78  GLU78      -0.1245
     77  CA        -5.2150   -1.6630    4.4470 C.3    78  GLU78       0.1567
     78  C         -4.6630   -1.9450    5.8450 C.2    78  GLU78       0.2260
     79  O         -3.9480   -2.9430    5.9690 O.2    78  GLU78      -0.2867
     80  CB        -6.2700   -2.7130    4.0600 C.3    78  GLU78       0.0388
     81  CG        -7.6300   -2.5620    4.7350 C.3    78  GLU78       0.1160
     82  CD        -8.5650   -3.7160    4.5010 C.2    78  GLU78       0.3649
     83  OE1       -8.1070   -4.8670    4.6670 O.co2  78  GLU78      -0.2457
     84  OE2       -9.7960   -3.4800    4.2650 O.co2  78  GLU78      -0.2457
     85  N         -4.9290   -1.8030   10.4080 N.3    80  TYR80      -0.1241
     86  CA        -5.8860   -2.0110   11.4930 C.3    80  TYR80       0.1605
     87  C         -5.1540   -1.8360   12.8020 C.2    80  TYR80       0.2264
     88  O         -4.0300   -2.3460   12.9340 O.2    80  TYR80      -0.2867
     89  CB        -6.4090   -3.4550   11.4720 C.3    80  TYR80       0.0534
     90  CG        -7.2030   -3.8980   10.3150 C.ar   80  TYR80      -0.0201
     91  CD1       -6.5720   -4.3170    9.1300 C.ar   80  TYR80      -0.0009
     92  CD2       -8.5950   -3.9540   10.3990 C.ar   80  TYR80      -0.0009
     93  CE1       -7.3110   -4.6800    8.0350 C.ar   80  TYR80       0.0417
     94  CE2       -9.3450   -4.3500    9.3440 C.ar   80  TYR80       0.0417
     95  CZ        -8.7010   -4.7160    8.1450 C.ar   80  TYR80       0.1957
     96  OH        -9.4690   -5.1530    7.1020 O.3    80  TYR80      -0.2866
     97  N         -4.3570  -10.0360    0.9440 N.3   112  ARG112     -0.1245
     98  CA        -5.6690  -10.3700    0.4790 C.3   112  ARG112      0.1563
     99  C         -5.5200  -10.5500   -1.0220 C.2   112  ARG112      0.2260
    100  O         -4.8090   -9.7750   -1.6570 O.2   112  ARG112     -0.2867
    101  CB        -6.6420   -9.1930    0.6890 C.3   112  ARG112      0.0307
    102  CG        -7.1010   -8.9330    2.1430 C.3   112  ARG112      0.0489
    103  CD        -7.8580  -10.0810    2.7970 C.3   112  ARG112      0.2205
    104  NE        -8.8810  -10.7310    1.9800 N.pl3 112  ARG112     -0.0865
    105  CZ       -10.1070  -10.2480    1.7270 C.cat 112  ARG112      0.5346
    106  NH1      -10.4900   -9.0640    2.1930 N.pl3 112  ARG112      0.1354
    107  NH2      -10.9530  -10.9550    0.9650 N.pl3 112  ARG112      0.1354
    108  N        -11.9910   -6.6270   -2.8040 N.3   116  PRO116     -0.2102
    109  CA       -12.1790   -5.1970   -3.0210 C.3   116  PRO116      0.1504
    110  C        -11.2270   -4.3580   -2.1910 C.2   116  PRO116      0.2576
    111  O        -10.7780   -4.7630   -1.1150 O.2   116  PRO116     -0.2718
    112  CB       -13.6390   -4.9330   -2.6080 C.3   116  PRO116      0.0282
    113  CG       -14.2360   -6.2480   -2.3090 C.3   116  PRO116      0.0208
    114  CD       -13.0980   -7.2340   -2.0580 C.3   116  PRO116      0.0893
    115  N        -10.9150   -3.1730   -2.7060 N.am  117  SER117     -0.1938
    116  CA       -10.0260   -2.2310   -1.9900 C.3   117  SER117      0.2055
    117  C        -10.6880   -0.8910   -2.0620 C.2   117  SER117      0.2642
    118  O        -11.7660   -0.7860   -2.6570 O.2   117  SER117     -0.2714
    119  CB        -8.6540   -2.1830   -2.6530 C.3   117  SER117      0.2130
    120  OG        -8.7200   -1.4870   -3.9010 O.3   117  SER117     -0.2179
    121  N        -10.0740    0.1600   -1.5280 N.am  118  ILE118     -0.1977
    122  CA       -10.6860    1.4590   -1.6840 C.3   118  ILE118      0.1596
    123  C        -10.8580    1.8960   -3.1460 C.2   118  ILE118      0.2287
    124  O        -11.6630    2.7800   -3.4120 O.2   118  ILE118     -0.2864
    125  CB        -9.8510    2.5700   -1.1150 C.3   118  ILE118      0.0276
    126  CG1       -8.3760    2.2770   -1.3750 C.3   118  ILE118      0.0022
    127  CG2      -10.2760    2.8610    0.2830 C.3   118  ILE118      0.0022
    128  CD1       -7.4970    3.4120   -1.1520 C.3   118  ILE118      0.0001
    129  N        -12.1840    0.1870   -5.4370 N.3   120  GLY120     -0.1225
    130  CA       -13.1810   -0.6850   -6.0030 C.3   120  GLY120      0.1811
    131  C        -12.5180   -1.7870   -6.8030 C.2   120  GLY120      0.2280
    132  O        -11.2980   -1.9370   -6.8040 O.2   120  GLY120     -0.2866
    133  N         -3.6150   -7.0120   -2.1440 N.3   125  PHE125     -0.1241
    134  CA        -2.9270   -5.9680   -1.3620 C.3   125  PHE125      0.1605
    135  C         -2.5140   -6.5010    0.0140 C.2   125  PHE125      0.2264
    136  O         -3.0560   -7.5070    0.5100 O.2   125  PHE125     -0.2867
    137  CB        -3.8050   -4.7140   -1.1500 C.3   125  PHE125      0.0534
    138  CG        -5.1910   -5.0150   -0.5770 C.ar  125  PHE125     -0.0203
    139  CD1       -6.2630   -5.2810   -1.4490 C.ar  125  PHE125     -0.0042
    140  CD2       -5.4070   -5.0290    0.8330 C.ar  125  PHE125     -0.0042
    141  CE1       -7.5640   -5.5660   -0.9560 C.ar  125  PHE125     -0.0003
    142  CE2       -6.6640   -5.3490    1.3580 C.ar  125  PHE125     -0.0003
    143  CZ        -7.7680   -5.6280    0.4770 C.ar  125  PHE125     -0.0000
    144  N         -2.0230   -6.1710    4.1800 N.3   127  GLN127     -0.1245
    145  CA        -2.7080   -5.6760    5.3700 C.3   127  GLN127      0.1566
    146  C         -1.7250   -5.6630    6.5450 C.2   127  GLN127      0.2260
    147  O         -0.9570   -6.6200    6.7180 O.2   127  GLN127     -0.2867
    148  CB        -3.9180   -6.5500    5.7150 C.3   127  GLN127      0.0367
    149  CG        -4.9990   -6.7490    4.6090 C.3   127  GLN127      0.0905
    150  CD        -6.0080   -7.7850    4.9790 C.2   127  GLN127      0.2608
    151  OE1       -5.6670   -8.9470    5.0830 O.2   127  GLN127     -0.2717
    152  NE2       -7.2770   -7.3790    5.1920 N.am  127  GLN127     -0.0878
    153  N         -8.6420    7.6690    3.8970 N.3   166  TYR166     -0.1241
    154  CA        -9.3660    7.8900    5.1640 C.3   166  TYR166      0.1605
    155  C         -8.8290    7.0210    6.3200 C.2   166  TYR166      0.2264
    156  O         -8.1440    6.0000    6.1030 O.2   166  TYR166     -0.2867
    157  CB       -10.8790    7.6160    5.0250 C.3   166  TYR166      0.0534
    158  CG       -11.2540    6.1880    4.6300 C.ar  166  TYR166     -0.0201
    159  CD1      -11.2350    5.1610    5.5450 C.ar  166  TYR166     -0.0009
    160  CD2      -11.6650    5.8960    3.3300 C.ar  166  TYR166     -0.0009
    161  CE1      -11.6090    3.8600    5.2000 C.ar  166  TYR166      0.0417
    162  CE2      -12.0160    4.5720    2.9590 C.ar  166  TYR166      0.0417
    163  CZ       -11.9770    3.5760    3.9010 C.ar  166  TYR166      0.1957
    164  OH       -12.3430    2.2960    3.5950 O.3   166  TYR166     -0.2866
    165  N        -16.0740   -3.4060   11.8140 N.3   172  HIS172     -0.1241
    166  CA       -15.7330   -4.1570   10.5610 C.3   172  HIS172      0.1621
    167  C        -16.2740   -5.5800   10.7440 C.2   172  HIS172      0.2264
    168  O        -15.9590   -6.2230   11.7700 O.2   172  HIS172     -0.2867
    169  CB       -14.2140   -4.2260   10.4650 C.3   172  HIS172      0.0745
    170  CG       -13.6600   -4.9300    9.2650 C.ar  172  HIS172      0.0817
    171  ND1      -13.5630   -6.3070    9.1830 N.ar  172  HIS172     -0.2268
    172  CD2      -13.0450   -4.4400    8.1590 C.ar  172  HIS172      0.1154
    173  CE1      -12.9210   -6.6300    8.0620 C.ar  172  HIS172      0.1986
    174  NE2      -12.6070   -5.5130    7.4200 N.ar  172  HIS172     -0.2212
@<TRIPOS>BOND
     1   132   131    2
     2   131   130    1
     3   130   129    1
     4   120   119    1
     5   124   123    2
     6   123   122    1
     7   109   108    1
     8   109   112    1
     9   109   110    1
    10   108   114    1
    11   115   110   am
    12   115   116    1
    13   118   117    2
    14   119   116    1
    15   112   113    1
    16   113   114    1
    17   110   111    2
    18   133   134    1
    19   117   116    1
    20   117   121   am
    21   122   121    1
    22   122   125    1
    23   100    99    2
    24   139   141   ar
    25   139   138   ar
    26   126   128    1
    27   126   125    1
    28   134   137    1
    29   134   135    1
    30   137   138    1
    31   125   127    1
    32    99    98    1
    33   141   143   ar
    34    18    16   ar
    35    18    19   ar
    36   138   140   ar
    37    21    19   ar
    38    21    23   ar
    39    16    15   ar
    40   135   136    2
    41    19    17   ar
    42   143   142   ar
    43    98   101    1
    44    98    97    1
    45    74    75   ar
    46    74    72   ar
    47   101   102    1
    48    75    73   ar
    49   140   142   ar
    50    23    22   ar
    51   107   105    1
    52    72    69   ar
    53    15    17   ar
    54    15    14    1
    55    17    20   ar
    56    73    71   ar
    57   105   104    2
    58   105   106    1
    59    69    71   ar
    60    69    67   ar
    61   104   103    1
    62    71    70   ar
    63   102   103    1
    64    22    20   ar
    65    31    29   am
    66    14    11    1
    67    66    67    1
    68    66    63    1
    69    67    68   ar
    70    70    68   ar
    71   162   160   ar
    72   162   163   ar
    73    11    12    1
    74    11    10    1
    75    28    29    1
    76    28    25    1
    77    12    13    2
    78   160   158   ar
    79    29    30    2
    80    27    26    2
    81    76    77    1
    82    64    63    1
    83    64    65    2
    84   164   163    1
    85    24    25    1
    86    63    62    1
    87   153   154    1
    88   163   161   ar
    89     8     7    2
    90     9     7   am
    91    80    77    1
    92    80    81    1
    93   144   145    1
    94    25    26    1
    95    84    82   ar
    96    26    32   am
    97    77    78    1
    98    82    83   ar
    99    82    81    1
   100   149   150    1
   101   149   148    1
   102    61    60    1
   103   158   157    1
   104   158   159   ar
   105     7     6    1
   106   150   151    2
   107   150   152   am
   108   157   154    1
   109   154   155    1
   110   161   159   ar
   111   145   148    1
   112   145   146    1
   113    32    33    1
   114    33    36    1
   115    33    34    1
   116    78    79    2
   117    60    59   ar
   118    60    58   ar
   119    36    37    1
   120   156   155    2
   121     6     5    1
   122    59    57   ar
   123     2     3    1
   124     2     5    1
   125     2     1    1
   126    49    47    1
   127     3     4    2
   128    43    34   am
   129    43    44    1
   130   146   147    2
   131    46    45    2
   132    34    35    2
   133    58    56   ar
   134    47    44    1
   135    47    48    1
   136    96    95    1
   137    44    45    1
   138   174   173   ar
   139   174   172   ar
   140    57    55   ar
   141    37    38   ar
   142    37    39   ar
   143    38    40   ar
   144    93    95   ar
   145    93    91   ar
   146   173   171   ar
   147    95    94   ar
   148    56    55   ar
   149   172   170   ar
   150    55    54    1
   151    39    41   ar
   152    52    53    2
   153    52    51    1
   154    91    90   ar
   155   171   170   ar
   156   170   169    1
   157    40    42   ar
   158    94    92   ar
   159    54    51    1
   160    41    42   ar
   161    51    50    1
   162    90    92   ar
   163    90    89    1
   164    85    86    1
   165   169   166    1
   166   166   167    1
   167   166   165    1
   168   167   168    2
   169    89    86    1
   170    86    87    1
   171    87    88    2
