@<TRIPOS>MOLECULE
tmp/3vzuA00.pdb
 185 174 0 0 0
SMALL
GASTEIGER

@<TRIPOS>ATOM
      1  N         25.8310   25.4610   10.6840 N.3     9  LYS9       -0.1245
      2  CA        24.4250   25.4910   10.9830 C.3     9  LYS9        0.1561
      3  C         24.2340   26.2170   12.2900 C.2     9  LYS9        0.2260
      4  O         24.9870   26.0340   13.2420 O.2     9  LYS9       -0.2867
      5  CB        23.8390   24.0680   10.9430 C.3     9  LYS9        0.0271
      6  CG        24.7980   22.9730   11.2920 C.3     9  LYS9        0.0035
      7  CD        24.0810   21.6300   11.3740 C.3     9  LYS9        0.0206
      8  CE        25.0360   20.5590   11.8780 C.3     9  LYS9        0.1093
      9  NZ        24.5100   19.1590   11.8000 N.3     9  LYS9       -0.1314
     10  N         24.3680   24.6730   15.7660 N.3    39  PHE39      -0.1227
     11  CA        23.7690   23.3370   15.7690 C.3    39  PHE39       0.1736
     12  C         24.7880   22.2430   15.5260 C.2    39  PHE39       0.2596
     13  O         24.4110   21.1120   15.2140 O.2    39  PHE39      -0.2718
     14  CB        22.6760   23.2050   14.6940 C.3    39  PHE39       0.0547
     15  CG        21.4430   24.0330   14.9530 C.ar   39  PHE39      -0.0202
     16  CD1       21.2800   24.7280   16.1540 C.ar   39  PHE39      -0.0042
     17  CD2       20.4330   24.1170   13.9930 C.ar   39  PHE39      -0.0042
     18  CE1       20.1280   25.5050   16.3990 C.ar   39  PHE39      -0.0003
     19  CE2       19.2780   24.8900   14.2300 C.ar   39  PHE39      -0.0003
     20  CZ        19.1290   25.5850   15.4400 C.ar   39  PHE39      -0.0000
     21  N         26.0700   22.5710   15.6450 N.am   40  GLY40      -0.1957
     22  CA        27.0800   21.5600   15.4370 C.3    40  GLY40       0.1869
     23  C         27.8510   21.7360   14.1590 C.2    40  GLY40       0.2309
     24  O         28.0930   20.7730   13.4330 O.2    40  GLY40      -0.2863
     25  N         30.8030   22.0100   11.6220 N.3    42  LYS42      -0.1245
     26  CA        31.9900   21.1690   11.5920 C.3    42  LYS42       0.1561
     27  C         32.8030   21.4940   10.3610 C.2    42  LYS42       0.2260
     28  O         32.3170   22.1550    9.4770 O.2    42  LYS42      -0.2867
     29  CB        31.5550   19.7240   11.5130 C.3    42  LYS42       0.0271
     30  CG        30.7730   19.4230   10.2740 C.3    42  LYS42       0.0035
     31  CD        30.3550   17.9750   10.2170 C.3    42  LYS42       0.0206
     32  CE        29.5710   17.6940    8.9570 C.3    42  LYS42       0.1093
     33  NZ        28.1000   17.7680    9.1720 N.3    42  LYS42      -0.1314
     34  N         41.0530   11.1840    7.0630 N.3    60  GLN60      -0.1245
     35  CA        40.1560   12.2910    7.3490 C.3    60  GLN60       0.1566
     36  C         40.5240   12.9140    8.6980 C.2    60  GLN60       0.2260
     37  O         41.0580   12.2390    9.5810 O.2    60  GLN60      -0.2867
     38  CB        38.7000   11.7970    7.3430 C.3    60  GLN60       0.0367
     39  CG        37.6830   12.8070    7.8750 C.3    60  GLN60       0.0905
     40  CD        36.2550   12.3290    7.7370 C.2    60  GLN60       0.2608
     41  OE1       35.6950   12.3460    6.6490 O.2    60  GLN60      -0.2717
     42  NE2       35.6610   11.8900    8.8420 N.am   60  GLN60      -0.0878
     43  N         38.4070   15.6800   11.0270 N.3    62  GLU62      -0.1245
     44  CA        37.1610   16.4690   11.0920 C.3    62  GLU62       0.1567
     45  C         37.1020   17.0790   12.4840 C.2    62  GLU62       0.2260
     46  O         37.3390   16.3940   13.4710 O.2    62  GLU62      -0.2867
     47  CB        35.9200   15.5870   10.8680 C.3    62  GLU62       0.0388
     48  CG        34.6180   16.3320   10.7360 C.3    62  GLU62       0.1160
     49  CD        33.5110   15.4210   10.2290 C.2    62  GLU62       0.3649
     50  OE1       33.7130   14.7920    9.1620 O.co2  62  GLU62      -0.2457
     51  OE2       32.4440   15.3280   10.8900 O.co2  62  GLU62      -0.2457
     52  N         35.0780   19.8030   15.4360 N.3    64  LYS64      -0.1245
     53  CA        33.8680   20.5150   15.8130 C.3    64  LYS64       0.1561
     54  C         34.3080   21.9390   15.5200 C.2    64  LYS64       0.2260
     55  O         35.4450   22.3080   15.8120 O.2    64  LYS64      -0.2867
     56  CB        33.5820   20.3490   17.3050 C.3    64  LYS64       0.0271
     57  CG        33.2780   18.9070   17.7000 C.3    64  LYS64       0.0035
     58  CD        33.1350   18.7480   19.2020 C.3    64  LYS64       0.0206
     59  CE        32.8290   17.3170   19.6050 C.3    64  LYS64       0.1093
     60  NZ        32.7080   17.2630   21.0830 N.3    64  LYS64      -0.1314
     61  N         36.1010   15.0960   15.9340 N.3    77  ARG77      -0.1231
     62  CA        34.9500   14.5120   15.2680 C.3    77  ARG77       0.1694
     63  C         35.6080   13.3710   14.4990 C.2    77  ARG77       0.2591
     64  O         36.8360   13.2780   14.4770 O.2    77  ARG77      -0.2718
     65  CB        34.2890   15.4890   14.3150 C.3    77  ARG77       0.0321
     66  CG        33.7400   16.7290   15.0000 C.3    77  ARG77       0.0489
     67  CD        33.0800   17.6580   13.9960 C.3    77  ARG77       0.2205
     68  NE        31.9690   17.0120   13.3060 N.pl3  77  ARG77      -0.0865
     69  CZ        30.7150   17.0240   13.7360 C.cat  77  ARG77       0.5346
     70  NH1       30.3980   17.6530   14.8600 N.pl3  77  ARG77       0.1354
     71  NH2       29.7770   16.4180   13.0290 N.pl3  77  ARG77       0.1354
     72  N         34.8290   12.5090   13.8590 N.am   78  GLN78      -0.1979
     73  CA        35.4740   11.3900   13.1950 C.3    78  GLN78       0.1601
     74  C         36.7110   11.7930   12.4030 C.2    78  GLN78       0.2287
     75  O         36.6630   12.6920   11.5770 O.2    78  GLN78      -0.2864
     76  CB        34.4800   10.6190   12.3180 C.3    78  GLN78       0.0394
     77  CG        35.0640    9.3020   11.8130 C.3    78  GLN78       0.0908
     78  CD        34.0460    8.4340   11.1160 C.2    78  GLN78       0.2608
     79  OE1       33.7460    7.3260   11.5650 O.2    78  GLN78      -0.2717
     80  NE2       33.5040    8.9320   10.0100 N.am   78  GLN78      -0.0878
     81  N         33.5830    6.7580   14.5020 N.3    96  ASN96      -0.1240
     82  CA        32.1650    6.7510   14.8280 C.3    96  ASN96       0.1653
     83  C         31.8310    5.3180   15.2320 C.2    96  ASN96       0.2266
     84  O         32.2480    4.3570   14.5760 O.2    96  ASN96      -0.2867
     85  CB        31.3370    7.1560   13.6030 C.3    96  ASN96       0.1155
     86  CG        31.0120    8.6290   13.5840 C.2    96  ASN96       0.2627
     87  OD1       31.6020    9.4090   14.3300 O.2    96  ASN96      -0.2716
     88  ND2       30.0700    9.0240   12.7330 N.am   96  ASN96      -0.0877
     89  N         26.6650    4.7420   16.3280 N.3   100  LYS100     -0.1231
     90  CA        26.5300    6.1740   16.0810 C.3   100  LYS100      0.1693
     91  C         26.1860    6.3550   14.6080 C.2   100  LYS100      0.2592
     92  O         25.4270    7.2570   14.2540 O.2   100  LYS100     -0.2718
     93  CB        27.8130    6.9530   16.3890 C.3   100  LYS100      0.0285
     94  CG        27.5590    8.4720   16.4030 C.3   100  LYS100      0.0035
     95  CD        28.8360    9.2880   16.3640 C.3   100  LYS100      0.0206
     96  CE        28.6440   10.6810   16.9600 C.3   100  LYS100      0.1093
     97  NZ        27.7020   11.5620   16.2200 N.3   100  LYS100     -0.1314
     98  N         26.7440    5.4960   13.7530 N.am  101  ASP101     -0.1974
     99  CA        26.4620    5.5730   12.3300 C.3   101  ASP101      0.1709
    100  C         24.9920    5.2300   12.0840 C.2   101  ASP101      0.2293
    101  O         24.3010    5.9140   11.3220 O.2   101  ASP101     -0.2864
    102  CB        27.3640    4.6200   11.5450 C.3   101  ASP101      0.1436
    103  CG        28.7600    5.1770   11.3400 C.2   101  ASP101      0.3671
    104  OD1       28.8880    6.4010   11.1030 O.co2 101  ASP101     -0.2456
    105  OD2       29.7260    4.3820   11.4010 O.co2 101  ASP101     -0.2456
    106  N         21.9550    7.8130   11.9330 N.3   104  ASP104     -0.1239
    107  CA        21.4400    8.5980   10.8180 C.3   104  ASP104      0.1674
    108  C         19.9770    8.2530   10.5280 C.2   104  ASP104      0.2266
    109  O         19.1220    9.1320   10.4910 O.2   104  ASP104     -0.2867
    110  CB        22.2890    8.3590    9.5770 C.3   104  ASP104      0.1410
    111  CG        23.7500    8.6630    9.8160 C.2   104  ASP104      0.3668
    112  OD1       24.0480    9.7430   10.3910 O.co2 104  ASP104     -0.2456
    113  OD2       24.5950    7.8210    9.4230 O.co2 104  ASP104     -0.2456
    114  N         17.7720    9.5680   14.1210 N.3   107  ASN107     -0.1240
    115  CA        17.6320   10.9290   14.6710 C.3   107  ASN107      0.1653
    116  C         18.2480   11.7460   13.5430 C.2   107  ASN107      0.2266
    117  O         19.4300   11.6190   13.2250 O.2   107  ASN107     -0.2867
    118  CB        18.3660   11.1940   16.0230 C.3   107  ASN107      0.1155
    119  CG        18.0440   12.5840   16.5820 C.2   107  ASN107      0.2627
    120  OD1       18.8020   13.1340   17.3750 O.2   107  ASN107     -0.2716
    121  ND2       16.9130   13.1480   16.1700 N.am  107  ASN107     -0.0877
    122  N         17.2250   15.1610   13.2030 N.3   109  TRP109     -0.1227
    123  CA        17.0040   16.5530   13.5860 C.3   109  TRP109      0.1737
    124  C         18.2590   17.3800   13.8580 C.2   109  TRP109      0.2595
    125  O         19.2780   16.8580   14.2930 O.2   109  TRP109     -0.2718
    126  CB        16.0750   16.6120   14.8060 C.3   109  TRP109      0.0564
    127  CG        14.8030   15.8150   14.6280 C.ar  109  TRP109      0.0003
    128  CD1       14.5880   14.5150   14.9980 C.ar  109  TRP109      0.0946
    129  CD2       13.6090   16.2400   13.9540 C.ar  109  TRP109      0.0152
    130  NE1       13.3390   14.1040   14.5920 N.ar  109  TRP109     -0.2442
    131  CE2       12.7160   15.1420   13.9480 C.ar  109  TRP109      0.0810
    132  CE3       13.2080   17.4420   13.3480 C.ar  109  TRP109      0.0012
    133  CZ2       11.4460   15.2090   13.3620 C.ar  109  TRP109      0.0191
    134  CZ3       11.9460   17.5080   12.7630 C.ar  109  TRP109      0.0001
    135  CH2       11.0810   16.3940   12.7750 C.ar  109  TRP109      0.0015
    136  N         18.1710   18.6780   13.5880 N.am  110  GLU110     -0.1965
    137  CA        19.2830   19.5860   13.8220 C.3   110  GLU110      0.1733
    138  C         18.8720   20.3800   15.0450 C.2   110  GLU110      0.2617
    139  O         17.6910   20.6740   15.2120 O.2   110  GLU110     -0.2715
    140  CB        19.4900   20.5410   12.6320 C.3   110  GLU110      0.0429
    141  CG        19.9370   19.8810   11.3090 C.3   110  GLU110      0.1163
    142  CD        21.2520   19.1090   11.4260 C.2   110  GLU110      0.3649
    143  OE1       21.7680   18.9730   12.5580 O.co2 110  GLU110     -0.2457
    144  OE2       21.7680   18.6320   10.3890 O.co2 110  GLU110     -0.2457
    145  N         19.8310   20.7210   15.9030 N.am  111  SER111     -0.1950
    146  CA        19.5350   21.4800   17.1190 C.3   111  SER111      0.1924
    147  C         20.8160   21.8570   17.8530 C.2   111  SER111      0.2314
    148  O         21.9040   21.3610   17.5330 O.2   111  SER111     -0.2863
    149  CB        18.6560   20.6520   18.0660 C.3   111  SER111      0.2116
    150  OG        19.3940   19.5950   18.6720 O.3   111  SER111     -0.2180
    151  N         19.4140   19.0160   22.5010 N.3   116  GLU116     -0.1245
    152  CA        19.5590   17.7720   21.7690 C.3   116  GLU116      0.1567
    153  C         18.4680   16.7640   22.1830 C.2   116  GLU116      0.2260
    154  O         18.1060   15.8890   21.3990 O.2   116  GLU116     -0.2867
    155  CB        20.9750   17.1910   21.9690 C.3   116  GLU116      0.0388
    156  CG        22.1360   18.0810   21.5100 C.3   116  GLU116      0.1160
    157  CD        23.4720   17.3520   21.6180 C.2   116  GLU116      0.3649
    158  OE1       23.6650   16.6380   22.6280 O.co2 116  GLU116     -0.2457
    159  OE2       24.3260   17.4880   20.7070 O.co2 116  GLU116     -0.2457
    160  N         25.2200    6.4060   21.5390 N.3   128  GLU128     -0.1231
    161  CA        26.1410    6.6620   20.4440 C.3   128  GLU128      0.1699
    162  C         27.3450    7.4460   20.9240 C.2   128  GLU128      0.2593
    163  O         27.2440    8.2750   21.8280 O.2   128  GLU128     -0.2718
    164  CB        25.4500    7.4640   19.3470 C.3   128  GLU128      0.0402
    165  CG        24.2530    6.8000   18.7230 C.3   128  GLU128      0.1161
    166  CD        23.3960    7.8060   17.9870 C.2   128  GLU128      0.3649
    167  OE1       23.9700    8.8320   17.5570 O.co2 128  GLU128     -0.2457
    168  OE2       22.1680    7.5850   17.8280 O.co2 128  GLU128     -0.2457
    169  N         28.4830    7.1880   20.2960 N.am  129  SER129     -0.1938
    170  CA        29.7060    7.8880   20.6350 C.3   129  SER129      0.2055
    171  C         30.7990    7.6540   19.6040 C.2   129  SER129      0.2642
    172  O         30.5780    7.0270   18.5710 O.2   129  SER129     -0.2714
    173  CB        30.2140    7.4200   21.9890 C.3   129  SER129      0.2130
    174  OG        31.4330    8.0730   22.3070 O.3   129  SER129     -0.2179
    175  N         31.9790    8.1920   19.8900 N.am  130  ARG130     -0.1977
    176  CA        33.1580    8.0130   19.0530 C.3   130  ARG130      0.1597
    177  C         34.1710    7.3660   19.9900 C.2   130  ARG130      0.2287
    178  O         34.2000    7.6740   21.1810 O.2   130  ARG130     -0.2864
    179  CB        33.6980    9.3490   18.5500 C.3   130  ARG130      0.0334
    180  CG        32.9270    9.9180   17.3820 C.3   130  ARG130      0.0492
    181  CD        33.4790   11.2550   16.9660 C.3   130  ARG130      0.2205
    182  NE        32.3990   12.2060   16.7460 N.pl3 130  ARG130     -0.0865
    183  CZ        31.9890   13.0910   17.6500 C.cat 130  ARG130      0.5346
    184  NH1       32.5790   13.1540   18.8450 N.pl3 130  ARG130      0.1354
    185  NH2       30.9780   13.9080   17.3630 N.pl3 130  ARG130      0.1354
@<TRIPOS>BOND
     1    41    40    2
     2    34    35    1
     3    38    35    1
     4    38    39    1
     5    35    36    1
     6    40    39    1
     7    40    42   am
     8    36    37    2
     9    32    33    1
    10    32    31    1
    11    50    49   ar
    12   113   111   ar
    13    28    27    2
    14   110   111    1
    15   110   107    1
    16   111   112   ar
    17    80    78   am
    18    31    30    1
    19    49    48    1
    20    49    51   ar
    21    30    29    1
    22    27    26    1
    23   144   142   ar
    24   109   108    2
    25   108   107    1
    26     1     2    1
    27    48    47    1
    28   107   106    1
    29    47    44    1
    30     5     2    1
    31     5     6    1
    32     2     3    1
    33    43    44    1
    34    44    45    1
    35   104   103   ar
    36    78    79    2
    37    78    77    1
    38     6     7    1
    39   141   142    1
    40   141   140    1
    41   101   100    2
    42   103   105   ar
    43   103   102    1
    44     7     8    1
    45   142   143   ar
    46    29    26    1
    47   102    99    1
    48    75    74    2
    49    26    25    1
    50     9     8    1
    51    77    76    1
    52   100    99    1
    53     3     4    2
    54    76    73    1
    55    99    98    1
    56    74    73    1
    57    45    46    2
    58   140   137    1
    59    88    86   am
    60   134   135   ar
    61   134   132   ar
    62   135   133   ar
    63    71    69    1
    64    73    72    1
    65   122   123    1
    66   117   116    2
    67    68    69    2
    68    68    67    1
    69   132   129   ar
    70   133   131   ar
    71    24    23    2
    72   116   115    1
    73    86    85    1
    74    86    87    2
    75   123   124    1
    76   123   126    1
    77   136   137    1
    78   136   124   am
    79    85    82    1
    80    69    70    1
    81    98    91   am
    82   137   138    1
    83   124   125    2
    84    72    63   am
    85   131   129   ar
    86   131   130   ar
    87   129   127   ar
    88    17    19   ar
    89    17    15   ar
    90    67    66    1
    91   114   115    1
    92    23    22    1
    93    19    20   ar
    94    92    91    2
    95    65    66    1
    96    65    62    1
    97    64    63    2
    98    63    62    1
    99    81    82    1
   100    84    83    2
   101   130   128   ar
   102    91    90    1
   103   127   126    1
   104   127   128   ar
   105   115   118    1
   106    14    15    1
   107    14    11    1
   108    82    83    1
   109    15    16   ar
   110   138   139    2
   111   138   145   am
   112    13    12    2
   113    62    61    1
   114    52    53    1
   115    22    21    1
   116    20    18   ar
   117    54    55    2
   118    54    53    1
   119    12    21   am
   120    12    11    1
   121    10    11    1
   122    53    56    1
   123   145   146    1
   124   118   119    1
   125    90    89    1
   126    90    93    1
   127    16    18   ar
   128   121   119   am
   129    97    96    1
   130    95    94    1
   131    95    96    1
   132    93    94    1
   133   119   120    2
   134   182   181    1
   135   182   183    2
   136   181   180    1
   137   146   147    1
   138   146   149    1
   139    56    57    1
   140   185   183    1
   141   180   179    1
   142   148   147    2
   143   167   166   ar
   144   183   184    1
   145    57    58    1
   146   168   166   ar
   147   166   165    1
   148   149   150    1
   149   179   176    1
   150   172   171    2
   151   165   164    1
   152   176   175    1
   153   176   177    1
   154    58    59    1
   155   164   161    1
   156   171   175   am
   157   171   170    1
   158    59    60    1
   159   177   178    2
   160   169   170    1
   161   169   162   am
   162   161   162    1
   163   161   160    1
   164   170   173    1
   165   159   157   ar
   166   162   163    2
   167   154   153    2
   168   156   157    1
   169   156   155    1
   170   157   158   ar
   171   152   155    1
   172   152   153    1
   173   152   151    1
   174   173   174    1
