@<TRIPOS>MOLECULE
tmp/3vzvB00.pdb
 133 128 0 0 0
SMALL
GASTEIGER

@<TRIPOS>ATOM
      1  N         11.3740   -0.1880   -0.9940 N.3    30  LEU30      -0.1245
      2  CA        11.7130    0.5180   -2.2410 C.3    30  LEU30       0.1561
      3  C         11.3360   -0.3120   -3.4340 C.2    30  LEU30       0.2260
      4  O         11.2120    0.1940   -4.5790 O.2    30  LEU30      -0.2867
      5  CB        13.2020    0.7430   -2.3730 C.3    30  LEU30       0.0270
      6  CG        13.9330    1.3390   -1.1970 C.3    30  LEU30       0.0019
      7  CD1       15.3620    0.7760   -1.1900 C.3    30  LEU30       0.0001
      8  CD2       13.8430    2.8680   -1.1540 C.3    30  LEU30       0.0001
      9  N          7.4910    0.1220   -3.5940 N.3    33  LEU33      -0.1231
     10  CA         7.4090    1.5260   -4.0330 C.3    33  LEU33       0.1693
     11  C          7.6520    1.6170   -5.5170 C.2    33  LEU33       0.2592
     12  O          6.8470    2.2190   -6.2440 O.2    33  LEU33      -0.2718
     13  CB         8.4290    2.3780   -3.2990 C.3    33  LEU33       0.0284
     14  CG         7.8100    2.8820   -2.0130 C.3    33  LEU33       0.0019
     15  CD1        8.8280    3.8120   -1.3900 C.3    33  LEU33       0.0001
     16  CD2        6.4230    3.5340   -2.2490 C.3    33  LEU33       0.0001
     17  N          8.7500    0.9760   -5.9400 N.am   34  GLY34      -0.1957
     18  CA         9.0710    0.7940   -7.3560 C.3    34  GLY34       0.1869
     19  C          7.9290    0.1420   -8.1200 C.2    34  GLY34       0.2309
     20  O          7.4020    0.7390   -9.0730 O.2    34  GLY34      -0.2863
     21  N          5.0320    2.5410   -8.6970 N.3    37  ILE37      -0.1231
     22  CA         5.2540    3.6230   -9.6300 C.3    37  ILE37       0.1692
     23  C          5.1870    3.0710  -11.0590 C.2    37  ILE37       0.2591
     24  O          4.5280    3.6420  -11.9150 O.2    37  ILE37      -0.2718
     25  CB         6.6390    4.2950   -9.4000 C.3    37  ILE37       0.0266
     26  CG1        6.6890    5.1320   -8.1090 C.3    37  ILE37       0.0019
     27  CG2        7.0990    5.1440  -10.5980 C.3    37  ILE37       0.0020
     28  CD1        8.1030    5.1900   -7.5230 C.3    37  ILE37       0.0001
     29  N          5.8970    1.9700  -11.3070 N.am   38  MET38      -0.1979
     30  CA         5.8850    1.2960  -12.6060 C.3    38  MET38       0.1605
     31  C          4.4920    0.8890  -13.0290 C.2    38  MET38       0.2287
     32  O          4.0460    1.3110  -14.0780 O.2    38  MET38      -0.2864
     33  CB         6.8540    0.1100  -12.6390 C.3    38  MET38       0.0413
     34  CG         8.3180    0.5490  -12.4870 C.3    38  MET38       0.0598
     35  SD         8.7560    2.1140  -13.3400 S.3    38  MET38      -0.1393
     36  CE         8.6230    1.5780  -15.0440 C.3    38  MET38       0.0692
     37  N          5.4250    7.7250  -13.8850 N.3    43  TYR43      -0.1241
     38  CA         6.4580    8.5400  -14.4610 C.3    43  TYR43       0.1605
     39  C          5.9470    9.3370  -15.6700 C.2    43  TYR43       0.2264
     40  O          4.7300    9.6340  -15.7920 O.2    43  TYR43      -0.2867
     41  CB         7.6480    7.7000  -14.8230 C.3    43  TYR43       0.0534
     42  CG         7.2810    6.5170  -15.6280 C.ar   43  TYR43      -0.0201
     43  CD1        7.7760    6.3570  -16.9120 C.ar   43  TYR43      -0.0009
     44  CD2        6.4640    5.5270  -15.1120 C.ar   43  TYR43      -0.0009
     45  CE1        7.4690    5.2420  -17.6720 C.ar   43  TYR43       0.0417
     46  CE2        6.1580    4.4070  -15.8650 C.ar   43  TYR43       0.0417
     47  CZ         6.6630    4.2760  -17.1490 C.ar   43  TYR43       0.1957
     48  OH         6.3570    3.1910  -17.9470 O.3    43  TYR43      -0.2866
     49  N         12.0020   10.4880  -17.8910 N.3    48  GLN48      -0.1231
     50  CA        11.6200    9.2710  -17.1930 C.3    48  GLN48       0.1698
     51  C         12.4950    8.8900  -15.9760 C.2    48  GLN48       0.2592
     52  O         12.6720    7.7050  -15.6290 O.2    48  GLN48      -0.2718
     53  CB        11.5730    8.1250  -18.2010 C.3    48  GLN48       0.0381
     54  CG        10.7530    8.4440  -19.4310 C.3    48  GLN48       0.0905
     55  CD        10.3190    7.2040  -20.1750 C.2    48  GLN48       0.2608
     56  OE1       11.1010    6.2660  -20.3830 O.2    48  GLN48      -0.2717
     57  NE2        9.0520    7.1910  -20.5990 N.am   48  GLN48      -0.0878
     58  N         13.0320    9.9190  -15.3350 N.am   49  HIS49      -0.1976
     59  CA        13.6860    9.8110  -14.0340 C.3    49  HIS49       0.1656
     60  C         12.8000   10.5620  -13.0330 C.2    49  HIS49       0.2291
     61  O         12.6710   10.1280  -11.9040 O.2    49  HIS49      -0.2864
     62  CB        15.1520   10.3310  -14.1020 C.3    49  HIS49       0.0771
     63  CG        15.2720   11.8100  -14.5110 C.ar   49  HIS49       0.0820
     64  ND1       15.1270   12.2400  -15.7970 N.ar   49  HIS49      -0.2267
     65  CD2       15.4990   12.9650  -13.7400 C.ar   49  HIS49       0.1154
     66  CE1       15.2430   13.5920  -15.8400 C.ar   49  HIS49       0.1986
     67  NE2       15.4770   14.0350  -14.5850 N.ar   49  HIS49      -0.2212
     68  N          9.3470   11.6190  -11.2570 N.3    51  VAL51      -0.1245
     69  CA         8.1370   10.8810  -10.8920 C.3    51  VAL51       0.1561
     70  C          7.0450   11.8500  -10.4980 C.2    51  VAL51       0.2260
     71  O          7.2300   12.6410   -9.6040 O.2    51  VAL51      -0.2867
     72  CB         8.4090    9.9080   -9.7060 C.3    51  VAL51       0.0252
     73  CG1        7.1200    9.5500   -8.9340 C.3    51  VAL51       0.0019
     74  CG2        9.1650    8.6610  -10.1950 C.3    51  VAL51       0.0019
     75  N          3.8550   10.8050    0.5830 N.3    62  PHE62      -0.1241
     76  CA         5.1590   11.4610    0.3380 C.3    62  PHE62       0.1605
     77  C          5.2770   12.9850    0.5380 C.2    62  PHE62       0.2264
     78  O          6.4120   13.5000    0.6160 O.2    62  PHE62      -0.2867
     79  CB         5.6710   11.1120   -1.0230 C.3    62  PHE62       0.0534
     80  CG         6.5310    9.9260   -1.0150 C.ar   62  PHE62      -0.0203
     81  CD1        6.6200    9.1600    0.1160 C.ar   62  PHE62      -0.0042
     82  CD2        7.2390    9.5600   -2.1490 C.ar   62  PHE62      -0.0042
     83  CE1        7.4170    8.0470    0.1320 C.ar   62  PHE62      -0.0003
     84  CE2        8.0340    8.4420   -2.1620 C.ar   62  PHE62      -0.0003
     85  CZ         8.1170    7.6820   -1.0130 C.ar   62  PHE62      -0.0000
     86  N          9.1210   14.1220   -7.8000 N.3    67  PHE67      -0.1241
     87  CA        10.4620   14.0070   -7.2150 C.3    67  PHE67       0.1605
     88  C         11.4040   13.2210   -8.1640 C.2    67  PHE67       0.2264
     89  O         10.9450   12.6630   -9.2060 O.2    67  PHE67      -0.2867
     90  CB        10.4030   13.3680   -5.8360 C.3    67  PHE67       0.0534
     91  CG         9.8210   11.9460   -5.8230 C.ar   67  PHE67      -0.0203
     92  CD1       10.5920   10.8260   -6.2550 C.ar   67  PHE67      -0.0042
     93  CD2        8.5120   11.7140   -5.3520 C.ar   67  PHE67      -0.0042
     94  CE1       10.0570    9.5400   -6.2390 C.ar   67  PHE67      -0.0003
     95  CE2        7.9780   10.4260   -5.3330 C.ar   67  PHE67      -0.0003
     96  CZ         8.7460    9.3360   -5.7680 C.ar   67  PHE67      -0.0000
     97  N         13.8530   10.0280   -9.1460 N.3    69  VAL69      -0.1245
     98  CA        14.3550    8.6890   -8.7350 C.3    69  VAL69       0.1561
     99  C         15.8720    8.6350   -8.3940 C.2    69  VAL69       0.2260
    100  O         16.3750    7.6190   -7.8740 O.2    69  VAL69      -0.2867
    101  CB        13.9060    7.4860   -9.6480 C.3    69  VAL69       0.0252
    102  CG1       12.4620    7.6400  -10.0870 C.3    69  VAL69       0.0019
    103  CG2       14.8310    7.2580  -10.8410 C.3    69  VAL69       0.0019
    104  N         17.7790    9.6430   -3.8450 N.3    72  HIS72      -0.1241
    105  CA        17.9050    8.7230   -2.7070 C.3    72  HIS72       0.1621
    106  C         17.6970    9.3390   -1.3600 C.2    72  HIS72       0.2264
    107  O         16.8150    8.9540   -0.6320 O.2    72  HIS72      -0.2867
    108  CB        19.2470    8.0370   -2.7730 C.3    72  HIS72       0.0745
    109  CG        19.5330    7.3960   -4.1110 C.ar   72  HIS72       0.0817
    110  ND1       19.0490    6.1900   -4.4490 N.ar   72  HIS72      -0.2268
    111  CD2       20.2870    7.8370   -5.2050 C.ar   72  HIS72       0.1154
    112  CE1       19.4670    5.8540   -5.6890 C.ar   72  HIS72       0.1986
    113  NE2       20.2240    6.8660   -6.1560 N.ar   72  HIS72      -0.2212
    114  N         14.1030   10.6570   -0.9390 N.3    75  ILE75      -0.1231
    115  CA        13.3090    9.4510   -0.9470 C.3    75  ILE75       0.1692
    116  C         13.2520    8.8600    0.4610 C.2    75  ILE75       0.2592
    117  O         12.1450    8.7080    1.0010 O.2    75  ILE75      -0.2718
    118  CB        13.8040    8.4960   -2.0530 C.3    75  ILE75       0.0266
    119  CG1       13.4030    9.0850   -3.4250 C.3    75  ILE75       0.0019
    120  CG2       13.2180    7.1090   -1.9130 C.3    75  ILE75       0.0020
    121  CD1       13.9380    8.3640   -4.6600 C.3    75  ILE75       0.0001
    122  N         14.4160    8.6070    1.0850 N.am   76  TYR76      -0.1976
    123  CA        14.4800    8.1500    2.4750 C.3    76  TYR76       0.1639
    124  C         13.7840    9.0770    3.4630 C.2    76  TYR76       0.2290
    125  O         13.1500    8.6140    4.4150 O.2    76  TYR76      -0.2864
    126  CB        15.9020    7.9190    2.9010 C.3    76  TYR76       0.0560
    127  CG        16.4840    6.6540    2.3470 C.ar   76  TYR76      -0.0198
    128  CD1       17.5180    6.6920    1.4180 C.ar   76  TYR76      -0.0009
    129  CD2       16.0280    5.4180    2.7600 C.ar   76  TYR76      -0.0009
    130  CE1       18.0630    5.5440    0.8870 C.ar   76  TYR76       0.0417
    131  CE2       16.5880    4.2510    2.2530 C.ar   76  TYR76       0.0417
    132  CZ        17.5990    4.3180    1.3050 C.ar   76  TYR76       0.1957
    133  OH        18.1300    3.1420    0.7930 O.3    76  TYR76      -0.2866
@<TRIPOS>BOND
     1    57    55   am
     2    56    55    2
     3    55    54    1
     4    54    53    1
     5    53    50    1
     6    48    47    1
     7    49    50    1
     8    45    47   ar
     9    45    43   ar
    10    50    51    1
    11    47    46   ar
    12    43    42   ar
    13    51    52    2
    14    51    58   am
    15    46    44   ar
    16    66    64   ar
    17    66    67   ar
    18    64    63   ar
    19    40    39    2
    20    39    38    1
    21    42    44   ar
    22    42    41    1
    23    58    59    1
    24    36    35    1
    25    41    38    1
    26    67    65   ar
    27    63    62    1
    28    63    65   ar
    29    38    37    1
    30    62    59    1
    31    32    31    2
    32    59    60    1
    33    35    34    1
    34    60    61    2
    35    31    30    1
    36    33    30    1
    37    33    34    1
    38    30    29    1
    39    24    23    2
    40    29    23   am
    41    68    69    1
    42    23    22    1
    43    69    70    1
    44    69    72    1
    45   103   101    1
    46    27    25    1
    47    70    71    2
    48    74    72    1
    49   102   101    1
    50    72    73    1
    51   101    98    1
    52    22    25    1
    53    22    21    1
    54    25    26    1
    55    89    88    2
    56    97    98    1
    57    20    19    2
    58    98    99    1
    59    99   100    2
    60    88    87    1
    61    19    18    1
    62    26    28    1
    63    86    87    1
    64    18    17    1
    65    87    90    1
    66    92    94   ar
    67    92    91   ar
    68    12    11    2
    69    94    96   ar
    70   113   112   ar
    71   113   111   ar
    72    17    11   am
    73    90    91    1
    74    91    93   ar
    75    96    95   ar
    76   112   110   ar
    77    11    10    1
    78    93    95   ar
    79   111   109   ar
    80   121   119    1
    81     4     3    2
    82   110   109   ar
    83   109   108    1
    84    10     9    1
    85    10    13    1
    86   104   105    1
    87     3     2    1
    88   119   118    1
    89    13    14    1
    90   108   105    1
    91   105   106    1
    92     5     2    1
    93     5     6    1
    94    16    14    1
    95     2     1    1
    96    84    82   ar
    97    84    85   ar
    98    82    80   ar
    99   118   120    1
   100   118   115    1
   101    14    15    1
   102   106   107    2
   103     6     7    1
   104     6     8    1
   105    79    80    1
   106    79    76    1
   107    80    81   ar
   108    85    83   ar
   109   115   114    1
   110   115   116    1
   111    81    83   ar
   112    76    77    1
   113    76    75    1
   114   116   117    2
   115   116   122   am
   116    77    78    2
   117   133   132    1
   118   130   132   ar
   119   130   128   ar
   120   122   123    1
   121   132   131   ar
   122   128   127   ar
   123   131   129   ar
   124   127   129   ar
   125   127   126    1
   126   123   126    1
   127   123   124    1
   128   124   125    2
