@<TRIPOS>MOLECULE
tmp/3vzzB00.pdb
 221 208 0 0 0
SMALL
GASTEIGER

@<TRIPOS>ATOM
      1  N         -8.1120   -2.2010   33.8870 N.3    12  LYS12      -0.1245
      2  CA        -8.2400   -3.4230   33.0790 C.3    12  LYS12       0.1561
      3  C         -9.3610   -4.2290   33.7200 C.2    12  LYS12       0.2260
      4  O         -9.2890   -4.5500   34.8920 O.2    12  LYS12      -0.2867
      5  CB        -6.9420   -4.2140   33.0890 C.3    12  LYS12       0.0271
      6  CG        -6.9920   -5.4910   32.1910 C.3    12  LYS12       0.0035
      7  CD        -5.7350   -6.3140   32.3580 C.3    12  LYS12       0.0206
      8  CE        -4.7960   -6.0700   31.2280 C.3    12  LYS12       0.1093
      9  NZ        -3.7110   -7.1370   31.1150 N.3    12  LYS12      -0.1314
     10  N        -12.0310   -7.6230   33.8150 N.3    14  ASP14      -0.1239
     11  CA       -12.0290   -9.0150   33.4600 C.3    14  ASP14       0.1674
     12  C        -13.4590   -9.3800   33.0950 C.2    14  ASP14       0.2266
     13  O        -14.3670   -9.3760   33.9420 O.2    14  ASP14      -0.2867
     14  CB       -11.4980   -9.7980   34.6610 C.3    14  ASP14       0.1410
     15  CG       -11.5520  -11.2840   34.4660 C.2    14  ASP14       0.3668
     16  OD1      -11.7390  -11.7810   33.3160 O.co2  14  ASP14      -0.2456
     17  OD2      -11.3750  -11.9460   35.5300 O.co2  14  ASP14      -0.2456
     18  N         -8.6490  -10.4620   30.0540 N.3    39  GLY39      -0.1210
     19  CA        -9.0150  -11.8570   29.8900 C.3    39  GLY39       0.1956
     20  C         -8.1310  -12.9840   30.3540 C.2    39  GLY39       0.2612
     21  O         -8.5850  -13.8130   31.1290 O.2    39  GLY39      -0.2717
     22  N         -6.8970  -13.0490   29.9010 N.am   40  SER40      -0.1952
     23  CA        -5.9980  -14.1600   30.3120 C.3    40  SER40       0.1924
     24  C         -6.4840  -15.6090   29.9770 C.2    40  SER40       0.2314
     25  O         -5.7740  -16.3230   29.2370 O.2    40  SER40      -0.2863
     26  CB        -5.6540  -14.0910   31.8180 C.3    40  SER40       0.2116
     27  OG        -4.7930  -15.1730   32.2110 O.3    40  SER40      -0.2180
     28  N         -8.1210   -6.3840   24.8670 N.3    65  GLU65      -0.1231
     29  CA        -6.8080   -6.9770   24.8920 C.3    65  GLU65       0.1699
     30  C         -7.1480   -8.4020   24.4830 C.2    65  GLU65       0.2592
     31  O         -7.8170   -9.1260   25.2210 O.2    65  GLU65      -0.2718
     32  CB        -6.2510   -6.9860   26.3160 C.3    65  GLU65       0.0402
     33  CG        -4.8830   -7.6390   26.3030 C.3    65  GLU65       0.1161
     34  CD        -4.1610   -7.3920   27.5820 C.2    65  GLU65       0.3649
     35  OE1       -4.6660   -7.8500   28.6480 O.co2  65  GLU65      -0.2457
     36  OE2       -3.0980   -6.7410   27.5000 O.co2  65  GLU65      -0.2457
     37  N         -6.6720   -8.8230   23.3290 N.am   66  VAL66      -0.1966
     38  CA        -7.0300  -10.1430   22.8500 C.3    66  VAL66       0.1727
     39  C         -6.2720  -11.2780   23.5250 C.2    66  VAL66       0.2617
     40  O         -5.0500  -11.2750   23.4660 O.2    66  VAL66      -0.2715
     41  CB        -6.7780  -10.2350   21.3010 C.3    66  VAL66       0.0290
     42  CG1       -7.1230  -11.6100   20.7840 C.3    66  VAL66       0.0023
     43  CG2       -7.6510   -9.2460   20.5690 C.3    66  VAL66       0.0023
     44  N         -6.9740  -12.2410   24.1470 N.am   67  SER67      -0.1936
     45  CA        -6.3030  -13.4080   24.7730 C.3    67  SER67       0.2055
     46  C         -6.8260  -14.7360   24.1970 C.2    67  SER67       0.2643
     47  O         -6.3770  -15.8080   24.6070 O.2    67  SER67      -0.2714
     48  CB        -6.5010  -13.4490   26.2890 C.3    67  SER67       0.2130
     49  OG        -7.8830  -13.6280   26.5950 O.3    67  SER67      -0.2179
     50  N         -7.7790  -14.6660   23.2570 N.am   68  ALA68      -0.1963
     51  CA        -8.3260  -15.8750   22.6380 C.3    68  ALA68       0.1728
     52  C         -8.9380  -15.5290   21.2980 C.2    68  ALA68       0.2616
     53  O         -9.6440  -14.5430   21.1620 O.2    68  ALA68      -0.2715
     54  CB        -9.3790  -16.4850   23.5570 C.3    68  ALA68       0.0334
     55  N         -8.7000  -16.3610   20.2970 N.am   69  ILE69      -0.1977
     56  CA        -9.2250  -16.0820   18.9650 C.3    69  ILE69       0.1596
     57  C        -10.7560  -16.0820   18.9430 C.2    69  ILE69       0.2287
     58  O        -11.3840  -15.2840   18.2220 O.2    69  ILE69      -0.2864
     59  CB        -8.6330  -17.1010   17.9770 C.3    69  ILE69       0.0276
     60  CG1       -7.0950  -16.8900   17.9770 C.3    69  ILE69       0.0022
     61  CG2       -9.1850  -16.8820   16.5800 C.3    69  ILE69       0.0022
     62  CD1       -6.2090  -17.9560   17.2920 C.3    69  ILE69       0.0001
     63  N        -12.4130  -12.4890   19.9120 N.3    72  ILE72      -0.1245
     64  CA       -12.1940  -11.2760   19.1450 C.3    72  ILE72       0.1561
     65  C        -13.6350  -10.8130   18.7820 C.2    72  ILE72       0.2260
     66  O        -14.4440  -11.5920   18.2570 O.2    72  ILE72      -0.2867
     67  CB       -11.4180  -11.5980   17.8970 C.3    72  ILE72       0.0252
     68  CG1      -10.1350  -12.3270   18.3010 C.3    72  ILE72       0.0019
     69  CG2      -11.1200  -10.3220   17.1050 C.3    72  ILE72       0.0019
     70  CD1       -9.1450  -12.6140   17.1400 C.3    72  ILE72       0.0001
     71  N         -2.7630   -6.6090   21.1920 N.3    81  ILE81      -0.1231
     72  CA        -2.4790   -8.0210   20.9830 C.3    81  ILE81       0.1678
     73  C         -1.2180   -8.4170   21.8010 C.2    81  ILE81       0.2434
     74  O         -0.0890   -8.0420   21.4370 O.2    81  ILE81      -0.2733
     75  CB        -2.1690   -8.3050   19.5250 C.3    81  ILE81       0.0265
     76  CG1       -3.3330   -7.8530   18.6370 C.3    81  ILE81       0.0019
     77  CG2       -1.8910   -9.8460   19.3840 C.3    81  ILE81       0.0020
     78  CD1       -4.7200   -8.3330   19.0880 C.3    81  ILE81       0.0001
     79  N         -1.3860   -9.1750   22.8910 N.am   82  PRO82      -0.2729
     80  CA        -0.1430   -9.4860   23.6070 C.3    82  PRO82       0.1401
     81  C          0.7750  -10.5340   22.9760 C.2    82  PRO82       0.2269
     82  O          0.3150  -11.4360   22.2990 O.2    82  PRO82      -0.2865
     83  CB        -0.6190   -9.9670   24.9670 C.3    82  PRO82       0.0296
     84  CG        -2.1890   -9.6930   25.0000 C.3    82  PRO82       0.0237
     85  CD        -2.5810   -9.7050   23.5790 C.3    82  PRO82       0.0939
     86  N          3.8560  -12.8010   24.6670 N.3    84  VAL84      -0.1245
     87  CA         4.5820  -13.0670   25.9030 C.3    84  VAL84       0.1561
     88  C          6.0190  -13.3760   25.5310 C.2    84  VAL84       0.2260
     89  O          6.3440  -14.4870   25.1250 O.2    84  VAL84      -0.2867
     90  CB         3.8530  -14.2110   26.6170 C.3    84  VAL84       0.0252
     91  CG1        4.3480  -14.4200   28.0530 C.3    84  VAL84       0.0019
     92  CG2        2.3160  -13.8260   26.6460 C.3    84  VAL84       0.0019
     93  N          2.2940  -18.6110   22.4970 N.3    92  TRP92      -0.1241
     94  CA         2.0340  -17.3400   23.1580 C.3    92  TRP92       0.1605
     95  C          2.8720  -16.1680   22.6380 C.2    92  TRP92       0.2264
     96  O          2.7010  -15.0400   23.0920 O.2    92  TRP92      -0.2867
     97  CB         2.2500  -17.5040   24.6730 C.3    92  TRP92       0.0550
     98  CG         1.4080  -18.5950   25.2180 C.ar   92  TRP92       0.0003
     99  CD1        1.7930  -19.8840   25.4860 C.ar   92  TRP92       0.0946
    100  CD2        0.0060  -18.5420   25.4270 C.ar   92  TRP92       0.0152
    101  NE1        0.7070  -20.6370   25.8370 N.ar   92  TRP92      -0.2442
    102  CE2       -0.4050  -19.8310   25.8120 C.ar   92  TRP92       0.0810
    103  CE3       -0.9500  -17.5180   25.3330 C.ar   92  TRP92       0.0012
    104  CZ2       -1.7520  -20.1380   26.1090 C.ar   92  TRP92       0.0191
    105  CZ3       -2.2790  -17.8110   25.6330 C.ar   92  TRP92       0.0001
    106  CH2       -2.6690  -19.1150   26.0190 C.ar   92  TRP92       0.0015
    107  N         -0.4080  -18.4000   18.1640 N.3    96  MET96      -0.1230
    108  CA        -1.8300  -18.0520   18.1690 C.3    96  MET96       0.1702
    109  C         -2.0930  -16.8680   17.2660 C.2    96  MET96       0.2592
    110  O         -3.1740  -16.7830   16.6320 O.2    96  MET96      -0.2718
    111  CB        -2.3190  -17.7580   19.5960 C.3    96  MET96       0.0401
    112  CG        -2.1280  -18.9830   20.5240 C.3    96  MET96       0.0596
    113  SD        -2.2160  -18.6620   22.3170 S.3    96  MET96      -0.1393
    114  CE        -2.7840  -20.4200   22.9930 C.3    96  MET96       0.0692
    115  N         -1.1090  -15.9620   17.1930 N.am   97  HIS97      -0.1976
    116  CA        -1.2280  -14.7630   16.3720 C.3    97  HIS97       0.1656
    117  C         -1.3350  -15.0870   14.8440 C.2    97  HIS97       0.2291
    118  O         -2.0740  -14.4080   14.1200 O.2    97  HIS97      -0.2864
    119  CB        -0.0250  -13.8410   16.6220 C.3    97  HIS97       0.0771
    120  CG         0.2950  -13.6410   18.0670 C.ar   97  HIS97       0.0820
    121  ND1        0.6710  -14.6800   18.9100 N.ar   97  HIS97      -0.2267
    122  CD2        0.3040  -12.5180   18.8200 C.ar   97  HIS97       0.1154
    123  CE1        0.8960  -14.1960   20.1130 C.ar   97  HIS97       0.1986
    124  NE2        0.6760  -12.8870   20.0870 N.ar   97  HIS97      -0.2212
    125  N         -4.8260  -16.5370   14.1820 N.3   100  ALA100     -0.1245
    126  CA        -5.7680  -15.4360   14.1200 C.3   100  ALA100      0.1562
    127  C         -5.7030  -14.7100   12.7860 C.2   100  ALA100      0.2260
    128  O         -6.7480  -14.4010   12.1820 O.2   100  ALA100     -0.2867
    129  CB        -5.5160  -14.4250   15.3010 C.3   100  ALA100      0.0290
    130  N         -9.0870   -8.1640   10.9510 N.3   108  MET108     -0.1245
    131  CA        -7.9270   -7.5530   11.5940 C.3   108  MET108      0.1570
    132  C         -7.4560   -6.2780   10.8800 C.2   108  MET108      0.2261
    133  O         -7.0580   -5.3140   11.5270 O.2   108  MET108     -0.2867
    134  CB        -6.7820   -8.5620   11.6870 C.3   108  MET108      0.0387
    135  CG        -7.0560   -9.7400   12.6420 C.3   108  MET108      0.0595
    136  SD        -6.8220   -9.3510   14.3990 S.3   108  MET108     -0.1393
    137  CE        -8.5650   -8.9880   14.9440 C.3   108  MET108      0.0692
    138  N          4.8140   -8.4070   26.3160 N.3   118  TYR118     -0.1241
    139  CA         4.6160   -8.7300   27.6930 C.3   118  TYR118      0.1605
    140  C          5.8110   -9.3380   28.3430 C.2   118  TYR118      0.2264
    141  O          6.4790  -10.1410   27.7230 O.2   118  TYR118     -0.2867
    142  CB         3.5350   -9.7950   27.7970 C.3   118  TYR118      0.0534
    143  CG         2.2080   -9.2440   28.2490 C.ar  118  TYR118     -0.0201
    144  CD1        1.7230   -9.5360   29.4890 C.ar  118  TYR118     -0.0009
    145  CD2        1.4530   -8.4350   27.4060 C.ar  118  TYR118     -0.0009
    146  CE1        0.5010   -9.0520   29.9120 C.ar  118  TYR118      0.0417
    147  CE2        0.2220   -7.9310   27.8070 C.ar  118  TYR118      0.0417
    148  CZ        -0.2460   -8.2380   29.0560 C.ar  118  TYR118      0.1957
    149  OH        -1.4460   -7.6960   29.5110 O.3   118  TYR118     -0.2866
    150  N          6.0720  -11.3640   31.7830 N.3   120  ILE120     -0.1245
    151  CA         5.3810  -11.8350   33.0040 C.3   120  ILE120      0.1561
    152  C          6.4450  -12.1450   34.0560 C.2   120  ILE120      0.2260
    153  O          7.1580  -13.1450   33.9570 O.2   120  ILE120     -0.2867
    154  CB         4.4870  -13.0680   32.7220 C.3   120  ILE120      0.0252
    155  CG1        3.3550  -12.6360   31.7650 C.3   120  ILE120      0.0019
    156  CG2        3.7580  -13.5790   34.0610 C.3   120  ILE120      0.0019
    157  CD1        2.6920  -13.7870   31.1050 C.3   120  ILE120      0.0001
    158  N         -1.5950  -17.1720   37.5830 N.3   126  LYS126     -0.1231
    159  CA        -2.2950  -17.9370   36.5700 C.3   126  LYS126      0.1693
    160  C         -1.7170  -17.6550   35.1850 C.2   126  LYS126      0.2591
    161  O         -1.6000  -18.5760   34.3520 O.2   126  LYS126     -0.2718
    162  CB        -3.7950  -17.6030   36.5920 C.3   126  LYS126      0.0285
    163  CG        -4.6170  -18.2740   35.4780 C.3   126  LYS126      0.0035
    164  CD        -6.1420  -18.3020   35.7680 C.3   126  LYS126      0.0206
    165  CE        -6.7420  -16.9290   35.7130 C.3   126  LYS126      0.1093
    166  NZ        -8.1340  -16.8220   36.2640 N.3   126  LYS126     -0.1314
    167  N         -1.3470  -16.3960   34.9210 N.am  127  ALA127     -0.1980
    168  CA        -0.8140  -16.0740   33.5960 C.3   127  ALA127      0.1597
    169  C          0.5170  -16.7820   33.2820 C.2   127  ALA127      0.2287
    170  O          0.7200  -17.2490   32.1590 O.2   127  ALA127     -0.2864
    171  CB        -0.6730  -14.5290   33.4120 C.3   127  ALA127      0.0319
    172  N         -0.2150  -20.6310   32.5260 N.3   130  LEU130     -0.1231
    173  CA        -0.8520  -20.7610   31.2260 C.3   130  LEU130      0.1693
    174  C          0.1100  -20.5810   30.0530 C.2   130  LEU130      0.2592
    175  O          0.1630  -21.3890   29.1140 O.2   130  LEU130     -0.2718
    176  CB        -1.9500  -19.7130   31.1360 C.3   130  LEU130      0.0284
    177  CG        -2.6960  -19.5740   29.8160 C.3   130  LEU130      0.0019
    178  CD1       -3.8730  -20.5780   29.7750 C.3   130  LEU130      0.0001
    179  CD2       -3.2070  -18.1230   29.6910 C.3   130  LEU130      0.0001
    180  N          0.8890  -19.5190   30.1260 N.am  131  THR131     -0.1953
    181  CA         1.8040  -19.2180   29.0520 C.3   131  THR131      0.1897
    182  C          3.1610  -19.8840   29.1560 C.2   131  THR131      0.2313
    183  O          3.9970  -19.6200   28.3240 O.2   131  THR131     -0.2863
    184  CB         2.0600  -17.6670   28.9480 C.3   131  THR131      0.1794
    185  OG1        2.7950  -17.2520   30.1000 O.3   131  THR131     -0.2208
    186  CG2        0.7540  -16.8880   28.8610 C.3   131  THR131      0.0378
    187  N          4.8990   -4.3630   28.4190 N.3   158  TYR158     -0.1241
    188  CA         4.0360   -4.4800   29.5690 C.3   158  TYR158      0.1605
    189  C          4.7420   -5.3970   30.5870 C.2   158  TYR158      0.2264
    190  O          4.9660   -6.5650   30.3380 O.2   158  TYR158     -0.2867
    191  CB         2.7000   -5.0680   29.0710 C.3   158  TYR158      0.0534
    192  CG         1.5450   -5.0090   30.0110 C.ar  158  TYR158     -0.0201
    193  CD1        1.6130   -5.6180   31.2770 C.ar  158  TYR158     -0.0009
    194  CD2        0.3500   -4.4140   29.6350 C.ar  158  TYR158     -0.0009
    195  CE1        0.4930   -5.6400   32.1420 C.ar  158  TYR158      0.0417
    196  CE2       -0.7900   -4.4360   30.5100 C.ar  158  TYR158      0.0417
    197  CZ        -0.7000   -5.0630   31.7560 C.ar  158  TYR158      0.1957
    198  OH        -1.8120   -5.2170   32.5880 O.3   158  TYR158     -0.2866
    199  N          4.3850   -7.3610   33.6280 N.3   160  GLU160     -0.1245
    200  CA         3.2270   -7.9160   34.2890 C.3   160  GLU160      0.1567
    201  C          3.5440   -8.7310   35.5240 C.2   160  GLU160      0.2260
    202  O          4.1980   -9.8080   35.4050 O.2   160  GLU160     -0.2867
    203  CB         2.5080   -8.8060   33.2900 C.3   160  GLU160      0.0388
    204  CG         1.4910   -9.6900   33.9110 C.3   160  GLU160      0.1160
    205  CD         0.1530   -9.0010   34.1510 C.2   160  GLU160      0.3649
    206  OE1        0.0270   -8.1840   35.1090 O.co2 160  GLU160     -0.2457
    207  OE2       -0.7800   -9.3040   33.3580 O.co2 160  GLU160     -0.2457
    208  N          0.9340   -9.2500   37.8610 N.3   162  SER162     -0.1217
    209  CA        -0.3580   -9.7740   38.2550 C.3   162  SER162      0.1889
    210  C         -0.9100   -9.2440   39.5540 C.2   162  SER162      0.2288
    211  O         -1.2840   -8.0750   39.6460 O.2   162  SER162     -0.2866
    212  CB        -0.2700  -11.2900   38.3610 C.3   162  SER162      0.2089
    213  OG        -1.5230  -11.8600   38.0770 O.3   162  SER162     -0.2183
    214  N         -7.3140   -6.0610   39.2100 N.3   209  ASN209     -0.1240
    215  CA        -7.9010   -6.8310   40.3080 C.3   209  ASN209      0.1653
    216  C         -8.5320   -5.9770   41.4000 C.2   209  ASN209      0.2266
    217  O         -9.6280   -6.2720   41.9370 O.2   209  ASN209     -0.2867
    218  CB        -6.8300   -7.7040   40.9810 C.3   209  ASN209      0.1155
    219  CG        -6.2840   -8.8080   40.0720 C.2   209  ASN209      0.2627
    220  OD1       -7.0170   -9.3940   39.2740 O.2   209  ASN209     -0.2716
    221  ND2       -4.9790   -9.1270   40.2260 N.am  209  ASN209     -0.0877
@<TRIPOS>BOND
     1   132   133    2
     2   132   131    1
     3   130   131    1
     4   131   134    1
     5   134   135    1
     6   128   127    2
     7   135   136    1
     8   127   126    1
     9   126   125    1
    10   126   129    1
    11   118   117    2
    12   136   137    1
    13   117   116    1
    14   116   119    1
    15   116   115    1
    16    61    59    1
    17   119   120    1
    18   110   109    2
    19    69    67    1
    20    70    68    1
    21   115   109   am
    22   109   108    1
    23    62    60    1
    24    67    68    1
    25    67    64    1
    26    59    60    1
    27    59    56    1
    28   120   122   ar
    29   120   121   ar
    30   107   108    1
    31   108   111    1
    32    58    57    2
    33    66    65    2
    34    76    78    1
    35    76    75    1
    36    65    64    1
    37   122   124   ar
    38   121   123   ar
    39    57    56    1
    40    56    55    1
    41    64    63    1
    42    77    75    1
    43    75    72    1
    44   111   112    1
    45   124   123   ar
    46    55    52   am
    47   112   113    1
    48    43    41    1
    49    42    41    1
    50    72    71    1
    51    72    73    1
    52    53    52    2
    53    52    51    1
    54    41    38    1
    55    74    73    2
    56    73    79   am
    57    82    81    2
    58   113   114    1
    59    93    94    1
    60    95    96    2
    61    95    94    1
    62    51    50    1
    63    51    54    1
    64    38    37    1
    65    38    39    1
    66    79    85    1
    67    79    80    1
    68    81    80    1
    69    94    97    1
    70    50    46   am
    71    37    30   am
    72    40    39    2
    73    39    44   am
    74    85    84    1
    75    80    83    1
    76    44    45    1
    77    46    47    2
    78    46    45    1
    79    30    29    1
    80    30    31    2
    81    86    87    1
    82    97    98    1
    83    45    48    1
    84    28    29    1
    85    29    32    1
    86    83    84    1
    87    89    88    2
    88    98   100   ar
    89    98    99   ar
    90   103   100   ar
    91   103   105   ar
    92   100   102   ar
    93    99   101   ar
    94    88    87    1
    95   105   106   ar
    96   102   101   ar
    97   102   104   ar
    98    87    90    1
    99   106   104   ar
   100    48    49    1
   101    33    32    1
   102    33    34    1
   103   138   139    1
   104    90    92    1
   105    90    91    1
   106   145   147   ar
   107   145   143   ar
   108    36    34   ar
   109    34    35   ar
   110   139   142    1
   111   139   140    1
   112   141   140    2
   113   142   143    1
   114   147   148   ar
   115   143   144   ar
   116   183   182    2
   117   187   188    1
   118   186   184    1
   119   184   181    1
   120   184   185    1
   121   181   182    1
   122   181   180    1
   123   148   149    1
   124   148   146   ar
   125   191   188    1
   126   191   192    1
   127   175   174    2
   128    25    24    2
   129   144   146   ar
   130   188   189    1
   131   194   192   ar
   132   194   196   ar
   133   179   177    1
   134   178   177    1
   135   177   176    1
   136    19    18    1
   137    19    20    1
   138    22    23    1
   139    22    20   am
   140    24    23    1
   141   192   193   ar
   142   174   180   am
   143   174   173    1
   144    23    26    1
   145   190   189    2
   146    20    21    2
   147   196   197   ar
   148   157   155    1
   149     9     8    1
   150   176   173    1
   151   173   172    1
   152     8     7    1
   153   193   195   ar
   154   197   195   ar
   155   197   198    1
   156   155   154    1
   157   150   151    1
   158    26    27    1
   159   170   169    2
   160     6     7    1
   161     6     5    1
   162   154   151    1
   163   154   156    1
   164   151   152    1
   165     2     5    1
   166     2     3    1
   167     2     1    1
   168    12    11    1
   169    12    13    2
   170   169   168    1
   171   203   204    1
   172   203   200    1
   173    16    15   ar
   174   207   205   ar
   175   171   168    1
   176    11    10    1
   177    11    14    1
   178   168   167    1
   179   199   200    1
   180     3     4    2
   181   204   205    1
   182   153   152    2
   183   205   206   ar
   184   200   201    1
   185   161   160    2
   186    15    14    1
   187    15    17   ar
   188   167   160   am
   189   160   159    1
   190   202   201    2
   191   163   164    1
   192   163   162    1
   193   165   164    1
   194   165   166    1
   195   159   162    1
   196   159   158    1
   197   208   209    1
   198   213   212    1
   199   209   212    1
   200   209   210    1
   201   214   215    1
   202   220   219    2
   203   210   211    2
   204   219   221   am
   205   219   218    1
   206   215   218    1
   207   215   216    1
   208   216   217    2
