@<TRIPOS>MOLECULE
tmp/3w00B01.pdb
 91 86 0 0 0
SMALL
GASTEIGER

@<TRIPOS>ATOM
      1  N         -8.2160   -2.3040   33.9750 N.3    11  LYS11      -0.1245
      2  CA        -8.3260   -3.5590   33.2400 C.3    11  LYS11       0.1561
      3  C         -9.4220   -4.3450   33.8870 C.2    11  LYS11       0.2260
      4  O         -9.2980   -4.7890   35.0170 O.2    11  LYS11      -0.2867
      5  CB        -7.0700   -4.3940   33.2980 C.3    11  LYS11       0.0271
      6  CG        -7.0920   -5.5580   32.3260 C.3    11  LYS11       0.0035
      7  CD        -5.8950   -6.5010   32.4820 C.3    11  LYS11       0.0206
      8  CE        -4.7350   -6.1870   31.5120 C.3    11  LYS11       0.1093
      9  NZ        -3.6370   -7.2720   31.4790 N.3    11  LYS11      -0.1314
     10  N          4.6980   -4.3730   28.4800 N.3   157  TYR157     -0.1241
     11  CA         3.8570   -4.5490   29.6200 C.3   157  TYR157      0.1605
     12  C          4.5740   -5.4750   30.6050 C.2   157  TYR157      0.2264
     13  O          4.7980   -6.6510   30.3330 O.2   157  TYR157     -0.2867
     14  CB         2.5670   -5.1240   29.0720 C.3   157  TYR157      0.0534
     15  CG         1.4360   -5.0550   29.9860 C.ar  157  TYR157     -0.0201
     16  CD1        1.5810   -5.4990   31.2890 C.ar  157  TYR157     -0.0009
     17  CD2        0.1860   -4.6240   29.5510 C.ar  157  TYR157     -0.0009
     18  CE1        0.5090   -5.5450   32.1700 C.ar  157  TYR157      0.0417
     19  CE2       -0.9090   -4.6510   30.4100 C.ar  157  TYR157      0.0417
     20  CZ        -0.7270   -5.1270   31.7340 C.ar  157  TYR157      0.1957
     21  OH        -1.7420   -5.2250   32.6490 O.3   157  TYR157     -0.2866
     22  N          4.3770   -7.4150   33.6650 N.3   159  GLU159     -0.1245
     23  CA         3.2510   -7.9030   34.4410 C.3   159  GLU159      0.1567
     24  C          3.4920   -8.7100   35.7080 C.2   159  GLU159      0.2260
     25  O          4.0980   -9.7620   35.6560 O.2   159  GLU159     -0.2867
     26  CB         2.3450   -8.6580   33.4730 C.3   159  GLU159      0.0388
     27  CG         1.4220   -9.6570   34.0620 C.3   159  GLU159      0.1160
     28  CD         0.0000   -9.1370   34.1420 C.2   159  GLU159      0.3649
     29  OE1       -0.2690   -8.2930   35.0540 O.co2 159  GLU159     -0.2457
     30  OE2       -0.8340   -9.5730   33.2800 O.co2 159  GLU159     -0.2457
     31  N          0.6700   -9.3720   38.0420 N.3   161  SER161     -0.1202
     32  CA        -0.6090   -9.8530   38.5750 C.3   161  SER161      0.2020
     33  C         -1.0140   -9.3610   39.9330 C.2   161  SER161      0.2619
     34  O         -0.8970   -8.1780   40.2710 O.2   161  SER161     -0.2717
     35  CB        -0.5980  -11.3640   38.6740 C.3   161  SER161      0.2103
     36  OG        -0.6780  -11.9400   37.3880 O.3   161  SER161     -0.2182
     37  N         -1.4770  -10.3050   40.7350 N.am  162  GLY162     -0.1956
     38  CA        -1.9060   -9.9610   42.0580 C.3   162  GLY162      0.1869
     39  C         -0.8630   -9.4610   43.0300 C.2   162  GLY162      0.2309
     40  O         -1.2300   -9.2080   44.1610 O.2   162  GLY162     -0.2863
     41  N          1.6380   -3.3420   35.5990 N.3   185  GLY185     -0.1210
     42  CA         0.4400   -3.8640   36.2250 C.3   185  GLY185      0.1956
     43  C          0.9110   -4.7150   37.3700 C.2   185  GLY185      0.2612
     44  O          1.9770   -5.3450   37.2910 O.2   185  GLY185     -0.2717
     45  N          0.1470   -4.7480   38.4490 N.am  186  GLY186     -0.1942
     46  CA         0.5870   -5.5510   39.5750 C.3   186  GLY186      0.2014
     47  C          0.4250   -4.9450   40.9560 C.2   186  GLY186      0.2639
     48  O          1.1790   -4.0730   41.3660 O.2   186  GLY186     -0.2714
     49  N         -0.5830   -5.4230   41.6690 N.am  187  GLY187     -0.1939
     50  CA        -0.8370   -4.9740   43.0140 C.3   187  GLY187      0.2014
     51  C         -1.2370   -3.5460   43.2950 C.2   187  GLY187      0.2638
     52  O         -1.3190   -3.1920   44.4450 O.2   187  GLY187     -0.2714
     53  N         -1.4890   -2.7080   42.3110 N.am  188  ILE188     -0.1977
     54  CA        -1.8950   -1.3450   42.6540 C.3   188  ILE188      0.1596
     55  C         -3.3590   -1.2910   43.1170 C.2   188  ILE188      0.2287
     56  O         -4.3150   -1.3330   42.3430 O.2   188  ILE188     -0.2864
     57  CB        -1.6920   -0.4010   41.4970 C.3   188  ILE188      0.0276
     58  CG1       -0.2060   -0.3570   41.1430 C.3   188  ILE188      0.0022
     59  CG2       -2.3060    0.9480   41.8620 C.3   188  ILE188      0.0022
     60  CD1        0.0780    0.2960   39.8330 C.3   188  ILE188      0.0001
     61  N         -1.5570    0.1060   35.3980 N.3   205  VAL205     -0.1231
     62  CA        -2.7910   -0.5890   35.1260 C.3   205  VAL205      0.1692
     63  C         -3.4010   -1.0290   36.4510 C.2   205  VAL205      0.2592
     64  O         -2.7000   -1.5160   37.2810 O.2   205  VAL205     -0.2718
     65  CB        -2.4980   -1.8240   34.2750 C.3   205  VAL205      0.0266
     66  CG1       -3.7890   -2.4830   33.8900 C.3   205  VAL205      0.0020
     67  CG2       -1.6590   -1.4290   33.0460 C.3   205  VAL205      0.0020
     68  N         -4.6940   -0.8540   36.6520 N.am  206  VAL206     -0.1966
     69  CA        -5.3390   -1.2570   37.8820 C.3   206  VAL206      0.1727
     70  C         -6.5250   -2.1610   37.4700 C.2   206  VAL206      0.2617
     71  O         -7.4360   -1.6970   36.7970 O.2   206  VAL206     -0.2715
     72  CB        -5.8070    0.0300   38.6460 C.3   206  VAL206      0.0290
     73  CG1       -6.6670   -0.2800   39.9090 C.3   206  VAL206      0.0023
     74  CG2       -4.6230    0.8290   38.9750 C.3   206  VAL206      0.0023
     75  N         -6.4920   -3.4390   37.8750 N.am  207  GLY207     -0.1940
     76  CA        -7.5330   -4.4120   37.5510 C.3   207  GLY207      0.2014
     77  C         -8.2640   -4.9470   38.7630 C.2   207  GLY207      0.2639
     78  O         -9.2670   -4.3740   39.2130 O.2   207  GLY207     -0.2714
     79  N         -7.7520   -6.0620   39.2760 N.am  208  ASN208     -0.1958
     80  CA        -8.2360   -6.7560   40.4840 C.3   208  ASN208      0.1819
     81  C         -8.8190   -5.9500   41.6040 C.2   208  ASN208      0.2621
     82  O         -9.8540   -6.3000   42.1900 O.2   208  ASN208     -0.2715
     83  CB        -7.0900   -7.5200   41.1150 C.3   208  ASN208      0.1195
     84  CG        -7.1440   -8.9770   40.8110 C.2   208  ASN208      0.2630
     85  OD1       -8.0970   -9.6740   41.2280 O.2   208  ASN208     -0.2716
     86  ND2       -6.1350   -9.4660   40.0690 N.am  208  ASN208     -0.0877
     87  N         -8.0700   -4.9230   41.9720 N.am  209  ALA209     -0.1977
     88  CA        -8.4630   -4.0280   43.0320 C.3   209  ALA209      0.1597
     89  C         -9.9010   -3.5770   42.8440 C.2   209  ALA209      0.2287
     90  O        -10.6410   -3.4730   43.8400 O.2   209  ALA209     -0.2864
     91  CB        -7.5630   -2.8430   43.0490 C.3   209  ALA209      0.0319
@<TRIPOS>BOND
     1    10    11    1
     2    14    11    1
     3    14    15    1
     4    17    15   ar
     5    17    19   ar
     6    11    12    1
     7    15    16   ar
     8    13    12    2
     9    19    20   ar
    10    16    18   ar
    11     9     8    1
    12     8     7    1
    13    20    18   ar
    14    20    21    1
    15     6     7    1
    16     6     5    1
    17    67    65    1
    18     2     5    1
    19     2     3    1
    20     2     1    1
    21    30    28   ar
    22    26    27    1
    23    26    23    1
    24    22    23    1
    25     3     4    2
    26    66    65    1
    27    27    28    1
    28    28    29   ar
    29    65    62    1
    30    23    24    1
    31    62    61    1
    32    62    63    1
    33    41    42    1
    34    25    24    2
    35    42    43    1
    36    63    68   am
    37    63    64    2
    38    68    69    1
    39    71    70    2
    40    44    43    2
    41    43    45   am
    42    36    35    1
    43    70    75   am
    44    70    69    1
    45    76    75    1
    46    76    77    1
    47    69    72    1
    48    31    32    1
    49    45    46    1
    50    32    35    1
    51    32    33    1
    52    72    74    1
    53    72    73    1
    54    77    78    2
    55    77    79   am
    56    79    80    1
    57    46    47    1
    58    60    58    1
    59    33    34    2
    60    33    37   am
    61    86    84   am
    62    80    83    1
    63    80    81    1
    64    37    38    1
    65    84    83    1
    66    84    85    2
    67    47    48    2
    68    47    49   am
    69    58    57    1
    70    57    59    1
    71    57    54    1
    72    81    87   am
    73    81    82    2
    74    49    50    1
    75    87    88    1
    76    38    39    1
    77    53    54    1
    78    53    51   am
    79    56    55    2
    80    54    55    1
    81    89    88    1
    82    89    90    2
    83    50    51    1
    84    39    40    2
    85    88    91    1
    86    51    52    2
