@<TRIPOS>MOLECULE
tmp/3w01B00.pdb
 140 133 0 0 0
SMALL
GASTEIGER

@<TRIPOS>ATOM
      1  N          5.7280   28.6460   28.8980 N.3    65  ILE65      -0.1231
      2  CA         6.6140   28.2870   30.0150 C.3    65  ILE65       0.1692
      3  C          7.6240   29.3920   30.2720 C.2    65  ILE65       0.2593
      4  O          8.5780   29.5570   29.4810 O.2    65  ILE65      -0.2718
      5  CB         7.3730   27.0160   29.6890 C.3    65  ILE65       0.0266
      6  CG1        6.3950   25.9160   29.2920 C.3    65  ILE65       0.0019
      7  CG2        8.2620   26.5800   30.9280 C.3    65  ILE65       0.0020
      8  CD1        7.0790   24.7740   28.5810 C.3    65  ILE65       0.0001
      9  N          7.4220   30.0850   31.3970 N.am   66  SER66      -0.1938
     10  CA         8.2080   31.2490   31.8560 C.3    66  SER66       0.2055
     11  C          9.4210   30.9830   32.7610 C.2    66  SER66       0.2643
     12  O         10.3380   31.8180   32.8540 O.2    66  SER66      -0.2714
     13  CB         7.2640   32.2030   32.5870 C.3    66  SER66       0.2130
     14  OG         6.5530   31.5090   33.6220 O.3    66  SER66      -0.2179
     15  N          9.3930   29.8550   33.4550 N.am   67  ASN67      -0.1957
     16  CA        10.4770   29.4480   34.3390 C.3    67  ASN67       0.1819
     17  C         10.3930   27.9310   34.4320 C.2    67  ASN67       0.2621
     18  O          9.3860   27.3500   34.0240 O.2    67  ASN67      -0.2715
     19  CB        10.3230   30.1070   35.7090 C.3    67  ASN67       0.1195
     20  CG         8.9810   29.8420   36.3260 C.2    67  ASN67       0.2630
     21  OD1        8.6780   28.7130   36.7100 O.2    67  ASN67      -0.2716
     22  ND2        8.1570   30.8800   36.4210 N.am   67  ASN67      -0.0877
     23  N         11.4370   27.2940   34.9690 N.am   68  ILE68      -0.1977
     24  CA        11.5040   25.8340   35.0460 C.3    68  ILE68       0.1596
     25  C         10.4010   25.2240   35.8780 C.2    68  ILE68       0.2287
     26  O         10.0730   24.0480   35.7330 O.2    68  ILE68      -0.2864
     27  CB        12.8580   25.3580   35.6210 C.3    68  ILE68       0.0276
     28  CG1       13.9610   26.3710   35.2910 C.3    68  ILE68       0.0022
     29  CG2       13.2080   23.9990   35.0590 C.3    68  ILE68       0.0022
     30  CD1       13.9090   27.6620   36.1700 C.3    68  ILE68       0.0001
     31  N          6.9210   24.0280   34.0360 N.3    71  VAL71      -0.1245
     32  CA         6.8400   22.7060   33.4160 C.3    71  VAL71       0.1561
     33  C          5.5550   22.0020   33.8870 C.2    71  VAL71       0.2260
     34  O          5.2470   22.0410   35.0810 O.2    71  VAL71      -0.2867
     35  CB         8.0960   21.9050   33.8100 C.3    71  VAL71       0.0252
     36  CG1        7.8240   20.4040   33.7560 C.3    71  VAL71       0.0019
     37  CG2        9.2430   22.3020   32.8810 C.3    71  VAL71       0.0019
     38  N          7.8020   28.4630   24.3470 N.3    80  VAL80      -0.1231
     39  CA         8.9780   28.7660   25.1870 C.3    80  VAL80       0.1678
     40  C          9.6000   30.0440   24.7110 C.2    80  VAL80       0.2434
     41  O         10.0190   30.1860   23.5700 O.2    80  VAL80      -0.2733
     42  CB        10.0410   27.6340   25.0660 C.3    80  VAL80       0.0265
     43  CG1       11.2780   27.9980   25.8200 C.3    80  VAL80       0.0020
     44  CG2        9.4490   26.3290   25.5440 C.3    80  VAL80       0.0020
     45  N          9.7120   31.0260   25.6130 N.am   81  PRO81      -0.2729
     46  CA        10.3120   32.2600   25.1620 C.3    81  PRO81       0.1401
     47  C         11.8330   32.2610   25.1850 C.2    81  PRO81       0.2269
     48  O         12.4700   31.5590   26.0300 O.2    81  PRO81      -0.2865
     49  CB         9.8020   33.2920   26.2180 C.3    81  PRO81       0.0296
     50  CG         8.6820   32.6820   26.8260 C.3    81  PRO81       0.0237
     51  CD         8.9840   31.1770   26.8750 C.3    81  PRO81       0.0939
     52  N         14.3170   35.6510   25.1310 N.3    83  VAL83      -0.1245
     53  CA        14.1690   37.1160   25.0650 C.3    83  VAL83       0.1561
     54  C         15.4300   37.6570   24.3800 C.2    83  VAL83       0.2260
     55  O         16.4880   37.8590   24.9670 O.2    83  VAL83      -0.2867
     56  CB        14.0290   37.6480   26.5210 C.3    83  VAL83       0.0252
     57  CG1       13.7550   39.2200   26.4690 C.3    83  VAL83       0.0019
     58  CG2       12.8530   36.9900   27.1860 C.3    83  VAL83       0.0019
     59  N         20.7830   34.1790   30.8500 N.3    90  ALA90      -0.1231
     60  CA        19.7500   33.2900   31.3790 C.3    90  ALA90       0.1694
     61  C         18.4570   33.3490   30.5650 C.2    90  ALA90       0.2592
     62  O         17.7680   32.3250   30.4130 O.2    90  ALA90      -0.2718
     63  CB        19.4330   33.6450   32.8720 C.3    90  ALA90       0.0304
     64  N         18.0890   34.5170   30.0340 N.am   91  PHE91      -0.1976
     65  CA        16.8740   34.6320   29.2810 C.3    91  PHE91       0.1639
     66  C         17.0150   34.3590   27.7890 C.2    91  PHE91       0.2290
     67  O         15.9880   34.3910   27.0830 O.2    91  PHE91      -0.2864
     68  CB        16.2500   36.0200   29.5000 C.3    91  PHE91       0.0560
     69  CG        15.9510   36.2890   30.9330 C.ar   91  PHE91      -0.0200
     70  CD1       16.9090   36.9200   31.7400 C.ar   91  PHE91      -0.0042
     71  CD2       14.7580   35.8370   31.5000 C.ar   91  PHE91      -0.0042
     72  CE1       16.7020   37.0880   33.1310 C.ar   91  PHE91      -0.0003
     73  CE2       14.5300   36.0130   32.9140 C.ar   91  PHE91      -0.0003
     74  CZ        15.5250   36.6310   33.6930 C.ar   91  PHE91      -0.0000
     75  N         18.3790   29.5050   31.2890 N.3    95  THR95      -0.1203
     76  CA        17.3200   28.8050   31.9990 C.3    95  THR95       0.1994
     77  C         16.8340   27.6010   31.2100 C.2    95  THR95       0.2617
     78  O         16.6550   26.5100   31.7560 O.2    95  THR95      -0.2717
     79  CB        16.1990   29.7530   32.3260 C.3    95  THR95       0.1784
     80  OG1       16.7920   30.8090   33.0960 O.3    95  THR95      -0.2211
     81  CG2       15.1100   29.0500   33.1210 C.3    95  THR95       0.0376
     82  N         16.7630   27.7730   29.8870 N.am   96  LEU96      -0.1979
     83  CA        16.3970   26.6780   29.0010 C.3    96  LEU96       0.1596
     84  C         17.4100   25.5090   29.1310 C.2    96  LEU96       0.2287
     85  O         16.9740   24.3520   29.1790 O.2    96  LEU96      -0.2864
     86  CB        16.3670   27.1860   27.5410 C.3    96  LEU96       0.0297
     87  CG        16.0990   26.0810   26.4870 C.3    96  LEU96       0.0022
     88  CD1       14.7670   25.4330   26.6880 C.3    96  LEU96       0.0001
     89  CD2       16.1800   26.6880   25.0850 C.3    96  LEU96       0.0001
     90  N         16.5090   23.5490   32.1970 N.3    99  ALA99      -0.1231
     91  CA        15.2750   22.8170   32.0210 C.3    99  ALA99       0.1694
     92  C         15.5220   21.6010   31.1540 C.2    99  ALA99       0.2591
     93  O         14.9650   20.5300   31.4240 O.2    99  ALA99      -0.2718
     94  CB        14.2420   23.7310   31.3970 C.3    99  ALA99       0.0304
     95  N         16.3530   21.7230   30.1080 N.am  100  LEU100     -0.1980
     96  CA        16.6160   20.5460   29.2480 C.3   100  LEU100      0.1596
     97  C         17.4270   19.4940   29.9600 C.2   100  LEU100      0.2287
     98  O         17.2000   18.2750   29.7210 O.2   100  LEU100     -0.2864
     99  CB        17.3220   20.9460   27.9560 C.3   100  LEU100      0.0297
    100  CG        16.4300   21.8350   27.0830 C.3   100  LEU100      0.0022
    101  CD1       17.2740   22.2260   25.9040 C.3   100  LEU100      0.0001
    102  CD2       15.0850   21.1700   26.7010 C.3   100  LEU100      0.0001
    103  N         14.5530   17.9060   32.2850 N.3   103  TYR103     -0.1241
    104  CA        13.4120   17.2810   31.5590 C.3   103  TYR103      0.1605
    105  C         13.6040   16.8650   30.1150 C.2   103  TYR103      0.2264
    106  O         12.6790   16.3890   29.4850 O.2   103  TYR103     -0.2867
    107  CB        12.2280   18.2790   31.5070 C.3   103  TYR103      0.0534
    108  CG        11.7360   18.7290   32.8390 C.ar  103  TYR103     -0.0201
    109  CD1       11.0360   17.8490   33.6840 C.ar  103  TYR103     -0.0009
    110  CD2       12.0180   19.9970   33.2970 C.ar  103  TYR103     -0.0009
    111  CE1       10.6430   18.2620   34.9850 C.ar  103  TYR103      0.0417
    112  CE2       11.6440   20.4140   34.5570 C.ar  103  TYR103      0.0417
    113  CZ        10.9680   19.5560   35.4030 C.ar  103  TYR103      0.1957
    114  OH        10.6980   19.9930   36.6800 O.3   103  TYR103     -0.2866
    115  N         10.5130   15.1630   27.1270 N.3   107  ILE107     -0.1245
    116  CA         9.8290   16.1440   26.3070 C.3   107  ILE107      0.1561
    117  C          9.6070   15.6640   24.9270 C.2   107  ILE107      0.2260
    118  O         10.4630   15.1230   24.3750 O.2   107  ILE107     -0.2867
    119  CB        10.6940   17.4840   26.1710 C.3   107  ILE107      0.0252
    120  CG1       10.7970   18.1400   27.4700 C.3   107  ILE107      0.0019
    121  CG2       10.1870   18.3620   25.0630 C.3   107  ILE107      0.0019
    122  CD1       11.7330   19.1310   27.4840 C.3   107  ILE107      0.0001
    123  N          9.5350   17.2580   21.6660 N.3   109  PHE109     -0.1241
    124  CA         9.8190   18.5600   21.0420 C.3   109  PHE109      0.1605
    125  C          8.8800   18.9870   19.9330 C.2   109  PHE109      0.2264
    126  O          8.8710   20.1460   19.5660 O.2   109  PHE109     -0.2867
    127  CB        11.2860   18.6200   20.5870 C.3   109  PHE109      0.0534
    128  CG        12.2580   18.6570   21.7310 C.ar  109  PHE109     -0.0203
    129  CD1       12.5380   19.8590   22.3790 C.ar  109  PHE109     -0.0042
    130  CD2       12.8310   17.4940   22.2250 C.ar  109  PHE109     -0.0042
    131  CE1       13.3670   19.8920   23.5020 C.ar  109  PHE109     -0.0003
    132  CE2       13.6700   17.5130   23.3680 C.ar  109  PHE109     -0.0003
    133  CZ        13.9400   18.7090   24.0070 C.ar  109  PHE109     -0.0000
    134  N          6.6770   21.6730   21.1540 N.3   112  VAL112     -0.1245
    135  CA         7.3500   22.8790   21.7020 C.3   112  VAL112      0.1561
    136  C          7.4930   23.9220   20.6100 C.2   112  VAL112      0.2260
    137  O          7.9810   23.6440   19.4970 O.2   112  VAL112     -0.2867
    138  CB         8.7230   22.4720   22.2520 C.3   112  VAL112      0.0252
    139  CG1        9.4980   23.7300   22.7730 C.3   112  VAL112      0.0019
    140  CG2        8.5190   21.4850   23.4430 C.3   112  VAL112      0.0019
@<TRIPOS>BOND
     1   137   136    2
     2   126   125    2
     3   125   124    1
     4   127   124    1
     5   127   128    1
     6   136   135    1
     7   124   123    1
     8   134   135    1
     9   135   138    1
    10   128   130   ar
    11   128   129   ar
    12   130   132   ar
    13   138   139    1
    14   138   140    1
    15   129   131   ar
    16   132   133   ar
    17   131   133   ar
    18    41    40    2
    19    38    39    1
    20   118   117    2
    21    54    55    2
    22    54    53    1
    23    40    39    1
    24    40    45   am
    25   117   116    1
    26   121   119    1
    27    53    52    1
    28    53    56    1
    29    42    39    1
    30    42    44    1
    31    42    43    1
    32    89    87    1
    33    46    47    1
    34    46    45    1
    35    46    49    1
    36    47    48    2
    37    45    51    1
    38   101   100    1
    39   119   116    1
    40   119   120    1
    41    49    50    1
    42   116   115    1
    43    57    56    1
    44    87    88    1
    45    87    86    1
    46    56    58    1
    47   102   100    1
    48    50    51    1
    49    67    66    2
    50   100    99    1
    51   120   122    1
    52    86    83    1
    53    66    65    1
    54    99    96    1
    55     8     6    1
    56     1     2    1
    57    83    84    1
    58    83    82    1
    59    84    85    2
    60    96    97    1
    61    96    95    1
    62    65    68    1
    63    65    64    1
    64     6     5    1
    65     4     3    2
    66   106   105    2
    67    68    69    1
    68     5     2    1
    69     5     7    1
    70    98    97    2
    71    82    77   am
    72     2     3    1
    73    64    61   am
    74    95    92   am
    75   105   104    1
    76     3     9   am
    77    62    61    2
    78    61    60    1
    79    59    60    1
    80    69    71   ar
    81    69    70   ar
    82    92    93    2
    83    92    91    1
    84    77    78    2
    85    77    76    1
    86    75    76    1
    87    60    63    1
    88     9    10    1
    89    94    91    1
    90    71    73   ar
    91   107   104    1
    92   107   108    1
    93   104   103    1
    94    70    72   ar
    95    10    13    1
    96    10    11    1
    97    76    79    1
    98    91    90    1
    99    79    80    1
   100    79    81    1
   101    13    14    1
   102    11    12    2
   103    11    15   am
   104   108   110   ar
   105   108   109   ar
   106    37    35    1
   107    73    74   ar
   108    72    74   ar
   109   110   112   ar
   110    32    35    1
   111    32    33    1
   112    32    31    1
   113    15    16    1
   114   109   111   ar
   115    36    35    1
   116    33    34    2
   117    18    17    2
   118    16    17    1
   119    16    19    1
   120    17    23   am
   121   112   113   ar
   122    23    24    1
   123   111   113   ar
   124    24    27    1
   125    24    25    1
   126    29    27    1
   127    28    27    1
   128    28    30    1
   129   113   114    1
   130    19    20    1
   131    26    25    2
   132    20    22   am
   133    20    21    2
