@<TRIPOS>MOLECULE
tmp/3w04A00.pdb
 119 116 0 0 0
SMALL
GASTEIGER

@<TRIPOS>ATOM
      1  N         22.0150   12.1580   16.3820 N.3    24  PHE24      -0.1241
      2  CA        23.2250   11.7840   15.6530 C.3    24  PHE24       0.1605
      3  C         23.6070   10.3740   15.9640 C.2    24  PHE24       0.2264
      4  O         23.7080    9.9680   17.1050 O.2    24  PHE24      -0.2867
      5  CB        24.3760   12.7410   16.0820 C.3    24  PHE24       0.0534
      6  CG        25.7170   12.3190   15.5530 C.ar   24  PHE24      -0.0203
      7  CD1       26.0450   12.5710   14.2150 C.ar   24  PHE24      -0.0042
      8  CD2       26.6680   11.7970   16.4400 C.ar   24  PHE24      -0.0042
      9  CE1       27.3630   12.1750   13.6950 C.ar   24  PHE24      -0.0003
     10  CE2       27.8930   11.3480   15.9500 C.ar   24  PHE24      -0.0003
     11  CZ        28.2620   11.6050   14.6070 C.ar   24  PHE24      -0.0000
     12  N         19.2910   15.2110   20.5690 N.3    93  SER93      -0.1217
     13  CA        20.6070   15.5910   19.8860 C.3    93  SER93       0.1889
     14  C         20.3030   16.5940   18.7450 C.2    93  SER93       0.2288
     15  O         19.5810   17.5470   18.9910 O.2    93  SER93      -0.2866
     16  CB        21.3260   14.2690   19.4470 C.3    93  SER93       0.2089
     17  OG        22.3550   14.3520   18.4310 O.3    93  SER93      -0.2183
     18  N         27.1370   24.0390   20.9500 N.3   122  PHE122     -0.1298
     19  CA        28.1140   23.1280   21.6120 C.3   122  PHE122      0.1290
     20  C         29.4380   23.7660   21.8800 C.3   122  PHE122      0.2013
     21  O         30.1120   23.4560   22.9350 O.3   122  PHE122     -0.2188
     22  CB        28.2390   21.8130   20.8090 C.3   122  PHE122      0.0480
     23  CG        27.0310   20.9540   20.9220 C.ar  122  PHE122     -0.0206
     24  CD1       26.9030   19.9920   21.9170 C.ar  122  PHE122     -0.0042
     25  CD2       25.9800   21.0730   19.9760 C.ar  122  PHE122     -0.0042
     26  CE1       25.7700   19.1680   22.0070 C.ar  122  PHE122     -0.0003
     27  CE2       24.8690   20.3290   20.0980 C.ar  122  PHE122     -0.0003
     28  CZ        24.7170   19.3280   21.0630 C.ar  122  PHE122     -0.0000
     29  N         32.6810   22.5380   24.5550 N.3   132  PHE132     -0.1241
     30  CA        33.7250   22.1530   23.5850 C.3   132  PHE132      0.1605
     31  C         34.5140   23.3810   23.1760 C.2   132  PHE132      0.2264
     32  O         33.9680   24.4970   23.0620 O.2   132  PHE132     -0.2867
     33  CB        33.1580   21.5240   22.2760 C.3   132  PHE132      0.0534
     34  CG        32.4430   20.2080   22.4700 C.ar  132  PHE132     -0.0203
     35  CD1       33.1350   19.0430   22.1720 C.ar  132  PHE132     -0.0042
     36  CD2       31.1560   20.1450   23.0060 C.ar  132  PHE132     -0.0042
     37  CE1       32.5500   17.7970   22.3550 C.ar  132  PHE132     -0.0003
     38  CE2       30.5030   18.8940   23.1600 C.ar  132  PHE132     -0.0003
     39  CZ        31.2430   17.7130   22.8580 C.ar  132  PHE132     -0.0000
     40  N         38.3440   16.1460   16.9530 N.3   140  VAL140     -0.1245
     41  CA        37.2510   15.2130   16.6830 C.3   140  VAL140      0.1561
     42  C         37.0860   15.0480   15.1780 C.2   140  VAL140      0.2260
     43  O         37.0720   13.8700   14.6930 O.2   140  VAL140     -0.2867
     44  CB        35.9270   15.7250   17.3210 C.3   140  VAL140      0.0252
     45  CG1       34.7090   14.8980   16.7290 C.3   140  VAL140      0.0019
     46  CG2       35.9840   15.6690   18.8220 C.3   140  VAL140      0.0019
     47  N         37.2250    5.9110   16.0220 N.3   151  TRP151     -0.1241
     48  CA        36.4870    7.0210   16.6560 C.3   151  TRP151      0.1605
     49  C         35.1200    6.5170   17.1740 C.2   151  TRP151      0.2264
     50  O         34.7970    6.7780   18.3130 O.2   151  TRP151     -0.2867
     51  CB        36.3610    8.2020   15.6890 C.3   151  TRP151      0.0550
     52  CG        35.3750    9.2700   16.2550 C.ar  151  TRP151      0.0003
     53  CD1       35.6850   10.1850   17.1850 C.ar  151  TRP151      0.0946
     54  CD2       33.9740    9.2710   16.0290 C.ar  151  TRP151      0.0152
     55  NE1       34.4730   10.8190   17.5490 N.ar  151  TRP151     -0.2442
     56  CE2       33.4450   10.2400   16.8270 C.ar  151  TRP151      0.0810
     57  CE3       33.1360    8.5480   15.1410 C.ar  151  TRP151      0.0012
     58  CZ2       32.0660   10.5190   16.8150 C.ar  151  TRP151      0.0191
     59  CZ3       31.7310    8.8310   15.1700 C.ar  151  TRP151      0.0001
     60  CH2       31.2880    9.7930   15.9740 C.ar  151  TRP151      0.0015
     61  N         33.6870    6.4280   20.9190 N.3   155  TYR155     -0.1241
     62  CA        32.6720    7.4090   21.2760 C.3   155  TYR155      0.1605
     63  C         31.4390    6.6900   21.8430 C.2   155  TYR155      0.2264
     64  O         30.7570    7.2600   22.7520 O.2   155  TYR155     -0.2867
     65  CB        32.2810    8.1990   19.9950 C.3   155  TYR155      0.0534
     66  CG        31.1690    9.2000   20.2240 C.ar  155  TYR155     -0.0201
     67  CD1       31.3620   10.2290   21.1370 C.ar  155  TYR155     -0.0009
     68  CD2       29.9420    9.1010   19.5760 C.ar  155  TYR155     -0.0009
     69  CE1       30.3310   11.1890   21.3780 C.ar  155  TYR155      0.0417
     70  CE2       28.9140   10.1000   19.7570 C.ar  155  TYR155      0.0417
     71  CZ        29.1880   11.1050   20.6450 C.ar  155  TYR155      0.1957
     72  OH        28.2580   12.0850   21.0410 O.3   155  TYR155     -0.2866
     73  N         28.2380   16.1740   11.9970 N.3   187  CYS187     -0.1292
     74  CA        28.9430   16.6650   13.1810 C.3   187  CYS187      0.1363
     75  C         29.4050   18.1270   12.9220 C.3   187  CYS187      0.2019
     76  O         29.1990   19.0380   13.8320 O.3   187  CYS187     -0.2188
     77  CB        30.0750   15.6820   13.4710 C.3   187  CYS187      0.0903
     78  SG        30.8770   16.0220   14.9950 S.3   187  CYS187     -0.0805
     79  N         26.3910   20.4560   13.0470 N.3   190  VAL190     -0.1231
     80  CA        25.9160   20.7040   14.4360 C.3   190  VAL190      0.1692
     81  C         26.8180   21.6880   15.1170 C.2   190  VAL190      0.2592
     82  O         26.3250   22.6630   15.7480 O.2   190  VAL190     -0.2718
     83  CB        25.8540   19.4010   15.2300 C.3   190  VAL190      0.0266
     84  CG1       25.6080   19.6840   16.7440 C.3   190  VAL190      0.0020
     85  CG2       24.7020   18.5470   14.6680 C.3   190  VAL190      0.0020
     86  N         28.1490   21.5290   14.9900 N.am  191  PHE191     -0.1976
     87  CA        29.0640   22.4740   15.6210 C.3   191  PHE191      0.1639
     88  C         29.0590   23.8710   15.0240 C.2   191  PHE191      0.2290
     89  O         29.5440   24.8130   15.7220 O.2   191  PHE191     -0.2864
     90  CB        30.4830   21.8860   15.6840 C.3   191  PHE191      0.0560
     91  CG        30.6970   20.9500   16.7670 C.ar  191  PHE191     -0.0200
     92  CD1       30.9540   19.6090   16.4820 C.ar  191  PHE191     -0.0042
     93  CD2       30.7420   21.3840   18.1040 C.ar  191  PHE191     -0.0042
     94  CE1       31.2290   18.6650   17.5230 C.ar  191  PHE191     -0.0003
     95  CE2       30.9970   20.4700   19.1450 C.ar  191  PHE191     -0.0003
     96  CZ        31.1970   19.1360   18.8720 C.ar  191  PHE191     -0.0000
     97  N         28.1490   13.5940   28.0470 N.3   215  VAL215     -0.1231
     98  CA        29.4970   14.0430   27.6250 C.3   215  VAL215      0.1692
     99  C         29.3830   15.2040   26.6570 C.2   215  VAL215      0.2592
    100  O         30.3640   15.9140   26.4390 O.2   215  VAL215     -0.2718
    101  CB        30.3280   12.9510   27.0370 C.3   215  VAL215      0.0266
    102  CG1       30.8460   11.9800   28.1430 C.3   215  VAL215      0.0020
    103  CG2       29.6220   12.2880   25.8340 C.3   215  VAL215      0.0020
    104  N         28.2370   15.4300   26.0210 N.am  216  SER216     -0.1952
    105  CA        28.1030   16.4620   24.9620 C.3   216  SER216      0.1924
    106  C         27.4110   17.6650   25.5160 C.2   216  SER216      0.2314
    107  O         27.3320   18.7070   24.8330 O.2   216  SER216     -0.2863
    108  CB        27.3350   15.9460   23.7330 C.3   216  SER216      0.2116
    109  OG        25.9500   15.8720   23.9000 O.3   216  SER216     -0.2180
    110  N         23.9310   10.3370   27.3830 N.3   243  HIS243     -0.1297
    111  CA        23.3060   11.1670   26.3480 C.3   243  HIS243      0.1306
    112  C         22.1300   10.5130   25.6750 C.3   243  HIS243      0.2013
    113  O         21.4280   11.2750   25.0150 O.3   243  HIS243     -0.2188
    114  CB        24.4480   11.4830   25.2940 C.3   243  HIS243      0.0691
    115  CG        24.0280   12.3850   24.1270 C.ar  243  HIS243      0.0814
    116  ND1       23.6540   13.6870   24.3450 N.ar  243  HIS243     -0.2268
    117  CD2       24.1340   12.2220   22.7840 C.ar  243  HIS243      0.1154
    118  CE1       23.4800   14.2900   23.1640 C.ar  243  HIS243      0.1986
    119  NE2       23.7700   13.4210   22.2360 N.ar  243  HIS243     -0.2212
@<TRIPOS>BOND
     1    73    74    1
     2    75    74    1
     3    75    76    1
     4    79    80    1
     5    74    77    1
     6    77    78    1
     7     9     7   ar
     8     9    11   ar
     9     7     6   ar
    10    80    81    1
    11    80    83    1
    12    11    10   ar
    13    85    83    1
    14    43    42    2
    15    86    81   am
    16    86    87    1
    17    88    87    1
    18    88    89    2
    19    81    82    2
    20    57    59   ar
    21    57    54   ar
    22    59    60   ar
    23    42    41    1
    24    83    84    1
    25     6     5    1
    26     6     8   ar
    27    87    90    1
    28     2     3    1
    29     2     5    1
    30     2     1    1
    31    90    91    1
    32    51    52    1
    33    51    48    1
    34    10     8   ar
    35     3     4    2
    36    60    58   ar
    37    47    48    1
    38    54    52   ar
    39    54    56   ar
    40    52    53   ar
    41    92    91   ar
    42    92    94   ar
    43    48    49    1
    44    41    40    1
    45    41    44    1
    46    45    44    1
    47    91    93   ar
    48    58    56   ar
    49    56    55   ar
    50    49    50    2
    51    53    55   ar
    52    44    46    1
    53    94    96   ar
    54    93    95   ar
    55    17    16    1
    56    14    15    2
    57    14    13    1
    58    96    95   ar
    59    16    13    1
    60    68    70   ar
    61    68    66   ar
    62    70    71   ar
    63    13    12    1
    64    25    27   ar
    65    25    23   ar
    66    65    66    1
    67    65    62    1
    68    27    28   ar
    69    66    67   ar
    70    71    72    1
    71    71    69   ar
    72    22    23    1
    73    22    19    1
    74    61    62    1
    75    23    24   ar
    76    18    19    1
    77    28    26   ar
    78    67    69   ar
    79    62    63    1
    80    19    20    1
    81    63    64    2
    82    20    21    1
    83    24    26   ar
    84    35    37   ar
    85    35    34   ar
    86   119   117   ar
    87   119   118   ar
    88    33    34    1
    89    33    30    1
    90    37    39   ar
    91    34    36   ar
    92   117   115   ar
    93    39    38   ar
    94    36    38   ar
    95    32    31    2
    96   118   116   ar
    97    31    30    1
    98    30    29    1
    99   108   109    1
   100   108   105    1
   101   115   116   ar
   102   115   114    1
   103   107   106    2
   104   105   106    1
   105   105   104    1
   106   113   112    1
   107   114   111    1
   108   112   111    1
   109   103   101    1
   110   104    99   am
   111   111   110    1
   112   100    99    2
   113    99    98    1
   114   101    98    1
   115   101   102    1
   116    98    97    1
