@<TRIPOS>MOLECULE
tmp/3w04B00.pdb
 84 81 0 0 0
SMALL
GASTEIGER

@<TRIPOS>ATOM
      1  N         21.8740  -11.2720    5.7050 N.3   163  ALA163     -0.1231
      2  CA        21.5970  -10.6780    7.0030 C.3   163  ALA163      0.1694
      3  C         20.3340   -9.8330    6.9530 C.2   163  ALA163      0.2592
      4  O         19.8810   -9.3670    5.8750 O.2   163  ALA163     -0.2718
      5  CB        22.7300   -9.8130    7.4040 C.3   163  ALA163      0.0304
      6  N         19.8420   -9.4400    8.1390 N.am  164  ASP164     -0.1960
      7  CA        18.5940   -8.6540    8.2480 C.3   164  ASP164      0.1840
      8  C         18.9850   -7.2220    8.3200 C.2   164  ASP164      0.2621
      9  O         19.1280   -6.5460    9.3790 O.2   164  ASP164     -0.2715
     10  CB        17.7030   -9.1540    9.4280 C.3   164  ASP164      0.1450
     11  CG        16.5910   -8.1970    9.7440 C.2   164  ASP164      0.3671
     12  OD1       16.0710   -7.4790    8.8820 O.co2 164  ASP164     -0.2456
     13  OD2       16.1380   -8.1960   10.9540 O.co2 164  ASP164     -0.2456
     14  N         19.2830   -6.7200    7.1060 N.am  165  VAL165     -0.1977
     15  CA        19.6600   -5.3460    6.9190 C.3   165  VAL165      0.1596
     16  C         18.7310   -4.7730    5.8560 C.2   165  VAL165      0.2287
     17  O         18.9960   -4.9530    4.6180 O.2   165  VAL165     -0.2864
     18  CB        21.1500   -5.2570    6.4280 C.3   165  VAL165      0.0276
     19  CG1       21.5420   -3.9410    6.3450 C.3   165  VAL165      0.0022
     20  CG2       22.0710   -5.9900    7.4930 C.3   165  VAL165      0.0022
     21  N         29.9740  -15.4440    7.0070 N.3   213  THR213     -0.1218
     22  CA        29.5590  -16.7100    7.6630 C.3   213  THR213      0.1862
     23  C         28.6740  -17.5500    6.7460 C.2   213  THR213      0.2287
     24  O         28.5770  -18.7160    6.9780 O.2   213  THR213     -0.2866
     25  CB        28.7630  -16.4630    8.9640 C.3   213  THR213      0.1770
     26  OG1       27.6490  -15.6360    8.7190 O.3   213  THR213     -0.2211
     27  CG2       29.7020  -15.8020    9.9160 C.3   213  THR213      0.0375
     28  N         32.5070  -11.2800   10.6010 N.3   240  GLN240     -0.1231
     29  CA        31.4300  -11.8510   11.4440 C.3   240  GLN240      0.1698
     30  C         30.0500  -11.2860   11.0570 C.2   240  GLN240      0.2593
     31  O         29.4560  -10.4500   11.7410 O.2   240  GLN240     -0.2718
     32  CB        31.6890  -11.7450   12.9490 C.3   240  GLN240      0.0381
     33  CG        32.9750  -12.5300   13.4380 C.3   240  GLN240      0.0905
     34  CD        33.0260  -14.0470   13.0110 C.2   240  GLN240      0.2608
     35  OE1       34.0120  -14.5360   12.3330 O.2   240  GLN240     -0.2717
     36  NE2       31.9600  -14.7950   13.3800 N.am  240  GLN240     -0.0878
     37  N         29.6200  -11.7190    9.8960 N.am  241  THR241     -0.1939
     38  CA        28.4040  -11.2180    9.2610 C.3   241  THR241      0.2028
     39  C         28.0040  -12.2300    8.2480 C.2   241  THR241      0.2645
     40  O         28.8740  -12.9630    7.7170 O.2   241  THR241     -0.2714
     41  CB        28.5520   -9.8190    8.7310 C.3   241  THR241      0.1808
     42  OG1       27.2110   -9.3200    8.4720 O.3   241  THR241     -0.2208
     43  CG2       29.2520   -9.8160    7.3500 C.3   241  THR241      0.0379
     44  N         26.7230  -12.2790    7.9080 N.am  242  GLU242     -0.1931
     45  CA        26.2250  -13.2300    6.9080 C.3   242  GLU242      0.1818
     46  C         25.8790  -12.4870    5.6010 C.2   242  GLU242      0.2332
     47  O         25.4030  -11.3590    5.6170 O.2   242  GLU242     -0.2860
     48  CB        24.8350  -13.7590    7.3450 C.2   242  GLU242      0.0097
     49  CG        24.2030  -14.8290    6.4910 C.2   242  GLU242      0.0837
     50  CD        23.0180  -15.5600    7.1340 C.2   242  GLU242      0.3877
     51  OE1       22.4930  -15.0970    8.1720 O.co2 242  GLU242     -0.2406
     52  OE2       22.6950  -16.6400    6.5830 O.co2 242  GLU242     -0.2406
     53  N         25.9980   -4.6570    3.0060 N.3   249  SER249     -0.1202
     54  CA        25.2930   -4.9000    4.2200 C.3   249  SER249      0.2020
     55  C         26.1930   -4.7750    5.4950 C.2   249  SER249      0.2619
     56  O         25.6310   -4.5750    6.6260 O.2   249  SER249     -0.2717
     57  CB        24.6810   -6.3550    4.2380 C.3   249  SER249      0.2103
     58  OG        25.7570   -7.2910    4.1110 O.3   249  SER249     -0.2182
     59  N         27.5010   -4.8070    5.2930 N.am  250  ALA250     -0.1965
     60  CA        28.4400   -4.6980    6.4640 C.3   250  ALA250      0.1713
     61  C         29.6280   -3.8050    6.0550 C.2   250  ALA250      0.2458
     62  O         30.7880   -4.2110    6.1120 O.2   250  ALA250     -0.2730
     63  CB        28.9040   -6.0630    6.8790 C.3   250  ALA250      0.0333
     64  N         29.3180   -2.6050    5.5260 N.am  251  PRO251     -0.2716
     65  CA        30.4450   -1.8350    4.9600 C.3   251  PRO251      0.1536
     66  C         31.5290   -1.4690    5.9860 C.2   251  PRO251      0.2599
     67  O         32.7140   -1.3710    5.5740 O.2   251  PRO251     -0.2715
     68  CB        29.7480   -0.5530    4.4100 C.3   251  PRO251      0.0310
     69  CG        28.5500   -0.4150    5.2420 C.3   251  PRO251      0.0237
     70  CD        28.0270   -1.8810    5.3880 C.3   251  PRO251      0.0939
     71  N         31.2110   -1.2130    7.2330 N.am  252  SER252     -0.1936
     72  CA        32.2760   -0.8610    8.2440 C.3   252  SER252      0.2055
     73  C         33.1720   -2.0820    8.4200 C.2   252  SER252      0.2642
     74  O         34.3780   -1.9280    8.4730 O.2   252  SER252     -0.2714
     75  CB        31.5460   -0.5790    9.5680 C.3   252  SER252      0.2130
     76  OG        32.5110   -0.5080   10.6350 O.3   252  SER252     -0.2179
     77  N         32.6050   -3.2950    8.4950 N.am  253  LEU253     -0.1977
     78  CA        33.5010   -4.4830    8.6720 C.3   253  LEU253      0.1596
     79  C         34.3450   -4.6210    7.4070 C.2   253  LEU253      0.2287
     80  O         35.5430   -4.9770    7.4500 O.2   253  LEU253     -0.2864
     81  CB        32.6750   -5.7570    8.9270 C.3   253  LEU253      0.0297
     82  CG        31.8820   -5.7610   10.2760 C.3   253  LEU253      0.0022
     83  CD1       31.1500   -7.0240   10.3740 C.3   253  LEU253      0.0001
     84  CD2       32.8750   -5.5640   11.4690 C.3   253  LEU253      0.0001
@<TRIPOS>BOND
     1    53    54    1
     2    58    57    1
     3    54    57    1
     4    54    55    1
     5    68    65    1
     6    68    69    1
     7    17    16    2
     8    65    64    1
     9    65    66    1
    10    69    70    1
    11    59    55   am
    12    59    60    1
    13    70    64    1
    14    55    56    2
    15    64    61   am
    16    67    66    2
    17    46    47    2
    18    46    45    1
    19     1     2    1
    20    16    15    1
    21     4     3    2
    22    66    71   am
    23    61    62    2
    24    61    60    1
    25    19    18    1
    26    18    15    1
    27    18    20    1
    28    60    63    1
    29    49    50    1
    30    49    48    2
    31    52    50   ar
    32    23    24    2
    33    23    22    1
    34    45    48    1
    35    45    44    1
    36    15    14    1
    37     3     2    1
    38     3     6   am
    39     2     5    1
    40    21    22    1
    41    14     8   am
    42    50    51   ar
    43    71    72    1
    44    43    41    1
    45    79    80    2
    46    79    78    1
    47    22    25    1
    48    40    39    2
    49    44    39   am
    50     6     7    1
    51    72    73    1
    52    72    75    1
    53    39    38    1
    54     7     8    1
    55     7    10    1
    56     8     9    2
    57    73    74    2
    58    73    77   am
    59    42    41    1
    60    77    78    1
    61    78    81    1
    62    26    25    1
    63    41    38    1
    64    12    11   ar
    65    81    82    1
    66    25    27    1
    67    38    37    1
    68    10    11    1
    69    75    76    1
    70    11    13   ar
    71    37    30   am
    72    82    83    1
    73    82    84    1
    74    28    29    1
    75    30    29    1
    76    30    31    2
    77    29    32    1
    78    35    34    2
    79    32    33    1
    80    34    36   am
    81    34    33    1
