@<TRIPOS>MOLECULE
tmp/3w05B00.pdb
 99 94 0 0 0
SMALL
GASTEIGER

@<TRIPOS>ATOM
      1  N        -27.7870   -9.2040    9.4690 N.3    24  PHE24      -0.1241
      2  CA       -26.4780   -9.3730   10.0510 C.3    24  PHE24       0.1605
      3  C        -25.3700   -8.7160    9.2470 C.2    24  PHE24       0.2264
      4  O        -25.2580   -8.9210    8.0430 O.2    24  PHE24      -0.2867
      5  CB       -26.2180  -10.8780   10.1580 C.3    24  PHE24       0.0534
      6  CG       -24.8070  -11.2410   10.5720 C.ar   24  PHE24      -0.0203
      7  CD1      -24.4300  -11.1320   11.9000 C.ar   24  PHE24      -0.0042
      8  CD2      -23.8870  -11.6820    9.6320 C.ar   24  PHE24      -0.0042
      9  CE1      -23.1350  -11.4840   12.2860 C.ar   24  PHE24      -0.0003
     10  CE2      -22.5990  -12.0080   10.0060 C.ar   24  PHE24      -0.0003
     11  CZ       -22.2340  -11.9230   11.3220 C.ar   24  PHE24      -0.0000
     12  N        -33.0220  -10.9130    6.6280 N.3    93  SER93      -0.1202
     13  CA       -32.3500  -12.0110    7.3500 C.3    93  SER93       0.2020
     14  C        -32.8120  -12.0970    8.8170 C.2    93  SER93       0.2618
     15  O        -33.9960  -12.3380    9.0620 O.2    93  SER93      -0.2717
     16  CB       -30.8230  -11.8710    7.1960 C.3    93  SER93       0.2103
     17  OG       -30.2050  -13.1550    7.2480 O.3    93  SER93      -0.2182
     18  N        -31.9250  -11.9250    9.7920 N.am   94  VAL94      -0.1979
     19  CA       -32.3540  -11.9790   11.1780 C.3    94  VAL94       0.1595
     20  C        -33.5560  -11.0910   11.4600 C.2    94  VAL94       0.2287
     21  O        -34.4300  -11.4250   12.2850 O.2    94  VAL94      -0.2864
     22  CB       -31.1950  -11.6970   12.1310 C.3    94  VAL94       0.0276
     23  CG1      -30.5840  -10.2930   11.9270 C.3    94  VAL94       0.0022
     24  CG2      -31.6580  -11.9090   13.5880 C.3    94  VAL94       0.0022
     25  N        -36.7910  -12.8130   10.7620 N.3    97  MET97      -0.1245
     26  CA       -37.1270  -13.6650   11.9220 C.3    97  MET97       0.1570
     27  C        -37.7330  -12.8090   13.0290 C.2    97  MET97       0.2261
     28  O        -38.7730  -13.1550   13.6280 O.2    97  MET97      -0.2867
     29  CB       -35.8880  -14.4160   12.4430 C.3    97  MET97       0.0387
     30  CG       -35.6100  -15.8020   11.8200 C.3    97  MET97       0.0595
     31  SD       -33.9740  -16.4290   12.3550 S.3    97  MET97      -0.1393
     32  CE       -32.9710  -15.6570   11.0680 C.3    97  MET97       0.0692
     33  N        -34.0440  -12.2900    2.2270 N.3   117  GLY117     -0.1225
     34  CA       -32.9520  -13.1160    2.7310 C.3   117  GLY117      0.1811
     35  C        -33.3390  -13.9620    3.9360 C.2   117  GLY117      0.2280
     36  O        -32.5630  -14.0910    4.8880 O.2   117  GLY117     -0.2866
     37  N        -31.6390  -22.6150    9.8290 N.3   122  PHE122     -0.1241
     38  CA       -30.4820  -22.9020    8.9650 C.3   122  PHE122      0.1605
     39  C        -30.0060  -24.3470    9.0100 C.2   122  PHE122      0.2264
     40  O        -29.5270  -24.8760    8.0110 O.2   122  PHE122     -0.2867
     41  CB       -29.3520  -21.9240    9.2970 C.3   122  PHE122      0.0534
     42  CG       -29.7670  -20.5230    9.1030 C.ar  122  PHE122     -0.0203
     43  CD1      -29.7310  -19.9440    7.8370 C.ar  122  PHE122     -0.0042
     44  CD2      -30.3080  -19.8120   10.1690 C.ar  122  PHE122     -0.0042
     45  CE1      -30.1910  -18.6490    7.6190 C.ar  122  PHE122     -0.0003
     46  CE2      -30.7530  -18.5330    9.9660 C.ar  122  PHE122     -0.0003
     47  CZ       -30.6920  -17.9370    8.7200 C.ar  122  PHE122     -0.0000
     48  N        -16.3030  -13.4280    3.6310 N.3   155  TYR155     -0.1241
     49  CA       -17.7550  -13.5390    3.6740 C.3   155  TYR155      0.1605
     50  C        -18.4140  -12.4340    2.8410 C.2   155  TYR155      0.2264
     51  O        -19.4790  -12.6260    2.2590 O.2   155  TYR155     -0.2867
     52  CB       -18.2590  -13.4800    5.1270 C.3   155  TYR155      0.0534
     53  CG       -19.7590  -13.4970    5.2720 C.ar  155  TYR155     -0.0201
     54  CD1      -20.5320  -14.5130    4.7090 C.ar  155  TYR155     -0.0009
     55  CD2      -20.4160  -12.4670    5.9520 C.ar  155  TYR155     -0.0009
     56  CE1      -21.9320  -14.4910    4.8510 C.ar  155  TYR155      0.0417
     57  CE2      -21.7910  -12.4570    6.1180 C.ar  155  TYR155      0.0417
     58  CZ       -22.5450  -13.4400    5.5430 C.ar  155  TYR155      0.1957
     59  OH       -23.9140  -13.3480    5.7160 O.3   155  TYR155     -0.2866
     60  N        -24.1310  -14.2500   15.3650 N.3   187  CYS187     -0.1235
     61  CA       -24.0720  -15.3360   14.4130 C.3   187  CYS187      0.1677
     62  C        -24.4870  -16.6410   15.0920 C.2   187  CYS187      0.2270
     63  O        -25.2620  -17.4400   14.5140 O.2   187  CYS187     -0.2867
     64  CB       -22.6710  -15.4200   13.8280 C.3   187  CYS187      0.0956
     65  SG       -22.5510  -16.6800   12.5460 S.3   187  CYS187     -0.0801
     66  N        -28.3430  -16.5120   15.6920 N.3   190  VAL190     -0.1231
     67  CA       -29.1160  -16.7250   14.4760 C.3   190  VAL190      0.1692
     68  C        -29.0550  -18.2070   14.0720 C.2   190  VAL190      0.2592
     69  O        -30.0880  -18.8130   13.7530 O.2   190  VAL190     -0.2718
     70  CB       -28.6050  -15.8490   13.3770 C.3   190  VAL190      0.0266
     71  CG1      -29.3630  -16.1940   12.0610 C.3   190  VAL190      0.0020
     72  CG2      -28.9360  -14.3760   13.7100 C.3   190  VAL190      0.0020
     73  N        -27.8580  -18.7870   14.1300 N.am  191  PHE191     -0.1976
     74  CA       -27.7020  -20.1900   13.6710 C.3   191  PHE191      0.1639
     75  C        -28.4410  -21.1930   14.5270 C.2   191  PHE191      0.2290
     76  O        -28.7400  -22.2850   14.0400 O.2   191  PHE191     -0.2864
     77  CB       -26.2360  -20.6150   13.5950 C.3   191  PHE191      0.0560
     78  CG       -25.6300  -20.4390   12.2570 C.ar  191  PHE191     -0.0200
     79  CD1      -24.4330  -19.7510   12.0960 C.ar  191  PHE191     -0.0042
     80  CD2      -26.2400  -20.9850   11.1300 C.ar  191  PHE191     -0.0042
     81  CE1      -23.8630  -19.6140   10.8370 C.ar  191  PHE191     -0.0003
     82  CE2      -25.6830  -20.8420    9.8730 C.ar  191  PHE191     -0.0003
     83  CZ       -24.4760  -20.1730    9.7220 C.ar  191  PHE191     -0.0000
     84  N        -26.8730  -18.2430    2.4510 N.3   216  SER216     -0.1217
     85  CA       -27.4120  -18.7600    3.7040 C.3   216  SER216      0.1889
     86  C        -28.8520  -19.2750    3.5690 C.2   216  SER216      0.2288
     87  O        -29.4300  -19.7390    4.5520 O.2   216  SER216     -0.2866
     88  CB       -27.3300  -17.6770    4.7930 C.3   216  SER216      0.2089
     89  OG       -28.0490  -16.5460    4.3550 O.3   216  SER216     -0.2183
     90  N        -27.4520  -12.3700   -1.2590 N.3   243  HIS243     -0.1241
     91  CA       -28.2000  -12.2980   -0.0140 C.3   243  HIS243      0.1621
     92  C        -28.6280  -10.8680    0.3290 C.2   243  HIS243      0.2264
     93  O        -29.4810  -10.6910    1.1970 O.2   243  HIS243     -0.2867
     94  CB       -27.2640  -12.8170    1.0890 C.3   243  HIS243      0.0745
     95  CG       -27.8450  -12.7880    2.4620 C.ar  243  HIS243      0.0817
     96  ND1      -28.9990  -13.4710    2.7850 N.ar  243  HIS243     -0.2268
     97  CD2      -27.4070  -12.2070    3.6080 C.ar  243  HIS243      0.1154
     98  CE1      -29.2590  -13.2900    4.0710 C.ar  243  HIS243      0.1986
     99  NE2      -28.3200  -12.5180    4.5880 N.ar  243  HIS243     -0.2212
@<TRIPOS>BOND
     1    90    91    1
     2    91    92    1
     3    91    94    1
     4    92    93    2
     5    94    95    1
     6    33    34    1
     7    51    50    2
     8    84    85    1
     9    95    96   ar
    10    95    97   ar
    11    34    35    1
    12    96    98   ar
    13    50    49    1
    14    86    85    1
    15    86    87    2
    16    97    99   ar
    17    48    49    1
    18    49    52    1
    19    85    88    1
    20    35    36    2
    21    98    99   ar
    22    89    88    1
    23    54    56   ar
    24    54    53   ar
    25    56    58   ar
    26    52    53    1
    27    53    55   ar
    28    58    59    1
    29    58    57   ar
    30    55    57   ar
    31    12    13    1
    32    16    17    1
    33    16    13    1
    34    13    14    1
    35    45    43   ar
    36    45    47   ar
    37    43    42   ar
    38    40    39    2
    39     4     3    2
    40    47    46   ar
    41    14    15    2
    42    14    18   am
    43    38    39    1
    44    38    41    1
    45    38    37    1
    46    42    41    1
    47    42    44   ar
    48     3     2    1
    49     1     2    1
    50     8    10   ar
    51     8     6   ar
    52    83    82   ar
    53    83    81   ar
    54    18    19    1
    55    82    80   ar
    56    46    44   ar
    57    10    11   ar
    58     2     5    1
    59     5     6    1
    60     6     7   ar
    61    25    26    1
    62    81    79   ar
    63    32    31    1
    64    80    78   ar
    65    19    20    1
    66    19    22    1
    67    11     9   ar
    68    20    21    2
    69    30    31    1
    70    30    29    1
    71     7     9   ar
    72    26    29    1
    73    26    27    1
    74    23    22    1
    75    71    70    1
    76    79    78   ar
    77    22    24    1
    78    78    77    1
    79    65    64    1
    80    27    28    2
    81    70    72    1
    82    70    67    1
    83    77    74    1
    84    74    73    1
    85    74    75    1
    86    69    68    2
    87    64    61    1
    88    76    75    2
    89    68    73   am
    90    68    67    1
    91    61    62    1
    92    61    60    1
    93    67    66    1
    94    63    62    2
