@<TRIPOS>MOLECULE
tmp/3w0kA00.pdb
 125 124 0 0 0
SMALL
GASTEIGER

@<TRIPOS>ATOM
      1  N         52.8330  -71.0860   43.0770 N.3    12  TYR12      -0.1241
      2  CA        53.3360  -69.8100   42.5800 C.3    12  TYR12       0.1605
      3  C         52.7750  -68.5180   43.1800 C.2    12  TYR12       0.2264
      4  O         53.5410  -67.6330   43.5630 O.2    12  TYR12      -0.2867
      5  CB        53.1770  -69.8090   41.0570 C.3    12  TYR12       0.0534
      6  CG        53.7240  -68.6030   40.3440 C.ar   12  TYR12      -0.0201
      7  CD1       55.0160  -68.1450   40.5900 C.ar   12  TYR12      -0.0009
      8  CD2       52.9530  -67.9310   39.3990 C.ar   12  TYR12      -0.0009
      9  CE1       55.5240  -67.0500   39.9150 C.ar   12  TYR12       0.0417
     10  CE2       53.4540  -66.8330   38.7130 C.ar   12  TYR12       0.0417
     11  CZ        54.7410  -66.3960   38.9770 C.ar   12  TYR12       0.1957
     12  OH        55.2360  -65.2990   38.3140 O.3    12  TYR12      -0.2866
     13  N         59.7780  -67.1880   45.2340 N.3    84  HIS84      -0.1241
     14  CA        59.4300  -66.2010   44.2150 C.3    84  HIS84       0.1621
     15  C         58.9770  -64.9230   44.9040 C.2    84  HIS84       0.2264
     16  O         59.3590  -63.8160   44.5050 O.2    84  HIS84      -0.2867
     17  CB        58.3430  -66.7330   43.2910 C.3    84  HIS84       0.0745
     18  CG        58.1520  -65.8960   42.0700 C.ar   84  HIS84       0.0817
     19  ND1       57.2270  -64.8780   42.0070 N.ar   84  HIS84      -0.2268
     20  CD2       58.8080  -65.8840   40.8860 C.ar   84  HIS84       0.1154
     21  CE1       57.3250  -64.2700   40.8380 C.ar   84  HIS84       0.1986
     22  NE2       58.2770  -64.8620   40.1400 N.ar   84  HIS84      -0.2212
     23  N         59.2570  -59.5550   42.5570 N.3    91  ILE91      -0.1231
     24  CA        59.4380  -58.6620   41.4190 C.3    91  ILE91       0.1692
     25  C         58.0820  -58.1830   40.8970 C.2    91  ILE91       0.2592
     26  O         57.9730  -57.0900   40.3390 O.2    91  ILE91      -0.2718
     27  CB        60.2870  -59.3160   40.3100 C.3    91  ILE91       0.0266
     28  CG1       60.6660  -58.2640   39.2600 C.3    91  ILE91       0.0019
     29  CG2       59.5440  -60.4900   39.6900 C.3    91  ILE91       0.0020
     30  CD1       61.8570  -58.6450   38.4100 C.3    91  ILE91       0.0001
     31  N         57.0480  -58.9900   41.1260 N.am   92  ASN92      -0.1974
     32  CA        55.6900  -58.6440   40.7220 C.3    92  ASN92       0.1688
     33  C         54.9440  -58.1590   41.9560 C.2    92  ASN92       0.2292
     34  O         54.9520  -58.8280   42.9930 O.2    92  ASN92      -0.2864
     35  CB        54.9670  -59.8660   40.1540 C.3    92  ASN92       0.1181
     36  CG        55.6800  -60.4620   38.9610 C.2    92  ASN92       0.2629
     37  OD1       55.9700  -59.7700   37.9860 O.2    92  ASN92      -0.2716
     38  ND2       55.9620  -61.7550   39.0320 N.am   92  ASN92      -0.0877
     39  N         63.8140  -65.0040   43.7760 N.3   136  ASN136     -0.1225
     40  CA        63.6070  -64.7540   42.3630 C.3   136  ASN136      0.1785
     41  C         63.8630  -63.3260   41.9160 C.2   136  ASN136      0.2597
     42  O         63.4090  -62.3740   42.5420 O.2   136  ASN136     -0.2718
     43  CB        62.1860  -65.1420   41.9460 C.3   136  ASN136      0.1169
     44  CG        61.9270  -64.8710   40.4730 C.2   136  ASN136      0.2627
     45  OD1       62.3630  -65.6280   39.6130 O.2   136  ASN136     -0.2716
     46  ND2       61.2500  -63.7650   40.1790 N.am  136  ASN136     -0.0877
     47  N         64.6140  -63.2090   40.8260 N.am  137  GLU137     -0.1979
     48  CA        64.9080  -61.9410   40.1670 C.3   137  GLU137      0.1602
     49  C         64.9800  -60.6520   40.9980 C.2   137  GLU137      0.2287
     50  O         64.0400  -59.8500   40.9900 O.2   137  GLU137     -0.2864
     51  CB        63.8920  -61.7590   39.0270 C.3   137  GLU137      0.0415
     52  CG        63.9010  -62.9120   38.0120 C.3   137  GLU137      0.1163
     53  CD        62.6850  -62.9490   37.0910 C.2   137  GLU137      0.3649
     54  OE1       61.6210  -62.3930   37.4410 O.co2 137  GLU137     -0.2457
     55  OE2       62.7870  -63.5690   36.0080 O.co2 137  GLU137     -0.2457
     56  N         64.9980  -63.8030   28.3330 N.3   198  TYR198     -0.1241
     57  CA        63.8080  -63.0440   27.9690 C.3   198  TYR198      0.1605
     58  C         64.1280  -61.8380   27.0950 C.2   198  TYR198      0.2264
     59  O         63.2330  -61.0750   26.7490 O.2   198  TYR198     -0.2867
     60  CB        63.0780  -62.5580   29.2230 C.3   198  TYR198      0.0534
     61  CG        62.4150  -63.6390   30.0470 C.ar  198  TYR198     -0.0201
     62  CD1       61.5510  -64.5640   29.4580 C.ar  198  TYR198     -0.0009
     63  CD2       62.5950  -63.6930   31.4280 C.ar  198  TYR198     -0.0009
     64  CE1       60.8760  -65.5100   30.2290 C.ar  198  TYR198      0.0417
     65  CE2       61.9250  -64.6340   32.2070 C.ar  198  TYR198      0.0417
     66  CZ        61.0660  -65.5350   31.6010 C.ar  198  TYR198      0.1957
     67  OH        60.3690  -66.4430   32.3670 O.3   198  TYR198     -0.2866
     68  N         58.0340  -60.4900   25.7660 N.3   205  HIS205     -0.1241
     69  CA        56.9320  -60.0170   26.5960 C.3   205  HIS205      0.1621
     70  C         56.0090  -59.0410   25.8750 C.2   205  HIS205      0.2264
     71  O         55.3720  -58.1920   26.5010 O.2   205  HIS205     -0.2867
     72  CB        57.4640  -59.4070   27.8980 C.3   205  HIS205      0.0745
     73  CG        57.8940  -60.4240   28.9110 C.ar  205  HIS205      0.0817
     74  ND1       58.9390  -61.2970   28.6970 N.ar  205  HIS205     -0.2268
     75  CD2       57.4210  -60.7010   30.1500 C.ar  205  HIS205      0.1154
     76  CE1       59.0920  -62.0670   29.7610 C.ar  205  HIS205      0.1986
     77  NE2       58.1840  -61.7250   30.6570 N.ar  205  HIS205     -0.2212
     78  N         51.6610  -57.4360   32.6550 N.3   210  TRP210     -0.1241
     79  CA        52.4520  -57.2420   33.8690 C.3   210  TRP210      0.1605
     80  C         53.7750  -56.5110   33.6340 C.2   210  TRP210      0.2264
     81  O         54.4410  -56.1030   34.5870 O.2   210  TRP210     -0.2867
     82  CB        52.6940  -58.5800   34.5780 C.3   210  TRP210      0.0550
     83  CG        53.5140  -59.5590   33.7950 C.ar  210  TRP210      0.0003
     84  CD1       54.8440  -59.8230   33.9520 C.ar  210  TRP210      0.0946
     85  CD2       53.0550  -60.4170   32.7440 C.ar  210  TRP210      0.0152
     86  NE1       55.2430  -60.7930   33.0650 N.ar  210  TRP210     -0.2442
     87  CE2       54.1650  -61.1760   32.3120 C.ar  210  TRP210      0.0810
     88  CE3       51.8130  -60.6200   32.1260 C.ar  210  TRP210      0.0012
     89  CZ2       54.0710  -62.1250   31.2880 C.ar  210  TRP210      0.0191
     90  CZ3       51.7200  -61.5650   31.1070 C.ar  210  TRP210      0.0001
     91  CH2       52.8450  -62.3050   30.7000 C.ar  210  TRP210      0.0015
     92  N         65.0300  -69.3120   33.8630 N.3   258  GLU258     -0.1245
     93  CA        63.7880  -69.0430   33.1470 C.3   258  GLU258      0.1567
     94  C         64.1140  -68.4450   31.7950 C.2   258  GLU258      0.2260
     95  O         65.0650  -67.6730   31.6590 O.2   258  GLU258     -0.2867
     96  CB        62.9270  -67.9870   33.8380 C.3   258  GLU258      0.0388
     97  CG        62.4450  -68.2520   35.2460 C.3   258  GLU258      0.1160
     98  CD        61.6220  -67.0870   35.7780 C.2   258  GLU258      0.3649
     99  OE1       61.0920  -66.2890   34.9700 O.co2 258  GLU258     -0.2457
    100  OE2       61.4930  -66.9670   37.0140 O.co2 258  GLU258     -0.2457
    101  N         59.8670  -71.1810   31.1060 N.3   291  TRP291     -0.1241
    102  CA        58.9590  -70.6690   32.1340 C.3   291  TRP291      0.1605
    103  C         57.6940  -71.5020   32.3590 C.2   291  TRP291      0.2264
    104  O         57.2710  -71.6800   33.4980 O.2   291  TRP291     -0.2867
    105  CB        58.6150  -69.1960   31.8900 C.3   291  TRP291      0.0550
    106  CG        57.6390  -68.6540   32.8980 C.ar  291  TRP291      0.0003
    107  CD1       56.4260  -68.0900   32.6370 C.ar  291  TRP291      0.0946
    108  CD2       57.7710  -68.6800   34.3280 C.ar  291  TRP291      0.0152
    109  NE1       55.7870  -67.7690   33.8140 N.ar  291  TRP291     -0.2442
    110  CE2       56.5920  -68.1220   34.8650 C.ar  291  TRP291      0.0810
    111  CE3       58.7690  -69.1270   35.2060 C.ar  291  TRP291      0.0012
    112  CZ2       56.3810  -67.9980   36.2440 C.ar  291  TRP291      0.0191
    113  CZ3       58.5590  -69.0040   36.5800 C.ar  291  TRP291      0.0001
    114  CH2       57.3730  -68.4440   37.0820 C.ar  291  TRP291      0.0015
    115  N         53.8860  -69.3940   27.9950 N.3   297  PHE297     -0.1241
    116  CA        55.3340  -69.5420   27.8230 C.3   297  PHE297      0.1605
    117  C         55.7440  -71.0130   27.7240 C.2   297  PHE297      0.2264
    118  O         56.9230  -71.3420   27.8970 O.2   297  PHE297     -0.2867
    119  CB        56.0860  -68.9250   29.0110 C.3   297  PHE297      0.0534
    120  CG        56.1200  -67.4230   29.0170 C.ar  297  PHE297     -0.0203
    121  CD1       55.0790  -66.6920   29.5760 C.ar  297  PHE297     -0.0042
    122  CD2       57.2230  -66.7420   28.5110 C.ar  297  PHE297     -0.0042
    123  CE1       55.1370  -65.2970   29.6360 C.ar  297  PHE297     -0.0003
    124  CE2       57.2930  -65.3500   28.5640 C.ar  297  PHE297     -0.0003
    125  CZ        56.2460  -64.6260   29.1290 C.ar  297  PHE297     -0.0000
@<TRIPOS>BOND
     1    68    69    1
     2    70    71    2
     3    70    69    1
     4    69    72    1
     5    59    58    2
     6    58    57    1
     7   117   116    1
     8   117   118    2
     9   116   115    1
    10   116   119    1
    11    72    73    1
    12    57    56    1
    13    57    60    1
    14   122   124   ar
    15   122   120   ar
    16   124   125   ar
    17    74    73   ar
    18    74    76   ar
    19    73    75   ar
    20   119   120    1
    21   120   121   ar
    22   125   123   ar
    23    60    61    1
    24    62    61   ar
    25    62    64   ar
    26   121   123   ar
    27    76    77   ar
    28    61    63   ar
    29    75    77   ar
    30    64    66   ar
    31    91    90   ar
    32    91    89   ar
    33   101   102    1
    34    90    88   ar
    35    89    87   ar
    36    63    65   ar
    37    66    65   ar
    38    66    67    1
    39    95    94    2
    40    94    93    1
    41   105   102    1
    42   105   106    1
    43    88    85   ar
    44   102   103    1
    45    87    85   ar
    46    87    86   ar
    47   103   104    2
    48   107   106   ar
    49   107   109   ar
    50    78    79    1
    51    85    83   ar
    52   106   108   ar
    53    86    84   ar
    54    93    96    1
    55    93    92    1
    56    80    79    1
    57    80    81    2
    58    83    84   ar
    59    83    82    1
    60   109   110   ar
    61    96    97    1
    62    79    82    1
    63   108   110   ar
    64   108   111   ar
    65   110   112   ar
    66    99    98   ar
    67   111   113   ar
    68    97    98    1
    69    98   100   ar
    70    55    53   ar
    71   112   114   ar
    72   113   114   ar
    73    53    54   ar
    74    53    52    1
    75    37    36    2
    76    52    51    1
    77    12    11    1
    78    30    28    1
    79    10    11   ar
    80    10     8   ar
    81    36    38   am
    82    36    35    1
    83    11     9   ar
    84    51    48    1
    85    28    27    1
    86     8     6   ar
    87    45    44    2
    88    29    27    1
    89     9     7   ar
    90    22    21   ar
    91    22    20   ar
    92    35    32    1
    93    48    47    1
    94    48    49    1
    95    46    44   am
    96    27    24    1
    97    26    25    2
    98     6     7   ar
    99     6     5    1
   100    44    43    1
   101    32    31    1
   102    32    33    1
   103    47    41   am
   104    21    19   ar
   105    20    18   ar
   106    25    31   am
   107    25    24    1
   108    50    49    2
   109     5     2    1
   110    24    23    1
   111    41    40    1
   112    41    42    2
   113    43    40    1
   114    33    34    2
   115    19    18   ar
   116    18    17    1
   117    40    39    1
   118     2     1    1
   119     2     3    1
   120     3     4    2
   121    17    14    1
   122    14    15    1
   123    14    13    1
   124    16    15    2
