@<TRIPOS>MOLECULE
tmp/3w0lB00.pdb
 145 134 0 0 0
SMALL
GASTEIGER

@<TRIPOS>ATOM
      1  N        -10.1040   22.2400   11.8170 N.3   104  CYS104     -0.1221
      2  CA       -10.1080   23.6660   11.5150 C.3   104  CYS104      0.1808
      3  C         -8.8240   24.3200   12.0100 C.2   104  CYS104      0.2602
      4  O         -8.2950   23.9470   13.0560 O.2   104  CYS104     -0.2717
      5  CB       -11.3170   24.3480   12.1570 C.3   104  CYS104      0.0970
      6  SG       -12.9140   23.7330   11.5870 S.3   104  CYS104     -0.0800
      7  N         -8.3280   25.2950   11.2540 N.am  105  GLY105     -0.1942
      8  CA        -7.1210   26.0120   11.6250 C.3   105  GLY105      0.2014
      9  C         -5.9070   25.1100   11.7240 C.2   105  GLY105      0.2640
     10  O         -5.5040   24.4850   10.7420 O.2   105  GLY105     -0.2714
     11  N         -5.3230   25.0420   12.9170 N.am  106  THR106     -0.1936
     12  CA        -4.1580   24.1980   13.1570 C.3   106  THR106      0.2028
     13  C         -4.5110   22.7250   12.9820 C.2   106  THR106      0.2642
     14  O         -3.7540   21.9640   12.3770 O.2   106  THR106     -0.2714
     15  CB        -3.5690   24.4280   14.5640 C.3   106  THR106      0.1808
     16  OG1       -3.0880   25.7730   14.6680 O.3   106  THR106     -0.2208
     17  CG2       -2.4190   23.4680   14.8300 C.3   106  THR106      0.0379
     18  N         -5.6680   22.3340   13.5080 N.am  107  SER107     -0.1949
     19  CA        -6.1520   20.9630   13.3800 C.3   107  SER107      0.1924
     20  C         -6.2620   20.5570   11.9140 C.2   107  SER107      0.2314
     21  O         -5.9290   19.4300   11.5450 O.2   107  SER107     -0.2863
     22  CB        -7.5120   20.8090   14.0650 C.3   107  SER107      0.2116
     23  OG        -7.4240   21.0950   15.4500 O.3   107  SER107     -0.2180
     24  N         -5.1480   32.6300    7.6800 N.3   145  SER145     -0.1217
     25  CA        -6.0450   32.1930    8.7440 C.3   145  SER145      0.1889
     26  C         -7.4920   32.6060    8.4760 C.2   145  SER145      0.2288
     27  O         -7.8450   33.7800    8.5950 O.2   145  SER145     -0.2866
     28  CB        -5.5800   32.7390   10.0960 C.3   145  SER145      0.2089
     29  OG        -6.3820   32.2370   11.1510 O.3   145  SER145     -0.2183
     30  N        -10.5680   32.0210   10.1370 N.3   147  GLU147     -0.1245
     31  CA       -11.2670   31.5720   11.3370 C.3   147  GLU147      0.1567
     32  C        -12.7850   31.5740   11.1800 C.2   147  GLU147      0.2260
     33  O        -13.4880   30.8360   11.8690 O.2   147  GLU147     -0.2867
     34  CB       -10.8720   32.4390   12.5340 C.3   147  GLU147      0.0388
     35  CG        -9.3920   32.3970   12.8750 C.3   147  GLU147      0.1160
     36  CD        -9.0430   33.2770   14.0610 C.2   147  GLU147      0.3649
     37  OE1       -9.4250   34.4670   14.0560 O.co2 147  GLU147     -0.2457
     38  OE2       -8.3910   32.7760   15.0010 O.co2 147  GLU147     -0.2457
     39  N        -15.3140   28.4020   10.2460 N.3   150  GLU150     -0.1245
     40  CA       -15.3710   27.3340   11.2350 C.3   150  GLU150      0.1567
     41  C        -16.8080   27.0630   11.6780 C.2   150  GLU150      0.2260
     42  O        -17.1320   25.9630   12.1240 O.2   150  GLU150     -0.2867
     43  CB       -14.4970   27.6980   12.4400 C.3   150  GLU150      0.0388
     44  CG       -14.3700   26.6140   13.4990 C.3   150  GLU150      0.1160
     45  CD       -13.4180   27.0030   14.6170 C.2   150  GLU150      0.3649
     46  OE1      -12.5420   27.8620   14.3800 O.co2 150  GLU150     -0.2457
     47  OE2      -13.5480   26.4540   15.7320 O.co2 150  GLU150     -0.2457
     48  N        -11.3580   16.5090   14.0350 N.3   175  ILE175     -0.1231
     49  CA       -10.5140   17.0500   15.0910 C.3   175  ILE175      0.1692
     50  C        -11.0130   18.3940   15.6120 C.2   175  ILE175      0.2593
     51  O        -11.1240   19.3630   14.8610 O.2   175  ILE175     -0.2718
     52  CB        -9.0560   17.2050   14.6170 C.3   175  ILE175      0.0266
     53  CG1       -8.5530   15.8960   14.0060 C.3   175  ILE175      0.0019
     54  CG2       -8.1640   17.6380   15.7690 C.3   175  ILE175      0.0020
     55  CD1       -7.1630   15.9920   13.4210 C.3   175  ILE175      0.0001
     56  N        -11.3170   18.4360   16.9040 N.am  176  SER176     -0.1938
     57  CA       -11.6650   19.6760   17.5840 C.3   176  SER176      0.2055
     58  C        -11.1310   19.6030   19.0090 C.2   176  SER176      0.2643
     59  O        -11.5450   18.7500   19.7900 O.2   176  SER176     -0.2714
     60  CB       -13.1770   19.8950   17.5840 C.3   176  SER176      0.2130
     61  OG       -13.5000   21.1840   18.0750 O.3   176  SER176     -0.2179
     62  N        -10.2170   20.5120   19.3360 N.am  177  CYS177     -0.1953
     63  CA        -9.3960   20.4170   20.5500 C.3   177  CYS177      0.1843
     64  C        -10.0450   20.1150   21.9190 C.2   177  CYS177      0.2626
     65  O         -9.5980   19.1920   22.5930 O.2   177  CYS177     -0.2714
     66  CB        -8.4280   21.6030   20.6480 C.3   177  CYS177      0.0997
     67  SG        -7.0260   21.4690   19.5150 S.3   177  CYS177     -0.0797
     68  N        -11.0760   20.8430   22.3480 N.am  178  GLY178     -0.1954
     69  CA       -11.7810   21.8450   21.5740 C.3   178  GLY178      0.1869
     70  C        -13.2640   21.5720   21.7160 C.2   178  GLY178      0.2309
     71  O        -13.9350   22.1760   22.5550 O.2   178  GLY178     -0.2863
     72  N        -15.8740   22.2670   19.8170 N.3   180  SER180     -0.1202
     73  CA       -16.6280   23.5020   19.6600 C.3   180  SER180      0.2020
     74  C        -16.9290   23.8070   18.1970 C.2   180  SER180      0.2618
     75  O        -17.9330   24.4460   17.8860 O.2   180  SER180     -0.2717
     76  CB       -15.8590   24.6690   20.2860 C.3   180  SER180      0.2103
     77  OG       -14.5650   24.7920   19.7200 O.3   180  SER180     -0.2182
     78  N        -16.0570   23.3430   17.3060 N.am  181  ALA181     -0.1979
     79  CA       -16.1530   23.6580   15.8820 C.3   181  ALA181      0.1597
     80  C        -17.3800   23.0430   15.2110 C.2   181  ALA181      0.2287
     81  O        -17.4820   21.8220   15.0920 O.2   181  ALA181     -0.2864
     82  CB       -14.8820   23.2240   15.1590 C.3   181  ALA181      0.0319
     83  N         -6.4910   29.1480   25.4800 N.3   253  GLY253     -0.1210
     84  CA        -7.1740   29.2620   24.2060 C.3   253  GLY253      0.1956
     85  C         -6.3070   28.8260   23.0430 C.2   253  GLY253      0.2613
     86  O         -6.8000   28.2520   22.0720 O.2   253  GLY253     -0.2717
     87  N         -5.0090   29.0980   23.1420 N.am  254  SER254     -0.1938
     88  CA        -4.0670   28.7580   22.0800 C.3   254  SER254      0.2055
     89  C         -3.9440   27.2490   21.9050 C.2   254  SER254      0.2644
     90  O         -2.9840   26.6380   22.3710 O.2   254  SER254     -0.2714
     91  CB        -2.6920   29.3670   22.3660 C.3   254  SER254      0.2130
     92  OG        -2.7600   30.7810   22.4230 O.3   254  SER254     -0.2179
     93  N         -4.9160   26.6580   21.2180 N.am  255  SER255     -0.1935
     94  CA        -4.9520   25.2140   21.0170 C.3   255  SER255      0.2055
     95  C         -3.9290   24.7480   19.9830 C.2   255  SER255      0.2642
     96  O         -3.8070   23.5530   19.7110 O.2   255  SER255     -0.2714
     97  CB        -6.3570   24.7730   20.6040 C.3   255  SER255      0.2130
     98  OG        -6.7700   25.4300   19.4190 O.3   255  SER255     -0.2179
     99  N         -3.1950   25.7000   19.4140 N.am  256  ARG256     -0.1977
    100  CA        -2.1530   25.4000   18.4390 C.3   256  ARG256      0.1597
    101  C         -0.9420   24.7560   19.1050 C.2   256  ARG256      0.2287
    102  O         -0.0660   24.2140   18.4320 O.2   256  ARG256     -0.2864
    103  CB        -1.7210   26.6790   17.7190 C.3   256  ARG256      0.0334
    104  CG        -1.2890   27.7970   18.6590 C.3   256  ARG256      0.0492
    105  CD        -0.8610   29.0410   17.8960 C.3   256  ARG256      0.2205
    106  NE         0.4780   28.9100   17.3290 N.pl3 256  ARG256     -0.0865
    107  CZ         1.5830   29.3660   17.9120 C.cat 256  ARG256      0.5346
    108  NH1        1.5110   29.9870   19.0810 N.pl3 256  ARG256      0.1354
    109  NH2        2.7600   29.2040   17.3240 N.pl3 256  ARG256      0.1354
    110  N         -0.3570   31.2260   12.2170 N.3   340  GLU340     -0.1245
    111  CA        -1.1130   31.4490   13.4450 C.3   340  GLU340      0.1567
    112  C         -0.6340   32.6730   14.2200 C.2   340  GLU340      0.2260
    113  O         -1.0360   32.8840   15.3620 O.2   340  GLU340     -0.2867
    114  CB        -1.0780   30.2060   14.3380 C.3   340  GLU340      0.0388
    115  CG        -1.9520   29.0600   13.8450 C.3   340  GLU340      0.1160
    116  CD        -3.4380   29.3710   13.9340 C.2   340  GLU340      0.3649
    117  OE1       -4.2240   28.7390   13.1970 O.co2 340  GLU340     -0.2457
    118  OE2       -3.8210   30.2410   14.7440 O.co2 340  GLU340     -0.2457
    119  N         -3.7160   35.0770   16.3040 N.3   344  THR344     -0.1218
    120  CA        -3.4390   34.9560   17.7320 C.3   344  THR344      0.1862
    121  C         -2.8740   36.2390   18.3340 C.2   344  THR344      0.2287
    122  O         -3.3230   36.6890   19.3890 O.2   344  THR344     -0.2866
    123  CB        -2.4590   33.8000   18.0240 C.3   344  THR344      0.1770
    124  OG1       -2.9120   32.6060   17.3730 O.3   344  THR344     -0.2211
    125  CG2       -2.3560   33.5510   19.5200 C.3   344  THR344      0.0375
    126  N        -16.6360   30.9770   18.6410 N.3   506  LYS506     -0.1245
    127  CA       -15.8200   30.5620   19.7720 C.3   506  LYS506      0.1561
    128  C        -15.0570   31.7400   20.3640 C.2   506  LYS506      0.2260
    129  O        -14.8970   31.8400   21.5810 O.2   506  LYS506     -0.2867
    130  CB       -14.8410   29.4730   19.3470 C.3   506  LYS506      0.0271
    131  CG       -14.0220   28.9160   20.4910 C.3   506  LYS506      0.0035
    132  CD       -13.0070   27.9240   19.9840 C.3   506  LYS506      0.0206
    133  CE       -12.0650   28.5870   19.0040 C.3   506  LYS506      0.1093
    134  NZ       -11.0870   27.6060   18.4870 N.3   506  LYS506     -0.1314
    135  N        -15.4450   33.4100   24.0000 N.3   510  ARG510     -0.1245
    136  CA       -14.2030   33.5670   24.7440 C.3   510  ARG510      0.1563
    137  C        -14.0710   35.0000   25.2420 C.2   510  ARG510      0.2260
    138  O        -13.6620   35.2360   26.3790 O.2   510  ARG510     -0.2867
    139  CB       -13.0030   33.1970   23.8720 C.3   510  ARG510      0.0307
    140  CG       -11.6580   33.3370   24.5670 C.3   510  ARG510      0.0489
    141  CD       -10.5350   32.8430   23.6770 C.3   510  ARG510      0.2205
    142  NE       -10.6880   31.4290   23.3460 N.pl3 510  ARG510     -0.0865
    143  CZ        -9.9700   30.7950   22.4250 C.cat 510  ARG510      0.5346
    144  NH1       -9.0480   31.4490   21.7320 N.pl3 510  ARG510      0.1354
    145  NH2      -10.1780   29.5070   22.1920 N.pl3 510  ARG510      0.1354
@<TRIPOS>BOND
     1    24    25    1
     2    26    27    2
     3    26    25    1
     4    25    28    1
     5    28    29    1
     6    30    31    1
     7    39    40    1
     8    10     9    2
     9    32    31    1
    10    32    33    2
    11    40    41    1
    12    40    43    1
    13     7     8    1
    14     7     3   am
    15    31    34    1
    16     2     1    1
    17     2     3    1
    18     2     5    1
    19    21    20    2
    20     6     5    1
    21     8     9    1
    22    41    42    2
    23     9    11   am
    24    20    19    1
    25     3     4    2
    26   110   111    1
    27    14    13    2
    28    43    44    1
    29    34    35    1
    30    35    36    1
    31    11    12    1
    32    13    12    1
    33    13    18   am
    34    12    15    1
    35   117   116   ar
    36    19    18    1
    37    19    22    1
    38    55    53    1
    39   111   112    1
    40   111   114    1
    41    44    45    1
    42   115   116    1
    43   115   114    1
    44   116   118   ar
    45    53    52    1
    46    48    49    1
    47    37    36   ar
    48    36    38   ar
    49    22    23    1
    50   112   113    2
    51    46    45   ar
    52    15    16    1
    53    15    17    1
    54    45    47   ar
    55    52    49    1
    56    52    54    1
    57    51    50    2
    58    49    50    1
    59    81    80    2
    60    82    79    1
    61    80    79    1
    62    50    56   am
    63    79    78    1
    64   119   120    1
    65    56    57    1
    66    78    74   am
    67   109   107    1
    68   106   105    1
    69   106   107    2
    70   124   123    1
    71    57    60    1
    72    57    58    1
    73    60    61    1
    74   103   100    1
    75   103   104    1
    76   120   123    1
    77   120   121    1
    78    75    74    2
    79   105   104    1
    80   107   108    1
    81   123   125    1
    82    74    73    1
    83   121   122    2
    84   102   101    2
    85   100   101    1
    86   100    99    1
    87   134   133    1
    88   126   127    1
    89   133   132    1
    90    58    62   am
    91    58    59    2
    92    62    63    1
    93   130   127    1
    94   130   131    1
    95    99    95   am
    96    98    97    1
    97    67    66    1
    98    73    72    1
    99    73    76    1
   100    96    95    2
   101    77    76    1
   102   127   128    1
   103    95    94    1
   104   132   131    1
   105   128   129    2
   106    63    66    1
   107    63    64    1
   108    97    94    1
   109    94    93    1
   110    93    89   am
   111    69    70    1
   112    69    68    1
   113    70    71    2
   114   144   143    1
   115    89    88    1
   116    89    90    2
   117    64    68   am
   118    64    65    2
   119    86    85    2
   120    88    91    1
   121    88    87    1
   122   145   143    1
   123    91    92    1
   124   143   142    2
   125    85    87   am
   126    85    84    1
   127   142   141    1
   128   141   140    1
   129   139   140    1
   130   139   136    1
   131   135   136    1
   132    84    83    1
   133   136   137    1
   134   137   138    2
