@<TRIPOS>MOLECULE
tmp/3w0tA01.pdb
 123 112 0 0 0
SMALL
GASTEIGER

@<TRIPOS>ATOM
      1  N         23.0390   -0.0430   25.2030 N.3    26  GLN26      -0.1245
      2  CA        21.6380   -0.3490   24.9890 C.3    26  GLN26       0.1566
      3  C         20.9910   -1.0150   26.1990 C.2    26  GLN26       0.2260
      4  O         21.6810   -1.6130   27.0500 O.2    26  GLN26      -0.2867
      5  CB        21.5020   -1.3170   23.7900 C.3    26  GLN26       0.0367
      6  CG        22.3780   -2.5520   23.9780 C.3    26  GLN26       0.0905
      7  CD        22.1790   -3.5780   22.8930 C.2    26  GLN26       0.2608
      8  OE1       21.7110   -4.6720   23.1810 O.2    26  GLN26      -0.2717
      9  NE2       22.5690   -3.2720   21.6610 N.am   26  GLN26      -0.0878
     10  N         17.5580   -3.5460   26.3550 N.3    28  MET28      -0.1245
     11  CA        16.6180   -4.2470   25.4840 C.3    28  MET28       0.1570
     12  C         15.3190   -4.6050   26.2150 C.2    28  MET28       0.2261
     13  O         15.3690   -5.2210   27.2930 O.2    28  MET28      -0.2867
     14  CB        17.2820   -5.5090   24.8940 C.3    28  MET28       0.0387
     15  CG        16.3980   -6.2370   23.8770 C.3    28  MET28       0.0595
     16  SD        15.0730   -7.2590   24.6120 S.3    28  MET28      -0.1393
     17  CE        15.6150   -8.9450   24.2230 C.3    28  MET28       0.0692
     18  N         11.3950   -6.4090   25.2300 N.3    30  ARG30      -0.1245
     19  CA        10.5860   -7.0320   24.1920 C.3    30  ARG30       0.1563
     20  C          9.2510   -6.3130   24.0910 C.2    30  ARG30       0.2260
     21  O          8.6170   -5.9970   25.1130 O.2    30  ARG30      -0.2867
     22  CB        10.3790   -8.5100   24.5280 C.3    30  ARG30       0.0307
     23  CG        11.6560   -9.3510   24.4710 C.3    30  ARG30       0.0489
     24  CD        11.2980  -10.7330   24.9910 C.3    30  ARG30       0.2205
     25  NE        12.4390  -11.6290   25.0540 N.pl3  30  ARG30      -0.0865
     26  CZ        13.2880  -11.6860   26.0650 C.cat  30  ARG30       0.5346
     27  NH1       13.1800  -10.8340   27.0790 N.pl3  30  ARG30       0.1354
     28  NH2       14.2600  -12.5900   26.0700 N.pl3  30  ARG30       0.1354
     29  N         16.6210   -3.3910   12.2820 N.3    53  CYS53      -0.1235
     30  CA        17.3520   -4.5850   11.8010 C.3    53  CYS53       0.1677
     31  C         16.4070   -5.7470   11.7590 C.2    53  CYS53       0.2270
     32  O         15.8270   -6.1000   12.7900 O.2    53  CYS53      -0.2867
     33  CB        18.5510   -4.8900   12.6970 C.3    53  CYS53       0.0956
     34  SG        19.8260   -3.6040   12.6970 S.3    53  CYS53      -0.0801
     35  N         15.7050   -9.8220   11.0200 N.3    55  PHE55      -0.1241
     36  CA        16.4300  -11.0900   10.9880 C.3    55  PHE55       0.1605
     37  C         15.4460  -12.1670   10.5520 C.2    55  PHE55       0.2264
     38  O         14.8890  -12.8550   11.4010 O.2    55  PHE55      -0.2867
     39  CB        17.0550  -11.3680   12.3630 C.3    55  PHE55       0.0534
     40  CG        18.1330  -10.3580   12.6960 C.ar   55  PHE55      -0.0203
     41  CD1       19.4470  -10.5610   12.2940 C.ar   55  PHE55      -0.0042
     42  CD2       17.8330   -9.2140   13.4330 C.ar   55  PHE55      -0.0042
     43  CE1       20.4490   -9.6430   12.6350 C.ar   55  PHE55      -0.0003
     44  CE2       18.8270   -8.2900   13.7530 C.ar   55  PHE55      -0.0003
     45  CZ        20.1230   -8.4950   13.3410 C.ar   55  PHE55      -0.0000
     46  N         15.7060  -15.7710   11.8120 N.3    58  MET58      -0.1245
     47  CA        15.3590  -15.9210   13.2250 C.3    58  MET58       0.1570
     48  C         13.9950  -15.3460   13.6490 C.2    58  MET58       0.2261
     49  O         13.6500  -15.4090   14.8250 O.2    58  MET58      -0.2867
     50  CB        16.5060  -15.4120   14.1120 C.3    58  MET58       0.0387
     51  CG        17.8240  -16.1300   13.8740 C.3    58  MET58       0.0595
     52  SD        19.2290  -15.3630   14.7180 S.3    58  MET58      -0.1393
     53  CE        19.5290  -13.9840   13.6250 C.3    58  MET58       0.0692
     54  N         12.6210  -12.2150   13.9100 N.3    60  PHE60      -0.1241
     55  CA        12.5040  -11.0540   14.7840 C.3    60  PHE60       0.1605
     56  C         13.0460   -9.8180   14.1090 C.2    60  PHE60       0.2264
     57  O         13.8520   -9.9100   13.1760 O.2    60  PHE60      -0.2867
     58  CB        13.1620  -11.2660   16.1610 C.3    60  PHE60       0.0534
     59  CG        14.6660  -11.3600   16.1690 C.ar   60  PHE60      -0.0203
     60  CD1       15.4490  -10.2250   16.3170 C.ar   60  PHE60      -0.0042
     61  CD2       15.3030  -12.5900   16.0590 C.ar   60  PHE60      -0.0042
     62  CE1       16.8430  -10.3170   16.3610 C.ar   60  PHE60      -0.0003
     63  CE2       16.6970  -12.6840   16.1270 C.ar   60  PHE60      -0.0003
     64  CZ        17.4590  -11.5470   16.2800 C.ar   60  PHE60      -0.0000
     65  N         14.6670   -5.8370   15.3380 N.3    62  LEU62      -0.1245
     66  CA        15.1750   -4.9650   16.3930 C.3    62  LEU62       0.1561
     67  C         14.9640   -3.5220   15.9890 C.2    62  LEU62       0.2260
     68  O         15.3040   -3.1510   14.8720 O.2    62  LEU62      -0.2867
     69  CB        16.6750   -5.2010   16.6180 C.3    62  LEU62       0.0270
     70  CG        17.0790   -6.6560   16.9400 C.3    62  LEU62       0.0019
     71  CD1       18.5760   -6.7440   17.1920 C.3    62  LEU62       0.0001
     72  CD2       16.2830   -7.2080   18.1500 C.3    62  LEU62       0.0001
     73  N         16.0310    0.3280   17.2470 N.3    64  PHE64      -0.1241
     74  CA        16.9090    1.0950   18.1310 C.3    64  PHE64       0.1605
     75  C         16.4060    2.5260   18.2080 C.2    64  PHE64       0.2264
     76  O         16.3380    3.2140   17.1870 O.2    64  PHE64      -0.2867
     77  CB        18.3930    1.0370   17.6940 C.3    64  PHE64       0.0534
     78  CG        18.9830   -0.3410   17.8810 C.ar   64  PHE64      -0.0203
     79  CD1       18.8530   -1.3160   16.8880 C.ar   64  PHE64      -0.0042
     80  CD2       19.6150   -0.6840   19.0640 C.ar   64  PHE64      -0.0042
     81  CE1       19.3850   -2.6030   17.0730 C.ar   64  PHE64      -0.0003
     82  CE2       20.1020   -1.9900   19.2690 C.ar   64  PHE64      -0.0003
     83  CZ        19.9890   -2.9310   18.2700 C.ar   64  PHE64      -0.0000
     84  N         24.5980    1.1350   10.7220 N.3    81  ILE81      -0.1245
     85  CA        24.7100    0.1970   11.8470 C.3    81  ILE81       0.1561
     86  C         25.8600    0.5830   12.7640 C.2    81  ILE81       0.2260
     87  O         25.6680    0.6550   13.9760 O.2    81  ILE81      -0.2867
     88  CB        24.7990   -1.2770   11.3610 C.3    81  ILE81       0.0252
     89  CG1       23.4460   -1.7330   10.7830 C.3    81  ILE81       0.0019
     90  CG2       25.2880   -2.2270   12.4840 C.3    81  ILE81       0.0019
     91  CD1       23.5060   -3.0130    9.9390 C.3    81  ILE81       0.0001
     92  N         24.8560    1.6160   16.5560 N.3    85  LEU85      -0.1245
     93  CA        25.2800    0.7120   17.6010 C.3    85  LEU85       0.1561
     94  C         26.4570    1.2380   18.4330 C.2    85  LEU85       0.2260
     95  O         26.9070    0.5500   19.3700 O.2    85  LEU85      -0.2867
     96  CB        25.5290   -0.7060   17.0420 C.3    85  LEU85       0.0270
     97  CG        24.3000   -1.6400   16.8360 C.3    85  LEU85       0.0019
     98  CD1       23.6920   -2.0290   18.1670 C.3    85  LEU85       0.0001
     99  CD2       23.2100   -1.0450   15.9450 C.3    85  LEU85       0.0001
    100  N         16.6430   -0.6660   22.8420 N.3    92  GLU92      -0.1245
    101  CA        16.4640   -1.6940   21.8270 C.3    92  GLU92       0.1567
    102  C         15.1110   -2.3710   22.0720 C.2    92  GLU92       0.2260
    103  O         14.9050   -2.9700   23.1330 O.2    92  GLU92      -0.2867
    104  CB        17.5940   -2.7180   21.9040 C.3    92  GLU92       0.0388
    105  CG        17.4430   -3.9050   20.9490 C.3    92  GLU92       0.1160
    106  CD        18.4300   -5.0200   21.2310 C.2    92  GLU92       0.3649
    107  OE1       19.3860   -4.7690   21.9880 O.co2  92  GLU92      -0.2457
    108  OE2       18.2740   -6.1310   20.6820 O.co2  92  GLU92      -0.2457
    109  N         12.6750   -5.2800   20.9210 N.3    94  THR94      -0.1218
    110  CA        12.6710   -6.5490   20.1970 C.3    94  THR94       0.1862
    111  C         11.2500   -6.9650   19.8590 C.2    94  THR94       0.2287
    112  O         10.4260   -7.1490   20.7680 O.2    94  THR94      -0.2866
    113  CB        13.3520   -7.6330   21.0070 C.3    94  THR94       0.1770
    114  OG1       14.6840   -7.2370   21.2430 O.3    94  THR94      -0.2211
    115  CG2       13.3750   -8.9950   20.2700 C.3    94  THR94       0.0375
    116  N          9.3930  -10.0410   18.3660 N.3    96  ASN96      -0.1240
    117  CA         9.3620  -11.4450   17.9460 C.3    96  ASN96       0.1653
    118  C          8.0990  -11.5390   17.0900 C.2    96  ASN96       0.2266
    119  O          6.9840  -11.3310   17.5660 O.2    96  ASN96      -0.2867
    120  CB         9.3020  -12.3380   19.1630 C.3    96  ASN96       0.1155
    121  CG        10.6240  -12.4100   19.8860 C.2    96  ASN96       0.2627
    122  OD1       11.6690  -12.6540   19.2920 O.2    96  ASN96      -0.2716
    123  ND2       10.6130  -12.1700   21.1970 N.am   96  ASN96      -0.0877
@<TRIPOS>BOND
     1    91    89    1
     2    37    36    1
     3    37    38    2
     4    84    85    1
     5    89    88    1
     6    36    35    1
     7    36    39    1
     8    88    85    1
     9    88    90    1
    10    31    30    1
    11    31    32    2
    12    30    29    1
    13    30    33    1
    14    46    47    1
    15    85    86    1
    16    41    43   ar
    17    41    40   ar
    18    39    40    1
    19    43    45   ar
    20    40    42   ar
    21    33    34    1
    22    86    87    2
    23    57    56    2
    24    47    48    1
    25    47    50    1
    26    45    44   ar
    27    42    44   ar
    28    53    52    1
    29    48    49    2
    30    51    50    1
    31    51    52    1
    32    54    55    1
    33    56    55    1
    34    55    58    1
    35    68    67    2
    36    65    66    1
    37    99    97    1
    38    67    66    1
    39    61    63   ar
    40    61    59   ar
    41    63    64   ar
    42    58    59    1
    43    59    60   ar
    44    64    62   ar
    45    60    62   ar
    46    66    69    1
    47    92    93    1
    48    69    70    1
    49    97    96    1
    50    97    98    1
    51    79    81   ar
    52    79    78   ar
    53    70    71    1
    54    70    72    1
    55    96    93    1
    56    81    83   ar
    57   118   119    2
    58   118   117    1
    59    76    75    2
    60    73    74    1
    61    93    94    1
    62    77    78    1
    63    77    74    1
    64    78    80   ar
    65   117   116    1
    66   117   120    1
    67    74    75    1
    68    83    82   ar
    69    94    95    2
    70    80    82   ar
    71   120   121    1
    72   122   121    2
    73   111   110    1
    74   111   112    2
    75   121   123   am
    76   110   109    1
    77   110   113    1
    78   115   113    1
    79   108   106   ar
    80   105   106    1
    81   105   104    1
    82   113   114    1
    83   106   107   ar
    84     9     7   am
    85   101   104    1
    86   101   102    1
    87   101   100    1
    88   102   103    2
    89     7     8    2
    90     7     6    1
    91     5     6    1
    92     5     2    1
    93    15    16    1
    94    15    14    1
    95    20    19    1
    96    20    21    2
    97    19    22    1
    98    19    18    1
    99    17    16    1
   100    23    22    1
   101    23    24    1
   102    14    11    1
   103     2     1    1
   104     2     3    1
   105    24    25    1
   106    25    26    2
   107    11    12    1
   108    11    10    1
   109    26    28    1
   110    26    27    1
   111     3     4    2
   112    12    13    2
