@<TRIPOS>MOLECULE
tmp/3w0tA00.pdb
 97 92 0 0 0
SMALL
GASTEIGER

@<TRIPOS>ATOM
      1  N         12.6210   -0.4720   35.6520 N.3   119  HIS119     -0.1241
      2  CA        12.2280    0.6240   34.7730 C.3   119  HIS119      0.1621
      3  C         13.3990    1.1730   34.0000 C.2   119  HIS119      0.2264
      4  O         14.5570    0.8970   34.3550 O.2   119  HIS119     -0.2867
      5  CB        11.6100    1.7940   35.6100 C.3   119  HIS119      0.0745
      6  CG        12.4590    2.2640   36.7720 C.ar  119  HIS119      0.0817
      7  ND1       12.2760    1.7710   38.0500 N.ar  119  HIS119     -0.2268
      8  CD2       13.3730    3.2600   36.8240 C.ar  119  HIS119      0.1154
      9  CE1       13.1120    2.4450   38.8290 C.ar  119  HIS119      0.1986
     10  NE2       13.8130    3.3410   38.1310 N.ar  119  HIS119     -0.2212
     11  N          7.3080   10.9770   47.4500 N.3   150  MET150     -0.1245
     12  CA         8.3060   11.7290   46.6930 C.3   150  MET150      0.1570
     13  C          7.6990   12.6630   45.6700 C.2   150  MET150      0.2261
     14  O          7.2590   12.2260   44.6040 O.2   150  MET150     -0.2867
     15  CB         9.2940   10.7690   46.0490 C.3   150  MET150      0.0387
     16  CG        10.0410    9.9560   47.0670 C.3   150  MET150      0.0595
     17  SD        11.4260    9.1350   46.2860 S.3   150  MET150     -0.1393
     18  CE        12.2180    8.4620   47.7040 C.3   150  MET150      0.0692
     19  N          8.4320   13.5830   41.0740 N.3   153  LEU153     -0.1245
     20  CA         8.9850   12.3730   40.4490 C.3   153  LEU153      0.1561
     21  C          7.8120   11.5510   39.9560 C.2   153  LEU153      0.2260
     22  O          6.8630   11.3400   40.7150 O.2   153  LEU153     -0.2867
     23  CB         9.7550   11.5880   41.5170 C.3   153  LEU153      0.0270
     24  CG        10.4310   10.2900   41.1120 C.3   153  LEU153      0.0019
     25  CD1       11.4390   10.5350   40.0200 C.3   153  LEU153      0.0001
     26  CD2       11.1150    9.6710   42.3090 C.3   153  LEU153      0.0001
     27  N          6.1080    8.1390   37.3300 N.3   155  PHE155     -0.1241
     28  CA         6.2940    6.9030   36.5920 C.3   155  PHE155      0.1605
     29  C          5.1500    6.8130   35.6190 C.2   155  PHE155      0.2264
     30  O          3.9700    6.9210   36.0290 O.2   155  PHE155     -0.2867
     31  CB         6.2780    5.6490   37.4730 C.3   155  PHE155      0.0534
     32  CG         7.5250    5.3000   38.2350 C.ar  155  PHE155     -0.0203
     33  CD1        8.6560    4.8330   37.5760 C.ar  155  PHE155     -0.0042
     34  CD2        7.5180    5.2790   39.6190 C.ar  155  PHE155     -0.0042
     35  CE1        9.7970    4.4790   38.2960 C.ar  155  PHE155     -0.0003
     36  CE2        8.6640    4.9300   40.3360 C.ar  155  PHE155     -0.0003
     37  CZ         9.7960    4.5350   39.6660 C.ar  155  PHE155     -0.0000
     38  N          7.5210    0.3290   32.9660 N.3   163  TRP163     -0.1241
     39  CA         7.5520    1.5770   33.7250 C.3   163  TRP163      0.1605
     40  C          8.7050    2.4540   33.2560 C.2   163  TRP163      0.2264
     41  O          9.8300    1.9780   32.9970 O.2   163  TRP163     -0.2867
     42  CB         7.7670    1.3070   35.2020 C.3   163  TRP163      0.0550
     43  CG         6.6510    0.6220   35.9320 C.ar  163  TRP163      0.0003
     44  CD1        5.6470   -0.1510   35.4030 C.ar  163  TRP163      0.0946
     45  CD2        6.4660    0.6160   37.3480 C.ar  163  TRP163      0.0152
     46  NE1        4.8390   -0.6290   36.4240 N.ar  163  TRP163     -0.2442
     47  CE2        5.3440   -0.1980   37.6250 C.ar  163  TRP163      0.0810
     48  CE3        7.1630    1.2010   38.4220 C.ar  163  TRP163      0.0012
     49  CZ2        4.8720   -0.4000   38.9360 C.ar  163  TRP163      0.0191
     50  CZ3        6.6800    1.0200   39.7120 C.ar  163  TRP163      0.0001
     51  CH2        5.5750    0.1960   39.9600 C.ar  163  TRP163      0.0015
     52  N         10.4680    6.0410   34.4920 N.3   165  GLU165     -0.1245
     53  CA        10.5700    7.1130   35.4620 C.3   165  GLU165      0.1567
     54  C         10.7990    8.4420   34.7640 C.2   165  GLU165      0.2260
     55  O         11.5300    8.4990   33.7570 O.2   165  GLU165     -0.2867
     56  CB        11.7470    6.8210   36.3940 C.3   165  GLU165      0.0388
     57  CG        11.7490    7.6490   37.6640 C.3   165  GLU165      0.1160
     58  CD        12.9350    7.2930   38.5340 C.2   165  GLU165      0.3649
     59  OE1       13.1540    6.0820   38.7360 O.co2 165  GLU165     -0.2457
     60  OE2       13.7220    8.1990   38.8920 O.co2 165  GLU165     -0.2457
     61  N         12.1580   12.1140   35.7960 N.3   167  LEU167     -0.1245
     62  CA        12.8570   12.7580   36.9000 C.3   167  LEU167      0.1561
     63  C         13.5600   13.9970   36.4470 C.2   167  LEU167      0.2260
     64  O         13.9740   14.0990   35.3000 O.2   167  LEU167     -0.2867
     65  CB        13.8760   11.7770   37.5170 C.3   167  LEU167      0.0270
     66  CG        15.0460   11.3490   36.6140 C.3   167  LEU167      0.0019
     67  CD1       16.3630   11.5820   37.3350 C.3   167  LEU167      0.0001
     68  CD2       14.9250    9.8860   36.1460 C.3   167  LEU167      0.0001
     69  N         16.1370   16.1450   42.8850 N.3   172  MET172     -0.1230
     70  CA        16.2490   14.8470   43.5360 C.3   172  MET172      0.1702
     71  C         16.8890   14.9000   44.9270 C.2   172  MET172      0.2592
     72  O         16.4360   14.1820   45.8130 O.2   172  MET172     -0.2718
     73  CB        16.9860   13.8650   42.6160 C.3   172  MET172      0.0401
     74  CG        16.2510   13.6190   41.2740 C.3   172  MET172      0.0596
     75  SD        14.6910   12.7600   41.5060 S.3   172  MET172     -0.1393
     76  CE        15.2750   11.0640   41.3940 C.3   172  MET172      0.0692
     77  N         17.9090   15.7660   45.1390 N.am  173  ALA173     -0.1980
     78  CA        18.6160   15.8740   46.4240 C.3   173  ALA173      0.1597
     79  C         17.7020   16.1620   47.6090 C.2   173  ALA173      0.2287
     80  O         17.9390   15.6330   48.7000 O.2   173  ALA173     -0.2864
     81  CB        19.7140   16.9220   46.3370 C.3   173  ALA173      0.0319
     82  N         14.7670   14.9910   48.1190 N.3   175  LEU175     -0.1231
     83  CA        14.0560   13.7570   48.4820 C.3   175  LEU175      0.1693
     84  C         14.8170   12.8870   49.4950 C.2   175  LEU175      0.2591
     85  O         14.2650   11.9050   50.0010 O.2   175  LEU175     -0.2718
     86  CB        13.6610   12.9360   47.2310 C.3   175  LEU175      0.0284
     87  CG        12.8690   13.6720   46.1420 C.3   175  LEU175      0.0019
     88  CD1       12.7860   12.8430   44.8660 C.3   175  LEU175      0.0001
     89  CD2       11.4860   14.0880   46.6320 C.3   175  LEU175      0.0001
     90  N         16.0710   13.2670   49.8040 N.am  176  MET176     -0.1979
     91  CA        16.9420   12.5930   50.7690 C.3   176  MET176      0.1605
     92  C         16.8200   13.2680   52.1440 C.2   176  MET176      0.2287
     93  O         16.9040   14.5180   52.2140 O.2   176  MET176     -0.2864
     94  CB        18.4050   12.6200   50.2880 C.3   176  MET176      0.0413
     95  CG        18.6070   12.0060   48.9220 C.3   176  MET176      0.0598
     96  SD        18.5320   10.2040   48.9700 S.3   176  MET176     -0.1393
     97  CE        20.2510    9.8430   49.2110 C.3   176  MET176      0.0692
@<TRIPOS>BOND
     1    38    39    1
     2    41    40    2
     3    40    39    1
     4    39    42    1
     5    55    54    2
     6     3     4    2
     7     3     2    1
     8    52    53    1
     9    54    53    1
    10     2     5    1
    11     2     1    1
    12    42    43    1
    13    64    63    2
    14    44    43   ar
    15    44    46   ar
    16    53    56    1
    17     5     6    1
    18    29    30    2
    19    29    28    1
    20    61    62    1
    21    43    45   ar
    22    68    66    1
    23    56    57    1
    24    46    47   ar
    25    63    62    1
    26    28    27    1
    27    28    31    1
    28    66    67    1
    29    66    65    1
    30     6     8   ar
    31     6     7   ar
    32     8    10   ar
    33    62    65    1
    34    45    47   ar
    35    45    48   ar
    36    31    32    1
    37    33    32   ar
    38    33    35   ar
    39    47    49   ar
    40    57    58    1
    41     7     9   ar
    42    10     9   ar
    43    32    34   ar
    44    35    37   ar
    45    48    50   ar
    46    58    59   ar
    47    58    60   ar
    48    49    51   ar
    49    34    36   ar
    50    37    36   ar
    51    50    51   ar
    52    21    20    1
    53    21    22    2
    54    25    24    1
    55    20    19    1
    56    20    23    1
    57    24    23    1
    58    24    26    1
    59    74    75    1
    60    74    73    1
    61    76    75    1
    62    73    70    1
    63    69    70    1
    64    70    71    1
    65    14    13    2
    66    88    87    1
    67    71    77   am
    68    71    72    2
    69    77    78    1
    70    13    12    1
    71    15    12    1
    72    15    16    1
    73    87    89    1
    74    87    86    1
    75    17    16    1
    76    17    18    1
    77    81    78    1
    78    78    79    1
    79    12    11    1
    80    86    83    1
    81    79    80    2
    82    82    83    1
    83    83    84    1
    84    95    96    1
    85    95    94    1
    86    96    97    1
    87    84    90   am
    88    84    85    2
    89    90    91    1
    90    94    91    1
    91    91    92    1
    92    92    93    2
