@<TRIPOS>MOLECULE
tmp/3w0uB01.pdb
 114 109 0 0 0
SMALL
GASTEIGER

@<TRIPOS>ATOM
      1  N         19.2840   -3.3960  -11.2720 N.3   119  HIS119     -0.1241
      2  CA        20.4320   -3.0070  -12.0910 C.3   119  HIS119      0.1621
      3  C         20.9870   -4.1780  -12.8920 C.2   119  HIS119      0.2264
      4  O         20.7100   -5.3450  -12.5810 O.2   119  HIS119     -0.2867
      5  CB        21.5550   -2.3590  -11.2290 C.3   119  HIS119      0.0745
      6  CG        22.1040   -3.2360  -10.1350 C.ar  119  HIS119      0.0817
      7  ND1       21.6100   -3.2170   -8.8470 N.ar  119  HIS119     -0.2268
      8  CD2       23.1290   -4.1250  -10.1280 C.ar  119  HIS119      0.1154
      9  CE1       22.2980   -4.0660   -8.0990 C.ar  119  HIS119      0.1986
     10  NE2       23.2220   -4.6290   -8.8530 N.ar  119  HIS119     -0.2212
     11  N         26.3310    6.8170   -8.2340 N.3   143  LYS143     -0.1245
     12  CA        27.3330    6.6860   -7.1600 C.3   143  LYS143      0.1561
     13  C         28.7250    6.6410   -7.7830 C.2   143  LYS143      0.2260
     14  O         29.0210    5.7510   -8.5790 O.2   143  LYS143     -0.2867
     15  CB        27.0830    5.3990   -6.3450 C.3   143  LYS143      0.0271
     16  CG        28.0960    5.1280   -5.2290 C.3   143  LYS143      0.0035
     17  CD        28.0690    3.6660   -4.7770 C.3   143  LYS143      0.0206
     18  CE        28.9310    3.4060   -3.5280 C.3   143  LYS143      0.1093
     19  NZ        30.3510    3.8050   -3.7190 N.3   143  LYS143     -0.1314
     20  N         29.8600    4.6120    1.9770 N.3   149  LYS149     -0.1231
     21  CA        30.5820    3.5830    2.7350 C.3   149  LYS149      0.1693
     22  C         31.3770    2.5860    1.8900 C.2   149  LYS149      0.2591
     23  O         32.5140    2.2550    2.2350 O.2   149  LYS149     -0.2718
     24  CB        29.6340    2.8180    3.6650 C.3   149  LYS149      0.0285
     25  CG        30.3550    1.8330    4.5840 C.3   149  LYS149      0.0035
     26  CD        29.4870    1.3770    5.7530 C.3   149  LYS149      0.0206
     27  CE        30.2770    0.4430    6.6640 C.3   149  LYS149      0.1093
     28  NZ        29.3910   -0.2680    7.6210 N.3   149  LYS149     -0.1314
     29  N         30.7820    2.0960    0.8010 N.am  150  MET150     -0.1979
     30  CA        31.4470    1.0740   -0.0120 C.3   150  MET150      0.1605
     31  C         32.3980    1.6600   -1.0460 C.2   150  MET150      0.2287
     32  O         31.9800    2.2270   -2.0560 O.2   150  MET150     -0.2864
     33  CB        30.4280    0.1440   -0.6700 C.3   150  MET150      0.0413
     34  CG        30.9850   -1.2340   -0.9920 C.3   150  MET150      0.0598
     35  SD        29.8020   -2.5210   -0.5630 S.3   150  MET150     -0.1393
     36  CE        29.8830   -2.5100    1.2300 C.3   150  MET150      0.0692
     37  N         33.3310    0.8970   -5.8130 N.3   153  LEU153     -0.1245
     38  CA        32.1440    0.3630   -6.4750 C.3   153  LEU153      0.1561
     39  C         31.2860    1.5360   -6.9550 C.2   153  LEU153      0.2260
     40  O         31.0150    2.4490   -6.1820 O.2   153  LEU153     -0.2867
     41  CB        31.3670   -0.5070   -5.4880 C.3   153  LEU153      0.0270
     42  CG        30.1250   -1.3270   -5.8510 C.3   153  LEU153      0.0019
     43  CD1       28.8980   -0.4570   -6.0050 C.3   153  LEU153      0.0001
     44  CD2       30.3530   -2.1520   -7.0980 C.3   153  LEU153      0.0001
     45  N         27.8590    3.2360   -9.4990 N.3   155  PHE155     -0.1241
     46  CA        26.6460    3.0610  -10.2920 C.3   155  PHE155      0.1605
     47  C         26.5340    4.2110  -11.2830 C.2   155  PHE155      0.2264
     48  O         26.5970    5.3770  -10.8960 O.2   155  PHE155     -0.2867
     49  CB        25.3810    3.0080   -9.4170 C.3   155  PHE155      0.0534
     50  CG        25.2260    1.7240   -8.6550 C.ar  155  PHE155     -0.0203
     51  CD1       25.7440    1.6020   -7.3740 C.ar  155  PHE155     -0.0042
     52  CD2       24.5720    0.6290   -9.2200 C.ar  155  PHE155     -0.0042
     53  CE1       25.6040    0.4150   -6.6570 C.ar  155  PHE155     -0.0003
     54  CE2       24.4270   -0.5530   -8.5110 C.ar  155  PHE155     -0.0003
     55  CZ        24.9420   -0.6630   -7.2290 C.ar  155  PHE155     -0.0000
     56  N         20.0060    1.7460  -13.9270 N.3   163  TRP163     -0.1241
     57  CA        21.2700    1.7020  -13.1820 C.3   163  TRP163      0.1605
     58  C         22.1770    0.5730  -13.6650 C.2   163  TRP163      0.2264
     59  O         21.7290   -0.5580  -13.8990 O.2   163  TRP163     -0.2867
     60  CB        21.0040    1.4910  -11.6900 C.3   163  TRP163      0.0550
     61  CG        20.3670    2.6450  -10.9850 C.ar  163  TRP163      0.0003
     62  CD1       19.6810    3.7080  -11.5440 C.ar  163  TRP163      0.0946
     63  CD2       20.3230    2.8410   -9.5670 C.ar  163  TRP163      0.0152
     64  NE1       19.2340    4.5500  -10.5470 N.ar  163  TRP163     -0.2442
     65  CE2       19.6140    4.0440   -9.3300 C.ar  163  TRP163      0.0810
     66  CE3       20.8260    2.1170   -8.4720 C.ar  163  TRP163      0.0012
     67  CZ2       19.3830    4.5440   -8.0330 C.ar  163  TRP163      0.0191
     68  CZ3       20.5990    2.6240   -7.1720 C.ar  163  TRP163      0.0001
     69  CH2       19.8770    3.8220   -6.9790 C.ar  163  TRP163      0.0015
     70  N         25.7850   -1.1600  -12.4760 N.3   165  GLU165     -0.1245
     71  CA        26.8590   -1.3120  -11.5160 C.3   165  GLU165      0.1567
     72  C         28.1780   -1.4900  -12.2480 C.2   165  GLU165      0.2260
     73  O         28.2400   -2.1690  -13.2740 O.2   165  GLU165     -0.2867
     74  CB        26.6030   -2.5090  -10.6160 C.3   165  GLU165      0.0388
     75  CG        27.4780   -2.5260   -9.3770 C.3   165  GLU165      0.1160
     76  CD        27.1500   -3.6890   -8.4740 C.2   165  GLU165      0.3649
     77  OE1       25.9690   -3.8240   -8.0800 O.co2 165  GLU165     -0.2457
     78  OE2       28.0800   -4.4590   -8.1330 O.co2 165  GLU165     -0.2457
     79  N         31.8800   -2.8100  -11.2080 N.3   167  LEU167     -0.1245
     80  CA        32.5160   -3.5170  -10.0950 C.3   167  LEU167      0.1561
     81  C         33.8020   -4.1860  -10.5710 C.2   167  LEU167      0.2260
     82  O         33.9410   -4.5120  -11.7520 O.2   167  LEU167     -0.2867
     83  CB        31.5760   -4.5930   -9.5410 C.3   167  LEU167      0.0270
     84  CG        31.1600   -5.7060  -10.5090 C.3   167  LEU167      0.0019
     85  CD1       31.3600   -7.0600   -9.8610 C.3   167  LEU167      0.0001
     86  CD2       29.7200   -5.5390  -10.9980 C.3   167  LEU167      0.0001
     87  N         36.7620   -6.3800   -4.2100 N.3   172  MET172     -0.1230
     88  CA        35.5220   -6.1690   -3.4700 C.3   172  MET172      0.1702
     89  C         35.8690   -6.0020   -1.9950 C.2   172  MET172      0.2592
     90  O         36.7730   -6.6750   -1.4930 O.2   172  MET172     -0.2718
     91  CB        34.5430   -7.3400   -3.6480 C.3   172  MET172      0.0401
     92  CG        34.1300   -7.6610   -5.0820 C.3   172  MET172      0.0596
     93  SD        33.2680   -6.3660   -6.0140 S.3   172  MET172     -0.1393
     94  CE        31.7250   -6.1900   -5.1290 C.3   172  MET172      0.0692
     95  N         35.1650   -5.1050   -1.3020 N.am  173  ALA173     -0.1966
     96  CA        35.3420   -4.9390    0.1470 C.3   173  ALA173      0.1728
     97  C         35.0140   -6.2430    0.8920 C.2   173  ALA173      0.2617
     98  O         34.2750   -7.0940    0.3770 O.2   173  ALA173     -0.2715
     99  CB        34.4920   -3.7870    0.6650 C.3   173  ALA173      0.0334
    100  N         35.5760   -6.4060    2.0910 N.am  174  THR174     -0.1937
    101  CA        35.3740   -7.6300    2.8780 C.3   174  THR174      0.2028
    102  C         33.9540   -7.6770    3.4660 C.2   174  THR174      0.2642
    103  O         33.3320   -6.6350    3.6930 O.2   174  THR174     -0.2714
    104  CB        36.4320   -7.7870    3.9980 C.3   174  THR174      0.1808
    105  OG1       37.6730   -7.1990    3.5870 O.3   174  THR174     -0.2208
    106  CG2       36.6660   -9.2640    4.3240 C.3   174  THR174      0.0379
    107  N         33.4510   -8.8910    3.6930 N.am  175  LEU175     -0.1977
    108  CA        32.0990   -9.1000    4.2170 C.3   175  LEU175      0.1596
    109  C         32.0980   -9.2840    5.7340 C.2   175  LEU175      0.2287
    110  O         32.9560   -9.9780    6.2890 O.2   175  LEU175     -0.2864
    111  CB        31.4380  -10.3060    3.5350 C.3   175  LEU175      0.0297
    112  CG        31.1040  -10.1730    2.0430 C.3   175  LEU175      0.0022
    113  CD1       30.9820  -11.5360    1.3750 C.3   175  LEU175      0.0001
    114  CD2       29.8370   -9.3590    1.8460 C.3   175  LEU175      0.0001
@<TRIPOS>BOND
     1    56    57    1
     2    59    58    2
     3    58    57    1
     4    73    72    2
     5    57    60    1
     6     3     4    2
     7     3     2    1
     8    70    71    1
     9    72    71    1
    10     2     1    1
    11     2     5    1
    12    82    81    2
    13    60    61    1
    14    62    61   ar
    15    62    64   ar
    16    71    74    1
    17    47    48    2
    18    47    46    1
    19     5     6    1
    20    79    80    1
    21    86    84    1
    22    61    63   ar
    23    74    75    1
    24    81    80    1
    25    64    65   ar
    26    84    85    1
    27    84    83    1
    28    46    45    1
    29    46    49    1
    30     6     8   ar
    31     6     7   ar
    32     8    10   ar
    33    80    83    1
    34    63    65   ar
    35    63    66   ar
    36    49    50    1
    37    75    76    1
    38    65    67   ar
    39    52    50   ar
    40    52    54   ar
    41    10     9   ar
    42     7     9   ar
    43    50    51   ar
    44    14    13    2
    45    54    55   ar
    46    76    78   ar
    47    76    77   ar
    48    66    68   ar
    49    11    12    1
    50    67    69   ar
    51    13    12    1
    52    51    53   ar
    53    55    53   ar
    54    68    69   ar
    55    12    15    1
    56    44    42    1
    57    39    38    1
    58    39    40    2
    59    38    37    1
    60    38    41    1
    61    15    16    1
    62    93    94    1
    63    93    92    1
    64    43    42    1
    65    42    41    1
    66    16    17    1
    67    92    91    1
    68    17    18    1
    69    87    88    1
    70    19    18    1
    71    91    88    1
    72    88    89    1
    73    32    31    2
    74    89    90    2
    75    89    95   am
    76    95    96    1
    77    31    30    1
    78    34    33    1
    79    34    35    1
    80    33    30    1
    81    35    36    1
    82    30    29    1
    83    96    99    1
    84    96    97    1
    85    98    97    2
    86    29    22   am
    87    97   100   am
    88   113   112    1
    89   114   112    1
    90    22    23    2
    91    22    21    1
    92    20    21    1
    93   112   111    1
    94   100   101    1
    95    21    24    1
    96   101   102    1
    97   101   104    1
    98   102   103    2
    99   102   107   am
   100   111   108    1
   101   105   104    1
   102    24    25    1
   103   107   108    1
   104   104   106    1
   105   108   109    1
   106    25    26    1
   107   109   110    2
   108    26    27    1
   109    27    28    1
