@<TRIPOS>MOLECULE
tmp/3w0uB00.pdb
 123 112 0 0 0
SMALL
GASTEIGER

@<TRIPOS>ATOM
      1  N         19.7560  -13.8070  -21.9440 N.3    26  GLN26      -0.1245
      2  CA        19.3780  -12.4080  -22.1500 C.3    26  GLN26       0.1566
      3  C         18.7690  -11.7610  -20.9170 C.2    26  GLN26       0.2260
      4  O         18.1740  -12.4330  -20.0580 O.2    26  GLN26      -0.2867
      5  CB        18.3990  -12.3010  -23.3260 C.3    26  GLN26       0.0367
      6  CG        17.1950  -13.2110  -23.1510 C.3    26  GLN26       0.0905
      7  CD        16.1470  -13.0480  -24.2210 C.2    26  GLN26       0.2608
      8  OE1       14.9920  -12.7630  -23.9110 O.2    26  GLN26      -0.2717
      9  NE2       16.5230  -13.2620  -25.4790 N.am   26  GLN26      -0.0878
     10  N         16.2000   -8.3470  -20.7690 N.3    28  MET28      -0.1245
     11  CA        15.4880   -7.3710  -21.6100 C.3    28  MET28       0.1570
     12  C         15.1380   -6.0970  -20.8500 C.2    28  MET28       0.2261
     13  O         14.5840   -6.1710  -19.7400 O.2    28  MET28      -0.2867
     14  CB        14.1980   -7.9950  -22.1680 C.3    28  MET28       0.0387
     15  CG        13.4300   -7.1140  -23.1570 C.3    28  MET28       0.0595
     16  SD        12.4070   -5.8000  -22.4190 S.3    28  MET28      -0.1393
     17  CE        10.7520   -6.4130  -22.7200 C.3    28  MET28       0.0692
     18  N         13.2900   -2.1970  -21.7400 N.3    30  ARG30      -0.1245
     19  CA        12.6390   -1.3230  -22.7220 C.3    30  ARG30       0.1563
     20  C         13.3620    0.0260  -22.8080 C.2    30  ARG30       0.2260
     21  O         13.7090    0.6160  -21.7730 O.2    30  ARG30      -0.2867
     22  CB        11.1610   -1.1060  -22.3590 C.3    30  ARG30       0.0307
     23  CG        10.3310   -2.3880  -22.2910 C.3    30  ARG30       0.0489
     24  CD         8.9010   -2.0480  -21.8740 C.3    30  ARG30       0.2205
     25  NE         8.0350   -3.2310  -21.7900 N.pl3  30  ARG30      -0.0865
     26  CZ         8.0540   -4.1340  -20.8190 C.cat  30  ARG30       0.5346
     27  NH1        8.9270   -4.0380  -19.8120 N.pl3  30  ARG30       0.1354
     28  NH2        7.1830   -5.1390  -20.8650 N.pl3  30  ARG30       0.1354
     29  N         16.3140   -7.2170  -34.7670 N.3    53  CYS53      -0.1235
     30  CA        15.0810   -7.8330  -35.3030 C.3    53  CYS53       0.1677
     31  C         13.9310   -6.8440  -35.3390 C.2    53  CYS53       0.2270
     32  O         13.6660   -6.1570  -34.3550 O.2    53  CYS53      -0.2867
     33  CB        14.6500   -9.0410  -34.4760 C.3    53  CYS53       0.0956
     34  SG        15.9160  -10.3040  -34.3380 S.3    53  CYS53      -0.0801
     35  N          9.7600   -6.1750  -36.2810 N.3    55  PHE55      -0.1241
     36  CA         8.4620   -6.8220  -36.3720 C.3    55  PHE55       0.1605
     37  C          7.4330   -5.7520  -36.7360 C.2    55  PHE55       0.2264
     38  O          6.8460   -5.1390  -35.8460 O.2    55  PHE55      -0.2867
     39  CB         8.1080   -7.4790  -35.0370 C.3    55  PHE55       0.0534
     40  CG         9.1050   -8.5090  -34.5640 C.ar   55  PHE55      -0.0203
     41  CD1       10.1640   -8.1450  -33.7230 C.ar   55  PHE55      -0.0042
     42  CD2        8.9690   -9.8420  -34.9200 C.ar   55  PHE55      -0.0042
     43  CE1       11.0700   -9.0870  -33.2600 C.ar   55  PHE55      -0.0003
     44  CE2        9.8730  -10.7920  -34.4680 C.ar   55  PHE55      -0.0003
     45  CZ        10.9250  -10.4170  -33.6350 C.ar   55  PHE55      -0.0000
     46  N          3.6590   -5.8410  -35.4020 N.3    58  MET58      -0.1245
     47  CA         3.5790   -5.6490  -33.9530 C.3    58  MET58       0.1570
     48  C          4.2160   -4.3210  -33.4980 C.2    58  MET58       0.2261
     49  O          4.0740   -3.9140  -32.3380 O.2    58  MET58      -0.2867
     50  CB         4.2150   -6.8560  -33.2380 C.3    58  MET58       0.0387
     51  CG         3.4420   -8.1630  -33.4230 C.3    58  MET58       0.0595
     52  SD         4.1030   -9.6160  -32.5700 S.3    58  MET58      -0.1393
     53  CE         5.5020  -10.0250  -33.6040 C.3    58  MET58       0.0692
     54  N          7.4680   -3.1320  -33.2040 N.3    60  PHE60      -0.1241
     55  CA         8.6040   -3.0590  -32.2930 C.3    60  PHE60       0.1605
     56  C          9.8780   -3.6070  -32.9160 C.2    60  PHE60       0.2264
     57  O          9.8400   -4.3380  -33.9010 O.2    60  PHE60      -0.2867
     58  CB         8.2890   -3.7020  -30.9280 C.3    60  PHE60       0.0534
     59  CG         8.2310   -5.2140  -30.9400 C.ar   60  PHE60      -0.0203
     60  CD1        9.3670   -5.9710  -30.6830 C.ar   60  PHE60      -0.0042
     61  CD2        7.0270   -5.8770  -31.1580 C.ar   60  PHE60      -0.0042
     62  CE1        9.3100   -7.3670  -30.6820 C.ar   60  PHE60      -0.0003
     63  CE2        6.9660   -7.2680  -31.1640 C.ar   60  PHE60      -0.0003
     64  CZ         8.1040   -8.0130  -30.9220 C.ar   60  PHE60      -0.0000
     65  N         13.8560   -5.3120  -31.7250 N.3    62  LEU62      -0.1245
     66  CA        14.7350   -5.8100  -30.6580 C.3    62  LEU62       0.1561
     67  C         16.1790   -5.5730  -31.0770 C.2    62  LEU62       0.2260
     68  O         16.5610   -5.8610  -32.2150 O.2    62  LEU62      -0.2867
     69  CB        14.5080   -7.3060  -30.4100 C.3    62  LEU62       0.0270
     70  CG        13.0790   -7.7170  -30.0440 C.3    62  LEU62       0.0019
     71  CD1       13.0050   -9.2200  -29.8330 C.3    62  LEU62       0.0001
     72  CD2       12.6070   -6.9920  -28.7880 C.3    62  LEU62       0.0001
     73  N         19.9610   -6.6830  -29.9040 N.3    64  PHE64      -0.1241
     74  CA        20.7570   -7.5240  -29.0150 C.3    64  PHE64       0.1605
     75  C         22.1990   -7.0300  -28.9330 C.2    64  PHE64       0.2264
     76  O         22.9050   -6.9580  -29.9460 O.2    64  PHE64      -0.2867
     77  CB        20.6830   -8.9990  -29.4160 C.3    64  PHE64       0.0534
     78  CG        19.3230   -9.5990  -29.2210 C.ar   64  PHE64      -0.0203
     79  CD1       18.3860   -9.5720  -30.2510 C.ar   64  PHE64      -0.0042
     80  CD2       18.9710  -10.1660  -28.0000 C.ar   64  PHE64      -0.0042
     81  CE1       17.1190  -10.1090  -30.0720 C.ar   64  PHE64      -0.0003
     82  CE2       17.7030  -10.7100  -27.8080 C.ar   64  PHE64      -0.0003
     83  CZ        16.7740  -10.6820  -28.8520 C.ar   64  PHE64      -0.0000
     84  N         21.0770  -15.2230  -36.5520 N.3    81  ILE81      -0.1245
     85  CA        20.1020  -15.3020  -35.4510 C.3    81  ILE81       0.1561
     86  C         20.4630  -16.4230  -34.4600 C.2    81  ILE81       0.2260
     87  O         20.5170  -16.1880  -33.2500 O.2    81  ILE81      -0.2867
     88  CB        18.6410  -15.4380  -35.9510 C.3    81  ILE81       0.0252
     89  CG1       18.1740  -14.1280  -36.6110 C.3    81  ILE81       0.0019
     90  CG2       17.7080  -15.8150  -34.7950 C.3    81  ILE81       0.0019
     91  CD1       16.8680  -14.2270  -37.3950 C.3    81  ILE81       0.0001
     92  N         21.4700  -15.4170  -30.5650 N.3    85  LEU85      -0.1245
     93  CA        20.5430  -15.8630  -29.5140 C.3    85  LEU85       0.1561
     94  C         21.0530  -17.0660  -28.7200 C.2    85  LEU85       0.2260
     95  O         20.3830  -17.5310  -27.8040 O.2    85  LEU85      -0.2867
     96  CB        19.1510  -16.1460  -30.1030 C.3    85  LEU85       0.0270
     97  CG        18.2040  -14.9700  -30.4140 C.3    85  LEU85       0.0019
     98  CD1       17.8020  -14.2420  -29.1390 C.3    85  LEU85       0.0001
     99  CD2       18.8140  -13.9980  -31.4140 C.3    85  LEU85       0.0001
    100  N         18.9960   -7.3080  -24.2490 N.3    92  GLU92      -0.1245
    101  CA        17.9680   -7.1410  -25.2650 C.3    92  GLU92       0.1567
    102  C         17.2810   -5.8140  -25.0200 C.2    92  GLU92       0.2260
    103  O         16.6540   -5.6340  -23.9800 O.2    92  GLU92      -0.2867
    104  CB        16.9630   -8.2890  -25.1860 C.3    92  GLU92       0.0388
    105  CG        15.7480   -8.2020  -26.1180 C.3    92  GLU92       0.1160
    106  CD        14.7060   -9.2600  -25.8130 C.2    92  GLU92       0.3649
    107  OE1       15.0420  -10.2770  -25.1720 O.co2  92  GLU92      -0.2457
    108  OE2       13.5310   -9.0940  -26.2210 O.co2  92  GLU92      -0.2457
    109  N         14.4140   -3.2800  -26.1320 N.3    94  THR94      -0.1218
    110  CA        13.1480   -3.3140  -26.8800 C.3    94  THR94       0.1862
    111  C         12.6920   -1.8960  -27.2030 C.2    94  THR94       0.2287
    112  O         12.5130   -1.0990  -26.2920 O.2    94  THR94      -0.2866
    113  CB        12.0630   -4.0430  -26.0630 C.3    94  THR94       0.1770
    114  OG1       12.4910   -5.3950  -25.8170 O.3    94  THR94      -0.2211
    115  CG2       10.7280   -4.0850  -26.8120 C.3    94  THR94       0.0375
    116  N          9.6000   -0.0450  -28.6300 N.3    96  ASN96      -0.1240
    117  CA         8.2230    0.0630  -29.0670 C.3    96  ASN96       0.1653
    118  C          8.0850    1.3330  -29.8970 C.2    96  ASN96       0.2266
    119  O          8.3220    2.4450  -29.4070 O.2    96  ASN96      -0.2867
    120  CB         7.2850    0.0680  -27.8700 C.3    96  ASN96       0.1155
    121  CG         7.2960   -1.2480  -27.1370 C.2    96  ASN96       0.2627
    122  OD1        7.0630   -2.2900  -27.7310 O.2    96  ASN96      -0.2716
    123  ND2        7.6260   -1.2160  -25.8560 N.am   96  ASN96      -0.0877
@<TRIPOS>BOND
     1    91    89    1
     2    37    36    1
     3    37    38    2
     4    89    88    1
     5    84    85    1
     6    36    35    1
     7    36    39    1
     8    88    85    1
     9    88    90    1
    10    85    86    1
    11    46    47    1
    12    31    30    1
    13    31    32    2
    14    30    29    1
    15    30    33    1
    16    39    40    1
    17    42    40   ar
    18    42    44   ar
    19    40    41   ar
    20    33    34    1
    21    44    45   ar
    22    86    87    2
    23    47    48    1
    24    47    50    1
    25    57    56    2
    26    41    43   ar
    27    45    43   ar
    28    53    52    1
    29    48    49    2
    30    51    50    1
    31    51    52    1
    32    54    55    1
    33    56    55    1
    34    55    58    1
    35    68    67    2
    36    65    66    1
    37    99    97    1
    38    63    61   ar
    39    63    64   ar
    40    61    59   ar
    41    67    66    1
    42    59    58    1
    43    59    60   ar
    44    64    62   ar
    45    60    62   ar
    46    66    69    1
    47    92    93    1
    48    97    96    1
    49    97    98    1
    50    69    70    1
    51    79    81   ar
    52    79    78   ar
    53    96    93    1
    54    81    83   ar
    55    70    71    1
    56    70    72    1
    57    76    75    2
    58    73    74    1
    59   118   119    2
    60   118   117    1
    61    93    94    1
    62    77    78    1
    63    77    74    1
    64    78    80   ar
    65   117   116    1
    66   117   120    1
    67    74    75    1
    68    83    82   ar
    69    94    95    2
    70    80    82   ar
    71   120   121    1
    72   122   121    2
    73   111   110    1
    74   111   112    2
    75   121   123   am
    76   110   109    1
    77   110   113    1
    78   115   113    1
    79   108   106   ar
    80   105   106    1
    81   105   104    1
    82   113   114    1
    83   106   107   ar
    84     9     7   am
    85   101   104    1
    86   101   102    1
    87   101   100    1
    88   102   103    2
    89     7     8    2
    90     7     6    1
    91     5     6    1
    92     5     2    1
    93    15    16    1
    94    15    14    1
    95    20    19    1
    96    20    21    2
    97    19    22    1
    98    19    18    1
    99    17    16    1
   100    22    23    1
   101    23    24    1
   102    14    11    1
   103     2     1    1
   104     2     3    1
   105    24    25    1
   106    25    26    2
   107    11    12    1
   108    11    10    1
   109     3     4    2
   110    28    26    1
   111    12    13    2
   112    26    27    1
