@<TRIPOS>MOLECULE
tmp/3w0wE00.pdb
 80 76 0 0 0
SMALL
GASTEIGER

@<TRIPOS>ATOM
      1  N        -14.5850   15.3790  -43.1490 N.3    30  GLU30      -0.1231
      2  CA       -14.1510   14.6990  -44.3750 C.3    30  GLU30       0.1699
      3  C        -12.6050   14.5940  -44.5140 C.2    30  GLU30       0.2592
      4  O        -12.0970   13.5640  -44.9420 O.2    30  GLU30      -0.2718
      5  CB       -14.8270   15.3010  -45.6260 C.3    30  GLU30       0.0402
      6  CG       -16.3250   14.9670  -45.7030 C.3    30  GLU30       0.1161
      7  CD       -17.0530   15.3260  -47.0290 C.2    30  GLU30       0.3649
      8  OE1      -16.7730   16.3820  -47.6770 O.co2  30  GLU30      -0.2457
      9  OE2      -17.9530   14.5270  -47.4180 O.co2  30  GLU30      -0.2457
     10  N        -11.8850   15.6470  -44.1160 N.am   31  TYR31      -0.1976
     11  CA       -10.4550   15.7620  -44.3440 C.3    31  TYR31       0.1639
     12  C         -9.6630   15.3860  -43.1270 C.2    31  TYR31       0.2290
     13  O         -9.8400   15.9490  -42.0290 O.2    31  TYR31      -0.2864
     14  CB       -10.1070   17.2000  -44.7150 C.3    31  TYR31       0.0560
     15  CG        -8.6860   17.4650  -45.2140 C.ar   31  TYR31      -0.0198
     16  CD1       -8.4580   17.7940  -46.5390 C.ar   31  TYR31      -0.0009
     17  CD2       -7.5760   17.4060  -44.3440 C.ar   31  TYR31      -0.0009
     18  CE1       -7.1790   18.0450  -47.0040 C.ar   31  TYR31       0.0417
     19  CE2       -6.2700   17.6480  -44.8060 C.ar   31  TYR31       0.0417
     20  CZ        -6.0790   17.9860  -46.1420 C.ar   31  TYR31       0.1957
     21  OH        -4.8110   18.2520  -46.6320 O.3    31  TYR31      -0.2866
     22  N         -8.9000   13.4380  -48.3330 N.3    50  MET50      -0.1230
     23  CA        -9.9580   14.4610  -48.4480 C.3    50  MET50       0.1702
     24  C        -11.3520   13.8990  -48.1670 C.2    50  MET50       0.2592
     25  O        -12.2360   14.6350  -47.7640 O.2    50  MET50      -0.2718
     26  CB        -9.8970   15.1800  -49.7970 C.3    50  MET50       0.0401
     27  CG        -8.7370   16.1530  -49.9070 C.3    50  MET50       0.0596
     28  SD        -8.5060   16.8230  -51.5570 S.3    50  MET50      -0.1393
     29  CE        -8.0830   15.3710  -52.5000 C.3    50  MET50       0.0692
     30  N        -11.5340   12.5910  -48.3360 N.am   51  ASN51      -0.1974
     31  CA       -12.7800   11.9500  -47.9610 C.3    51  ASN51       0.1688
     32  C        -12.5800   10.4480  -47.7420 C.2    51  ASN51       0.2292
     33  O        -11.4460    9.9370  -47.8650 O.2    51  ASN51      -0.2864
     34  CB       -13.8320   12.2020  -49.0370 C.3    51  ASN51       0.1181
     35  CG       -15.2330   12.2670  -48.4740 C.2    51  ASN51       0.2629
     36  OD1      -15.6660   11.3740  -47.7370 O.2    51  ASN51      -0.2716
     37  ND2      -15.9570   13.3220  -48.8180 N.am   51  ASN51      -0.0877
     38  N        -14.8890    7.3110  -42.1470 N.3    71  LYS71      -0.1245
     39  CA       -14.7040    8.7360  -41.9330 C.3    71  LYS71       0.1561
     40  C        -13.9390    9.0800  -40.6590 C.2    71  LYS71       0.2260
     41  O        -13.1190    9.9930  -40.6480 O.2    71  LYS71      -0.2867
     42  CB       -16.0960    9.3990  -41.9060 C.3    71  LYS71       0.0271
     43  CG       -16.1340   10.8840  -42.1980 C.3    71  LYS71       0.0035
     44  CD       -17.2310   11.1480  -43.2040 C.3    71  LYS71       0.0206
     45  CE       -17.6510   12.6080  -43.2100 C.3    71  LYS71       0.1093
     46  NZ       -18.7220   12.8660  -42.2210 N.3    71  LYS71      -0.1314
     47  N        -10.3770   18.4770  -40.7270 N.3    94  SER94      -0.1202
     48  CA       -11.1140   19.6960  -41.0800 C.3    94  SER94       0.2020
     49  C        -12.4530   19.3950  -41.7200 C.2    94  SER94       0.2619
     50  O        -12.6100   18.3880  -42.4200 O.2    94  SER94      -0.2717
     51  CB       -10.3090   20.5290  -42.0680 C.3    94  SER94       0.2103
     52  OG       -11.1560   21.4260  -42.7680 O.3    94  SER94      -0.2182
     53  N        -13.4000   20.3020  -41.5000 N.am   95  GLY95      -0.1942
     54  CA       -14.6930   20.2690  -42.1670 C.3    95  GLY95       0.2014
     55  C        -14.8030   21.4160  -43.1640 C.2    95  GLY95       0.2638
     56  O        -13.8130   21.8130  -43.7970 O.2    95  GLY95      -0.2714
     57  N        -16.0070   21.9770  -43.2720 N.am   96  ALA96      -0.1977
     58  CA       -16.3620   22.8660  -44.3600 C.3    96  ALA96       0.1597
     59  C        -15.5770   24.1770  -44.3780 C.2    96  ALA96       0.2287
     60  O        -15.3990   24.7800  -45.4400 O.2    96  ALA96      -0.2864
     61  CB       -17.8540   23.1240  -44.3330 C.3    96  ALA96       0.0319
     62  N        -12.5470   24.3460  -43.8200 N.3    98  HIS98      -0.1241
     63  CA       -11.2450   23.9590  -44.3530 C.3    98  HIS98       0.1621
     64  C        -10.1060   24.2860  -43.4040 C.2    98  HIS98       0.2264
     65  O         -8.9210   24.1640  -43.7680 O.2    98  HIS98      -0.2867
     66  CB       -11.0260   24.5890  -45.7400 C.3    98  HIS98       0.0745
     67  CG       -11.7970   23.9070  -46.8490 C.ar   98  HIS98       0.0817
     68  ND1      -11.5470   24.1360  -48.1580 N.ar   98  HIS98      -0.2268
     69  CD2      -12.8230   22.9490  -46.8040 C.ar   98  HIS98       0.1154
     70  CE1      -12.3710   23.3710  -48.9130 C.ar   98  HIS98       0.1986
     71  NE2      -13.1380   22.6320  -48.0790 N.ar   98  HIS98      -0.2212
     72  N         -7.7850   23.2650  -40.4610 N.3   100  GLN100     -0.1245
     73  CA        -7.3480   22.0220  -39.8430 C.3   100  GLN100      0.1566
     74  C         -7.0400   22.1910  -38.3750 C.2   100  GLN100      0.2260
     75  O         -6.3040   23.1050  -38.0030 O.2   100  GLN100     -0.2867
     76  CB        -6.1500   21.4260  -40.5980 C.3   100  GLN100      0.0367
     77  CG        -6.5950   20.6100  -41.7980 C.3   100  GLN100      0.0905
     78  CD        -5.4430   20.0340  -42.5880 C.2   100  GLN100      0.2608
     79  OE1       -4.6880   19.1900  -42.0850 O.2   100  GLN100     -0.2717
     80  NE2       -5.3320   20.4450  -43.8650 N.am  100  GLN100     -0.0878
@<TRIPOS>BOND
     1    29    28    1
     2    28    27    1
     3    27    26    1
     4    26    23    1
     5    34    35    1
     6    34    31    1
     7    70    68   ar
     8    70    71   ar
     9    37    35   am
    10    35    36    2
    11    23    22    1
    12    23    24    1
    13    30    24   am
    14    30    31    1
    15    24    25    2
    16    68    67   ar
    17    71    69   ar
    18    31    32    1
    19    33    32    2
    20     8     7   ar
    21     9     7   ar
    22     7     6    1
    23    18    16   ar
    24    18    20   ar
    25    67    69   ar
    26    67    66    1
    27    21    20    1
    28    16    15   ar
    29    20    19   ar
    30    66    63    1
    31     6     5    1
    32     5     2    1
    33    60    59    2
    34    15    14    1
    35    15    17   ar
    36     4     3    2
    37    19    17   ar
    38    14    11    1
    39     3     2    1
    40     3    10   am
    41    59    58    1
    42     2     1    1
    43    58    61    1
    44    58    57    1
    45    63    62    1
    46    63    64    1
    47    11    10    1
    48    11    12    1
    49    80    78   am
    50    56    55    2
    51    65    64    2
    52    57    55   am
    53    45    44    1
    54    45    46    1
    55    44    43    1
    56    55    54    1
    57    12    13    2
    58    52    51    1
    59    78    79    2
    60    78    77    1
    61    50    49    2
    62    43    42    1
    63    54    53    1
    64    38    39    1
    65    51    48    1
    66    39    42    1
    67    39    40    1
    68    77    76    1
    69    49    53   am
    70    49    48    1
    71    48    47    1
    72    40    41    2
    73    76    73    1
    74    72    73    1
    75    73    74    1
    76    74    75    2
