@<TRIPOS>MOLECULE
tmp/3w10A00.pdb
 172 165 0 0 0
SMALL
GASTEIGER

@<TRIPOS>ATOM
      1  N         18.7670  -38.2540   -8.7100 N.3    12  ARG12      -0.1245
      2  CA        17.8810  -39.4090   -8.8940 C.3    12  ARG12       0.1563
      3  C         16.3700  -39.0880   -9.1570 C.2    12  ARG12       0.2260
      4  O         15.8960  -37.9530   -8.9370 O.2    12  ARG12      -0.2867
      5  CB        18.0250  -40.3790   -7.6940 C.3    12  ARG12       0.0307
      6  CG        17.6050  -39.7890   -6.3620 C.3    12  ARG12       0.0489
      7  CD        17.7110  -40.7960   -5.2200 C.3    12  ARG12       0.2205
      8  NE        16.9940  -40.2500   -4.0650 N.pl3  12  ARG12      -0.0865
      9  CZ        15.6670  -40.3480   -3.8650 C.cat  12  ARG12       0.5346
     10  NH1       14.8840  -40.9940   -4.7200 N.pl3  12  ARG12       0.1354
     11  NH2       15.1200  -39.7910   -2.7990 N.pl3  12  ARG12       0.1354
     12  N         12.7420  -39.0050   -7.9130 N.3    14  LEU14      -0.1231
     13  CA        11.8400  -39.0930   -6.7790 C.3    14  LEU14       0.1693
     14  C         10.7320  -40.1540   -6.9830 C.2    14  LEU14       0.2593
     15  O         10.3140  -40.7940   -6.0430 O.2    14  LEU14      -0.2718
     16  CB        11.2720  -37.7070   -6.4900 C.3    14  LEU14       0.0284
     17  CG        12.3620  -36.7810   -5.9470 C.3    14  LEU14       0.0019
     18  CD1       11.8910  -35.3610   -5.7520 C.3    14  LEU14       0.0001
     19  CD2       12.8670  -37.3440   -4.6290 C.3    14  LEU14       0.0001
     20  N         10.2690  -40.3410   -8.2070 N.am   15  GLY15      -0.1942
     21  CA         9.3400  -41.4160   -8.4970 C.3    15  GLY15       0.2014
     22  C          8.8760  -41.4430   -9.9450 C.2    15  GLY15       0.2639
     23  O          8.9690  -40.4310  -10.6770 O.2    15  GLY15      -0.2714
     24  N          8.3940  -42.6220  -10.3450 N.am   16  LYS16      -0.1963
     25  CA         7.7340  -42.8100  -11.6260 C.3    16  LYS16       0.1728
     26  C          6.4870  -41.9500  -11.6850 C.2    16  LYS16       0.2616
     27  O          5.6710  -41.9520  -10.7640 O.2    16  LYS16      -0.2715
     28  CB         7.3510  -44.2730  -11.8460 C.3    16  LYS16       0.0311
     29  CG         8.5170  -45.1590  -12.1980 C.3    16  LYS16       0.0038
     30  CD         8.2690  -45.9800  -13.4670 C.3    16  LYS16       0.0206
     31  CE         9.5940  -46.1590  -14.2230 C.3    16  LYS16       0.1093
     32  NZ        10.7010  -46.4830  -13.2590 N.3    16  LYS16      -0.1314
     33  N          6.3600  -41.2090  -12.7690 N.am   17  GLY17      -0.1955
     34  CA         5.2740  -40.2900  -12.9330 C.3    17  GLY17       0.1869
     35  C          4.4360  -40.6150  -14.1480 C.2    17  GLY17       0.2309
     36  O          4.6420  -41.6220  -14.8240 O.2    17  GLY17      -0.2863
     37  N          9.6330  -37.4000  -11.9430 N.3    22  VAL22      -0.1245
     38  CA        10.1510  -36.2850  -11.1990 C.3    22  VAL22       0.1561
     39  C         11.5770  -36.6310  -10.8220 C.2    22  VAL22       0.2260
     40  O         11.8850  -37.7880  -10.5140 O.2    22  VAL22      -0.2867
     41  CB         9.4020  -36.0670   -9.8780 C.3    22  VAL22       0.0252
     42  CG1        9.9510  -34.8180   -9.1690 C.3    22  VAL22       0.0019
     43  CG2        7.9100  -35.9550  -10.1060 C.3    22  VAL22       0.0019
     44  N         12.4310  -29.8370   -7.2760 N.3    35  ALA35      -0.1245
     45  CA        11.9750  -31.0280   -7.9800 C.3    35  ALA35       0.1562
     46  C         11.7280  -30.6790   -9.4300 C.2    35  ALA35       0.2260
     47  O         11.3270  -29.5500   -9.7200 O.2    35  ALA35      -0.2867
     48  CB        10.7420  -31.6320   -7.3220 C.3    35  ALA35       0.0290
     49  N          2.1640  -26.0950   -3.6660 N.3    69  LEU69      -0.1245
     50  CA         3.4270  -26.3470   -4.2980 C.3    69  LEU69       0.1561
     51  C          3.6490  -25.2270   -5.3020 C.2    69  LEU69       0.2260
     52  O          2.8840  -25.0520   -6.2550 O.2    69  LEU69      -0.2867
     53  CB         3.4500  -27.7150   -4.9780 C.3    69  LEU69       0.0270
     54  CG         4.8230  -28.3920   -5.0360 C.3    69  LEU69       0.0019
     55  CD1        5.2110  -28.8750   -3.6720 C.3    69  LEU69       0.0001
     56  CD2        4.8300  -29.5710   -5.9850 C.3    69  LEU69       0.0001
     57  N          9.4900  -27.2590  -10.1030 N.3    85  LEU85      -0.1231
     58  CA         8.6190  -27.2940   -8.9360 C.3    85  LEU85       0.1693
     59  C          9.3500  -27.2150   -7.5970 C.2    85  LEU85       0.2592
     60  O         10.5370  -27.5710   -7.4980 O.2    85  LEU85      -0.2718
     61  CB         7.8060  -28.6020   -8.9820 C.3    85  LEU85       0.0284
     62  CG         6.9410  -28.7920  -10.2410 C.3    85  LEU85       0.0019
     63  CD1        6.3540  -30.1950  -10.3760 C.3    85  LEU85       0.0001
     64  CD2        5.8480  -27.7680  -10.2110 C.3    85  LEU85       0.0001
     65  N          8.6280  -26.7850   -6.5610 N.am   86  GLU86      -0.1966
     66  CA         9.0870  -26.9550   -5.1910 C.3    86  GLU86       0.1733
     67  C          9.2320  -28.4240   -4.8200 C.2    86  GLU86       0.2616
     68  O          8.4790  -29.3110   -5.2820 O.2    86  GLU86      -0.2715
     69  CB         8.1300  -26.2960   -4.2120 C.3    86  GLU86       0.0429
     70  CG         8.4490  -26.4860   -2.7170 C.3    86  GLU86       0.1163
     71  CD         7.4320  -25.7490   -1.8030 C.2    86  GLU86       0.3649
     72  OE1        7.5880  -25.7620   -0.5610 O.co2  86  GLU86      -0.2457
     73  OE2        6.4510  -25.1660   -2.3210 O.co2  86  GLU86      -0.2457
     74  N         10.1980  -28.6590   -3.9450 N.am   87  TYR87      -0.1960
     75  CA        10.5210  -29.9690   -3.4750 C.3    87  TYR87       0.1771
     76  C          9.9110  -30.1920   -2.1100 C.2    87  TYR87       0.2619
     77  O         10.2190  -29.4710   -1.1640 O.2    87  TYR87      -0.2715
     78  CB        12.0320  -30.0780   -3.3950 C.3    87  TYR87       0.0574
     79  CG        12.5190  -31.3340   -2.7370 C.ar   87  TYR87      -0.0198
     80  CD1       11.9900  -32.5910   -3.0820 C.ar   87  TYR87      -0.0009
     81  CD2       13.5030  -31.2690   -1.7760 C.ar   87  TYR87      -0.0009
     82  CE1       12.4360  -33.7420   -2.4640 C.ar   87  TYR87       0.0417
     83  CE2       13.9660  -32.4050   -1.1620 C.ar   87  TYR87       0.0417
     84  CZ        13.4400  -33.6410   -1.5040 C.ar   87  TYR87       0.1957
     85  OH        13.9450  -34.7630   -0.8670 O.3    87  TYR87      -0.2866
     86  N          9.0430  -31.1980   -2.0070 N.am   88  ALA88      -0.1964
     87  CA         8.4610  -31.5520   -0.7280 C.3    88  ALA88       0.1713
     88  C          9.0690  -32.8700   -0.2950 C.2    88  ALA88       0.2458
     89  O          8.6670  -33.9460   -0.7630 O.2    88  ALA88      -0.2730
     90  CB         6.9390  -31.6090   -0.7730 C.3    88  ALA88       0.0333
     91  N         10.0460  -32.7810    0.6150 N.am   89  PRO89      -0.2716
     92  CA        10.9430  -33.8490    0.9670 C.3    89  PRO89       0.1536
     93  C         10.1960  -35.0890    1.3940 C.2    89  PRO89       0.2598
     94  O         10.6410  -36.1960    1.0970 O.2    89  PRO89      -0.2715
     95  CB        11.7030  -33.2760    2.1560 C.3    89  PRO89       0.0310
     96  CG        11.6160  -31.8190    1.9940 C.3    89  PRO89       0.0237
     97  CD        10.2510  -31.5950    1.4580 C.3    89  PRO89       0.0939
     98  N          9.0660  -34.9240    2.0840 N.am   90  LEU90      -0.1964
     99  CA         8.3510  -36.1020    2.5910 C.3    90  LEU90       0.1728
    100  C          7.3950  -36.6560    1.5110 C.2    90  LEU90       0.2617
    101  O          7.3300  -36.1480    0.3810 O.2    90  LEU90      -0.2715
    102  CB         7.6670  -35.8330    3.9390 C.3    90  LEU90       0.0311
    103  CG         8.4100  -35.1160    5.0830 C.3    90  LEU90       0.0022
    104  CD1        7.8680  -35.5130    6.4620 C.3    90  LEU90       0.0001
    105  CD2        9.9020  -35.3450    5.0360 C.3    90  LEU90       0.0001
    106  N          6.6810  -37.7220    1.7950 N.am   91  GLY91      -0.1940
    107  CA         5.9300  -38.2680    0.6850 C.3    91  GLY91       0.2014
    108  C          4.6470  -37.5240    0.3640 C.2    91  GLY91       0.2639
    109  O          4.4510  -36.3330    0.7150 O.2    91  GLY91      -0.2714
    110  N          3.7710  -38.2520   -0.3270 N.am   92  THR92      -0.1950
    111  CA         2.3720  -37.8280   -0.5020 C.3    92  THR92       0.1897
    112  C          1.6360  -38.2210    0.7480 C.2    92  THR92       0.2313
    113  O          2.0890  -39.0890    1.4790 O.2    92  THR92      -0.2863
    114  CB         1.7290  -38.4930   -1.7060 C.3    92  THR92       0.1794
    115  OG1        1.8190  -39.9100   -1.5500 O.3    92  THR92      -0.2208
    116  CG2        2.4550  -38.0940   -2.9700 C.3    92  THR92       0.0378
    117  N          0.7680  -41.9120    0.5900 N.3    95  ARG95      -0.1245
    118  CA         1.7260  -42.9270    1.0150 C.3    95  ARG95       0.1563
    119  C          1.6760  -43.0270    2.5230 C.2    95  ARG95       0.2260
    120  O          1.7230  -44.1300    3.0530 O.2    95  ARG95      -0.2867
    121  CB         3.1590  -42.6420    0.5200 C.3    95  ARG95       0.0307
    122  CG         4.1200  -43.8950    0.4460 C.3    95  ARG95       0.0489
    123  CD         4.3380  -44.4310   -1.0100 C.3    95  ARG95       0.2205
    124  NE         3.1140  -44.8410   -1.7250 N.pl3  95  ARG95      -0.0865
    125  CZ         2.4940  -46.0150   -1.5630 C.cat  95  ARG95       0.5346
    126  NH1        2.9630  -46.9190   -0.6930 N.pl3  95  ARG95       0.1354
    127  NH2        1.3860  -46.2850   -2.2640 N.pl3  95  ARG95       0.1354
    128  N         -3.4500  -38.2250   -3.0370 N.3   135  GLU135     -0.1245
    129  CA        -2.2480  -38.4120   -3.8570 C.3   135  GLU135      0.1567
    130  C         -1.8410  -37.1240   -4.5330 C.2   135  GLU135      0.2260
    131  O         -0.7870  -37.0420   -5.1520 O.2   135  GLU135     -0.2867
    132  CB        -2.3250  -39.5920   -4.8210 C.3   135  GLU135      0.0388
    133  CG        -3.5240  -39.6420   -5.6860 C.3   135  GLU135      0.1160
    134  CD        -4.4070  -40.8260   -5.3640 C.2   135  GLU135      0.3649
    135  OE1       -3.9410  -41.9680   -5.5810 O.co2 135  GLU135     -0.2457
    136  OE2       -5.5600  -40.6240   -4.8920 O.co2 135  GLU135     -0.2457
    137  N          1.4180  -33.3620   -1.0640 N.3   138  LEU138     -0.1245
    138  CA         2.8130  -33.6140   -0.6300 C.3   138  LEU138      0.1561
    139  C          3.1090  -33.1150    0.7960 C.2   138  LEU138      0.2260
    140  O          2.4460  -32.2130    1.3140 O.2   138  LEU138     -0.2867
    141  CB         3.8310  -32.9980   -1.6020 C.3   138  LEU138      0.0270
    142  CG         3.9560  -33.6420   -2.9800 C.3   138  LEU138      0.0019
    143  CD1        4.5320  -32.6600   -3.9530 C.3   138  LEU138      0.0001
    144  CD2        4.7880  -34.9090   -2.9300 C.3   138  LEU138      0.0001
    145  N          2.1280  -33.4930  -11.5560 N.3   153  SER153     -0.1202
    146  CA         3.2880  -33.4430  -10.6310 C.3   153  SER153      0.2020
    147  C          3.6260  -34.7710  -10.0150 C.2   153  SER153      0.2619
    148  O          4.7400  -35.2770  -10.1920 O.2   153  SER153     -0.2717
    149  CB         3.0250  -32.5100   -9.4520 C.3   153  SER153      0.2103
    150  OG         2.5430  -31.2510   -9.8610 O.3   153  SER153     -0.2182
    151  N          2.6630  -35.3230   -9.2760 N.am  154  VAL154     -0.1965
    152  CA         2.9000  -36.5160   -8.4750 C.3   154  VAL154      0.1727
    153  C          1.9390  -37.6470   -8.8090 C.2   154  VAL154      0.2616
    154  O          1.7710  -38.5860   -8.0540 O.2   154  VAL154     -0.2715
    155  CB         2.9560  -36.2090   -6.9540 C.3   154  VAL154      0.0290
    156  CG1        4.1590  -35.3810   -6.6480 C.3   154  VAL154      0.0023
    157  CG2        1.7400  -35.4850   -6.5140 C.3   154  VAL154      0.0023
    158  N          1.3450  -37.5430   -9.9780 N.am  155  HIS155     -0.1959
    159  CA         0.5350  -38.5930  -10.5700 C.3   155  HIS155      0.1787
    160  C          1.4170  -39.7910  -10.9370 C.2   155  HIS155      0.2620
    161  O          2.4500  -39.6500  -11.6330 O.2   155  HIS155     -0.2715
    162  CB        -0.0430  -38.0360  -11.8570 C.3   155  HIS155      0.0785
    163  CG        -1.5330  -38.1460  -12.0000 C.ar  155  HIS155      0.0821
    164  ND1       -2.1550  -39.2770  -12.5100 N.ar  155  HIS155     -0.2267
    165  CD2       -2.5130  -37.2250  -11.8110 C.ar  155  HIS155      0.1154
    166  CE1       -3.4570  -39.0580  -12.6010 C.ar  155  HIS155      0.1986
    167  NE2       -3.6990  -37.8250  -12.1780 N.ar  155  HIS155     -0.2212
    168  N          1.0080  -40.9720  -10.4680 N.am  156  ALA156     -0.1977
    169  CA         1.6410  -42.2250  -10.8500 C.3   156  ALA156      0.1597
    170  C          1.1500  -42.5520  -12.2510 C.2   156  ALA156      0.2287
    171  O          0.0540  -42.1210  -12.6120 O.2   156  ALA156     -0.2864
    172  CB         1.2520  -43.3140   -9.8830 C.3   156  ALA156      0.0319
@<TRIPOS>BOND
     1    36    35    2
     2    31    30    1
     3    31    32    1
     4    35    34    1
     5    30    29    1
     6    34    33    1
     7    33    26   am
     8   171   170    2
     9   166   164   ar
    10   166   167   ar
    11   164   163   ar
    12   170   169    1
    13    29    28    1
    14   167   165   ar
    15   163   162    1
    16   163   165   ar
    17    37    38    1
    18   162   159    1
    19    28    25    1
    20    26    25    1
    21    26    27    2
    22   161   160    2
    23    25    24    1
    24   145   146    1
    25    38    39    1
    26    38    41    1
    27   160   159    1
    28   160   168   am
    29   169   168    1
    30   169   172    1
    31    39    40    2
    32    23    22    2
    33   146   147    1
    34   146   149    1
    35   159   158    1
    36    63    62    1
    37    24    22   am
    38    62    64    1
    39    62    61    1
    40   148   147    2
    41    43    41    1
    42    57    58    1
    43   147   151   am
    44   158   153   am
    45    22    21    1
    46    41    42    1
    47   150   149    1
    48    47    46    2
    49    46    45    1
    50   151   152    1
    51     3     4    2
    52     3     2    1
    53    61    58    1
    54    58    59    1
    55     2     1    1
    56     2     5    1
    57   153   152    1
    58   153   154    2
    59    21    20    1
    60   152   155    1
    61    20    14   am
    62    45    48    1
    63    45    44    1
    64    12    13    1
    65     5     6    1
    66    59    60    2
    67    59    65   am
    68    14    13    1
    69    14    15    2
    70   155   156    1
    71   155   157    1
    72    13    16    1
    73    65    66    1
    74    16    17    1
    75     6     7    1
    76    52    51    2
    77    56    54    1
    78    17    18    1
    79    17    19    1
    80   133   134    1
    81   133   132    1
    82   135   134   ar
    83   134   136   ar
    84    51    50    1
    85    68    67    2
    86     7     8    1
    87    66    67    1
    88    66    69    1
    89   131   130    2
    90    54    53    1
    91    54    55    1
    92    53    50    1
    93   132   129    1
    94    67    74   am
    95    10     9    1
    96   130   129    1
    97    50    49    1
    98    69    70    1
    99     8     9    2
   100   143   142    1
   101    74    75    1
   102     9    11    1
   103   129   128    1
   104    75    78    1
   105    75    76    1
   106    78    79    1
   107    80    79   ar
   108    80    82   ar
   109   142   144    1
   110   142   141    1
   111   116   114    1
   112    79    81   ar
   113    70    71    1
   114    82    84   ar
   115    73    71   ar
   116   127   125    1
   117    76    86   am
   118    76    77    2
   119    86    87    1
   120    71    72   ar
   121    81    83   ar
   122   124   125    2
   123   124   123    1
   124   114   115    1
   125   114   111    1
   126   141   138    1
   127   125   126    1
   128    84    83   ar
   129    84    85    1
   130   137   138    1
   131   123   122    1
   132    90    87    1
   133    89    88    2
   134    87    88    1
   135   138   139    1
   136   111   110    1
   137   111   112    1
   138   110   108   am
   139    88    91   am
   140   108   107    1
   141   108   109    2
   142   101   100    2
   143   122   121    1
   144   121   118    1
   145   117   118    1
   146    91    92    1
   147    91    97    1
   148   107   106    1
   149   112   113    2
   150   139   140    2
   151    92    93    1
   152    92    95    1
   153   118   119    1
   154    94    93    2
   155    93    98   am
   156    97    96    1
   157   100   106   am
   158   100    99    1
   159    96    95    1
   160    98    99    1
   161   119   120    2
   162    99   102    1
   163   102   103    1
   164   105   103    1
   165   103   104    1
