@<TRIPOS>MOLECULE
tmp/3w13A02.pdb
 144 137 0 0 0
SMALL
GASTEIGER

@<TRIPOS>ATOM
      1  N        -19.3780  -25.8520  -71.2740 N.3    79  ARG79      -0.1245
      2  CA       -19.0690  -24.5640  -71.8860 C.3    79  ARG79       0.1563
      3  C        -19.0730  -23.3690  -70.9250 C.2    79  ARG79       0.2260
      4  O        -18.4090  -22.3450  -71.1780 O.2    79  ARG79      -0.2867
      5  CB       -20.0120  -24.3130  -73.0410 C.3    79  ARG79       0.0307
      6  CG       -19.8570  -25.3070  -74.1640 C.3    79  ARG79       0.0489
      7  CD       -20.6490  -24.8120  -75.3520 C.3    79  ARG79       0.2205
      8  NE       -19.9440  -23.7390  -76.0330 N.pl3  79  ARG79      -0.0865
      9  CZ       -19.2900  -23.8880  -77.1760 C.cat  79  ARG79       0.5346
     10  NH1      -19.2620  -25.0700  -77.7900 N.pl3  79  ARG79       0.1354
     11  NH2      -18.6720  -22.8430  -77.7100 N.pl3  79  ARG79       0.1354
     12  N        -12.6280  -32.9010  -71.6750 N.3   106  MET106     -0.1230
     13  CA       -11.4000  -32.3800  -72.2750 C.3   106  MET106      0.1702
     14  C        -11.2080  -30.8880  -72.0950 C.2   106  MET106      0.2592
     15  O        -10.0710  -30.3920  -72.1100 O.2   106  MET106     -0.2718
     16  CB       -11.3670  -32.7210  -73.7630 C.3   106  MET106      0.0401
     17  CG       -11.1480  -34.1980  -74.0580 C.3   106  MET106      0.0596
     18  SD        -9.4490  -34.6860  -73.6950 S.3   106  MET106     -0.1393
     19  CE        -9.5290  -35.2860  -72.0040 C.3   106  MET106      0.0692
     20  N        -12.3280  -30.1850  -71.9320 N.am  107  ASN107     -0.1960
     21  CA       -12.3390  -28.7270  -71.8280 C.3   107  ASN107      0.1819
     22  C        -13.5910  -28.1950  -71.1030 C.2   107  ASN107      0.2621
     23  O        -14.7440  -28.5400  -71.4330 O.2   107  ASN107     -0.2715
     24  CB       -12.1510  -28.0990  -73.2300 C.3   107  ASN107      0.1195
     25  CG       -12.1680  -26.5670  -73.2390 C.2   107  ASN107      0.2630
     26  OD1      -13.0590  -25.9120  -72.6850 O.2   107  ASN107     -0.2716
     27  ND2      -11.1900  -25.9910  -73.9030 N.am  107  ASN107     -0.0877
     28  N        -13.3220  -27.3710  -70.0910 N.am  108  ILE108     -0.1963
     29  CA       -14.3150  -26.5150  -69.4610 C.3   108  ILE108      0.1727
     30  C        -13.9910  -25.0640  -69.8130 C.2   108  ILE108      0.2617
     31  O        -13.1600  -24.3850  -69.1880 O.2   108  ILE108     -0.2715
     32  CB       -14.4020  -26.7180  -67.9410 C.3   108  ILE108      0.0290
     33  CG1      -14.8020  -28.1640  -67.6380 C.3   108  ILE108      0.0022
     34  CG2      -15.3930  -25.7320  -67.3360 C.3   108  ILE108      0.0023
     35  CD1      -14.3170  -28.6830  -66.3020 C.3   108  ILE108      0.0001
     36  N        -14.6510  -24.6310  -70.8740 N.am  109  THR109     -0.1937
     37  CA       -14.6380  -23.2630  -71.3160 C.3   109  THR109      0.2028
     38  C        -15.1910  -22.3730  -70.2120 C.2   109  THR109      0.2642
     39  O        -16.1310  -22.7570  -69.5050 O.2   109  THR109     -0.2714
     40  CB       -15.5460  -23.1230  -72.5360 C.3   109  THR109      0.1808
     41  OG1      -15.5010  -24.3290  -73.3210 O.3   109  THR109     -0.2208
     42  CG2      -15.1020  -21.9490  -73.3490 C.3   109  THR109      0.0379
     43  N        -14.6040  -21.1910  -70.0670 N.am  110  ARG110     -0.1977
     44  CA       -14.9930  -20.2360  -69.0200 C.3   110  ARG110      0.1597
     45  C        -14.7920  -20.7350  -67.5600 C.2   110  ARG110      0.2287
     46  O        -13.6690  -20.6660  -67.0540 O.2   110  ARG110     -0.2864
     47  CB       -16.3940  -19.6270  -69.2810 C.3   110  ARG110      0.0334
     48  CG       -16.6380  -18.3030  -68.5560 C.3   110  ARG110      0.0492
     49  CD       -17.6800  -17.4560  -69.2520 C.3   110  ARG110      0.2205
     50  NE       -18.2090  -16.3860  -68.3990 N.pl3 110  ARG110     -0.0865
     51  CZ       -19.4160  -16.3990  -67.8220 C.cat 110  ARG110      0.5346
     52  NH1      -20.2280  -17.4290  -67.9890 N.pl3 110  ARG110      0.1354
     53  NH2      -19.8220  -15.3830  -67.0690 N.pl3 110  ARG110      0.1354
     54  N         -5.2700  -27.9820  -65.6060 N.3   130  SER130     -0.1202
     55  CA        -4.8500  -26.9200  -66.5160 C.3   130  SER130      0.2020
     56  C         -4.9620  -27.3300  -67.9880 C.2   130  SER130      0.2619
     57  O         -4.8440  -26.4920  -68.8810 O.2   130  SER130     -0.2717
     58  CB        -3.4440  -26.4160  -66.1660 C.3   130  SER130      0.2103
     59  OG        -2.5090  -27.4700  -66.0700 O.3   130  SER130     -0.2182
     60  N         -5.2070  -28.6200  -68.2170 N.am  131  ARG131     -0.1965
     61  CA        -5.4690  -29.1600  -69.5490 C.3   131  ARG131      0.1729
     62  C         -6.9520  -29.1580  -69.8540 C.2   131  ARG131      0.2616
     63  O         -7.3820  -29.5620  -70.9400 O.2   131  ARG131     -0.2715
     64  CB        -4.9800  -30.5970  -69.6350 C.3   131  ARG131      0.0348
     65  CG        -3.4750  -30.7370  -69.6320 C.3   131  ARG131      0.0492
     66  CD        -2.8530  -30.2860  -70.9580 C.3   131  ARG131      0.2205
     67  NE        -1.4290  -29.9760  -70.8200 N.pl3 131  ARG131     -0.0865
     68  CZ        -0.9380  -28.8140  -70.3840 C.cat 131  ARG131      0.5346
     69  NH1       -1.7390  -27.8180  -70.0290 N.pl3 131  ARG131      0.1354
     70  NH2        0.3700  -28.6450  -70.2960 N.pl3 131  ARG131      0.1354
     71  N         -7.7310  -28.7230  -68.8730 N.am  132  ILE132     -0.1963
     72  CA        -9.1700  -28.7030  -68.9920 C.3   132  ILE132      0.1727
     73  C         -9.7020  -27.2840  -68.7770 C.2   132  ILE132      0.2616
     74  O        -10.5310  -26.8140  -69.5480 O.2   132  ILE132     -0.2715
     75  CB        -9.8050  -29.7600  -68.0660 C.3   132  ILE132      0.0290
     76  CG1       -9.3840  -31.1580  -68.5450 C.3   132  ILE132      0.0022
     77  CG2      -11.3290  -29.6480  -68.0450 C.3   132  ILE132      0.0023
     78  CD1       -9.5450  -32.2620  -67.5240 C.3   132  ILE132      0.0001
     79  N         -9.2030  -26.5720  -67.7760 N.am  133  LEU133     -0.1963
     80  CA        -9.7380  -25.2410  -67.5300 C.3   133  LEU133      0.1728
     81  C         -8.8080  -24.1480  -67.8690 C.2   133  LEU133      0.2616
     82  O         -7.6000  -24.2330  -67.6300 O.2   133  LEU133     -0.2715
     83  CB       -10.1370  -25.0350  -66.0860 C.3   133  LEU133      0.0311
     84  CG       -11.2510  -25.9640  -65.6520 C.3   133  LEU133      0.0022
     85  CD1      -10.6890  -26.8960  -64.5980 C.3   133  LEU133      0.0001
     86  CD2      -12.3910  -25.1470  -65.0920 C.3   133  LEU133      0.0001
     87  N         -9.4090  -23.0970  -68.3940 N.am  134  ASP134     -0.1971
     88  CA        -8.6990  -21.8780  -68.6440 C.3   134  ASP134      0.1709
     89  C         -8.0990  -21.3490  -67.3550 C.2   134  ASP134      0.2293
     90  O         -6.8750  -21.2510  -67.2410 O.2   134  ASP134     -0.2864
     91  CB        -9.5990  -20.8650  -69.3500 C.3   134  ASP134      0.1436
     92  CG        -9.3950  -20.8830  -70.8520 C.2   134  ASP134      0.3671
     93  OD1       -8.3060  -21.3460  -71.2620 O.co2 134  ASP134     -0.2456
     94  OD2      -10.2870  -20.4400  -71.6210 O.co2 134  ASP134     -0.2456
     95  N         -3.6120  -27.3820  -79.1740 N.3   185  LYS185     -0.1231
     96  CA        -4.4800  -26.5980  -78.2740 C.3   185  LYS185      0.1693
     97  C         -5.7280  -27.3720  -77.8180 C.2   185  LYS185      0.2592
     98  O         -5.6580  -28.5440  -77.4350 O.2   185  LYS185     -0.2718
     99  CB        -4.9110  -25.2460  -78.8870 C.3   185  LYS185      0.0285
    100  CG        -3.8590  -24.1700  -79.0190 C.3   185  LYS185      0.0035
    101  CD        -4.4770  -22.8950  -79.5910 C.3   185  LYS185      0.0206
    102  CE        -3.5340  -21.6890  -79.4970 C.3   185  LYS185      0.1093
    103  NZ        -2.2820  -21.7030  -80.3320 N.3   185  LYS185     -0.1314
    104  N         -6.8670  -26.6910  -77.8930 N.am  186  SER186     -0.1952
    105  CA        -8.1340  -27.1600  -77.3460 C.3   186  SER186      0.1924
    106  C         -8.8710  -28.0560  -78.3080 C.2   186  SER186      0.2314
    107  O         -9.9410  -28.5440  -77.9730 O.2   186  SER186     -0.2863
    108  CB        -9.0360  -25.9610  -77.0050 C.3   186  SER186      0.2116
    109  OG        -9.0420  -24.9930  -78.0470 O.3   186  SER186     -0.2180
    110  N        -13.8670  -28.9950  -80.9840 N.3   201  LEU201     -0.1245
    111  CA       -13.4740  -28.6930  -79.6110 C.3   201  LEU201      0.1561
    112  C        -12.6440  -29.7740  -78.9210 C.2   201  LEU201      0.2260
    113  O        -11.4350  -29.6640  -78.9090 O.2   201  LEU201     -0.2867
    114  CB       -14.6600  -28.2090  -78.7710 C.3   201  LEU201      0.0270
    115  CG       -14.3240  -27.4780  -77.4700 C.3   201  LEU201      0.0019
    116  CD1      -13.1590  -26.5030  -77.5860 C.3   201  LEU201      0.0001
    117  CD2      -15.5730  -26.7590  -76.9800 C.3   201  LEU201      0.0001
    118  N        -16.4850  -26.0130  -81.2920 N.3   217  ARG217     -0.1231
    119  CA       -15.7260  -25.0150  -80.5330 C.3   217  ARG217      0.1694
    120  C        -16.4310  -23.6820  -80.5410 C.2   217  ARG217      0.2592
    121  O        -16.5630  -23.0390  -79.4970 O.2   217  ARG217     -0.2718
    122  CB       -14.3150  -24.8320  -81.0990 C.3   217  ARG217      0.0321
    123  CG       -13.7330  -23.4430  -80.8470 C.3   217  ARG217      0.0489
    124  CD       -12.2550  -23.3550  -81.1760 C.3   217  ARG217      0.2205
    125  NE       -11.8150  -21.9830  -81.4290 N.pl3 217  ARG217     -0.0865
    126  CZ       -11.2220  -21.5690  -82.5490 C.cat 217  ARG217      0.5346
    127  NH1      -10.9670  -22.4150  -83.5430 N.pl3 217  ARG217      0.1354
    128  NH2      -10.8680  -20.2980  -82.6730 N.pl3 217  ARG217      0.1354
    129  N        -16.8570  -23.2520  -81.7250 N.am  218  ASN218     -0.1974
    130  CA       -17.5900  -22.0110  -81.8300 C.3   218  ASN218      0.1688
    131  C        -19.0940  -22.2390  -81.8580 C.2   218  ASN218      0.2292
    132  O        -19.7380  -22.3750  -80.8230 O.2   218  ASN218     -0.2864
    133  CB       -17.1120  -21.2130  -83.0370 C.3   218  ASN218      0.1181
    134  CG       -15.8040  -20.4940  -82.7750 C.2   218  ASN218      0.2629
    135  OD1      -15.6570  -19.7880  -81.7860 O.2   218  ASN218     -0.2716
    136  ND2      -14.8480  -20.6720  -83.6600 N.am  218  ASN218     -0.0877
    137  N        -25.2520  -18.9820  -77.1170 N.3   238  ASP238     -0.1239
    138  CA       -23.8400  -18.9810  -77.4200 C.3   238  ASP238      0.1674
    139  C        -23.2520  -20.3510  -77.6080 C.2   238  ASP238      0.2266
    140  O        -22.2570  -20.7220  -76.9820 O.2   238  ASP238     -0.2867
    141  CB       -23.0460  -18.1360  -76.4350 C.3   238  ASP238      0.1410
    142  CG       -22.5470  -16.8530  -77.0670 C.2   238  ASP238      0.3668
    143  OD1      -23.3920  -16.0100  -77.4660 O.co2 238  ASP238     -0.2456
    144  OD2      -21.3090  -16.6980  -77.1690 O.co2 238  ASP238     -0.2456
@<TRIPOS>BOND
     1   136   134   am
     2   127   126    1
     3   133   134    1
     4   133   130    1
     5   134   135    2
     6   128   126    1
     7   126   125    2
     8   131   130    1
     9   131   132    2
    10   130   129    1
    11   129   120   am
    12   125   124    1
    13   118   119    1
    14   124   123    1
    15   122   123    1
    16   122   119    1
    17   110   111    1
    18   120   119    1
    19   120   121    2
    20   103   102    1
    21   111   112    1
    22   111   114    1
    23   101   102    1
    24   101   100    1
    25    95    96    1
    26   100    99    1
    27   112   113    2
    28    99    96    1
    29   114   115    1
    30   106   107    2
    31   106   105    1
    32    96    97    1
    33   109   108    1
    34   104    97   am
    35   104   105    1
    36    97    98    2
    37    10     9    1
    38    11     9    1
    39   139   138    1
    40   139   140    2
    41   116   115    1
    42   115   117    1
    43   143   142   ar
    44   138   137    1
    45   138   141    1
    46   105   108    1
    47     9     8    2
    48   144   142   ar
    49   142   141    1
    50     8     7    1
    51     7     6    1
    52     6     5    1
    53    17    16    1
    54    17    18    1
    55    27    25   am
    56    16    13    1
    57    18    19    1
    58    42    40    1
    59    41    40    1
    60    25    24    1
    61    25    26    2
    62    24    21    1
    63     5     2    1
    64    40    37    1
    65    13    14    1
    66    13    12    1
    67    15    14    2
    68    14    20   am
    69    20    21    1
    70     2     1    1
    71     2     3    1
    72    21    22    1
    73    94    92   ar
    74    23    22    2
    75    37    36    1
    76    37    38    1
    77    93    92   ar
    78     4     3    2
    79    22    28   am
    80    66    67    1
    81    66    65    1
    82    63    62    2
    83    36    30   am
    84    92    91    1
    85    67    68    2
    86    68    70    1
    87    68    69    1
    88    38    43   am
    89    38    39    2
    90    28    29    1
    91    43    44    1
    92    62    61    1
    93    62    71   am
    94    30    29    1
    95    30    31    2
    96    64    65    1
    97    64    61    1
    98    61    60    1
    99    74    73    2
   100    29    32    1
   101    91    88    1
   102    47    44    1
   103    47    48    1
   104    49    48    1
   105    49    50    1
   106    44    45    1
   107    72    71    1
   108    72    73    1
   109    72    75    1
   110    57    56    2
   111    73    79   am
   112    88    87    1
   113    88    89    1
   114    76    75    1
   115    76    78    1
   116    50    51    2
   117    87    81   am
   118    60    56   am
   119    75    77    1
   120    52    51    1
   121    56    55    1
   122    32    33    1
   123    32    34    1
   124    81    82    2
   125    81    80    1
   126    51    53    1
   127    79    80    1
   128    33    35    1
   129    45    46    2
   130    80    83    1
   131    89    90    2
   132    55    58    1
   133    55    54    1
   134    58    59    1
   135    83    84    1
   136    84    86    1
   137    84    85    1
