@<TRIPOS>MOLECULE
tmp/3w13A00.pdb
 173 166 0 0 0
SMALL
GASTEIGER

@<TRIPOS>ATOM
      1  N        -33.1280  -30.2550  -63.5450 N.3     8  ASP8       -0.1239
      2  CA       -32.8730  -30.1540  -62.1260 C.3     8  ASP8        0.1674
      3  C        -33.4880  -31.3920  -61.4930 C.2     8  ASP8        0.2266
      4  O        -34.7070  -31.4660  -61.3340 O.2     8  ASP8       -0.2867
      5  CB       -33.4950  -28.8470  -61.5960 C.3     8  ASP8        0.1410
      6  CG       -33.6690  -28.8310  -60.0850 C.2     8  ASP8        0.3668
      7  OD1      -32.6450  -28.8350  -59.3620 O.co2   8  ASP8       -0.2456
      8  OD2      -34.8400  -28.7950  -59.6300 O.co2   8  ASP8       -0.2456
      9  N        -34.0460  -34.2810  -58.5870 N.3    10  ARG10      -0.1245
     10  CA       -34.1270  -34.3720  -57.1240 C.3    10  ARG10       0.1563
     11  C        -35.0130  -35.5270  -56.6120 C.2    10  ARG10       0.2260
     12  O        -36.0140  -35.9160  -57.2490 O.2    10  ARG10      -0.2867
     13  CB       -34.6830  -33.0640  -56.5390 C.3    10  ARG10       0.0307
     14  CG       -34.1540  -31.7570  -57.1220 C.3    10  ARG10       0.0489
     15  CD       -35.1290  -30.6050  -56.8820 C.3    10  ARG10       0.2205
     16  NE       -34.4330  -29.3180  -56.8930 N.pl3  10  ARG10      -0.0865
     17  CZ       -34.0560  -28.6470  -55.8060 C.cat  10  ARG10       0.5346
     18  NH1      -34.3240  -29.1190  -54.6000 N.pl3  10  ARG10       0.1354
     19  NH2      -33.4150  -27.4920  -55.9220 N.pl3  10  ARG10       0.1354
     20  N        -28.4070  -30.2930  -62.8860 N.3    30  GLN30      -0.1245
     21  CA       -28.2570  -30.3540  -61.4420 C.3    30  GLN30       0.1566
     22  C        -28.8860  -31.6180  -60.8850 C.2    30  GLN30       0.2260
     23  O        -30.1050  -31.7780  -60.9190 O.2    30  GLN30      -0.2867
     24  CB       -28.9370  -29.1560  -60.7830 C.3    30  GLN30       0.0367
     25  CG       -28.3320  -27.7980  -61.0820 C.3    30  GLN30       0.0905
     26  CD       -29.0980  -26.6860  -60.3970 C.2    30  GLN30       0.2608
     27  OE1      -28.6520  -25.5410  -60.3840 O.2    30  GLN30      -0.2717
     28  NE2      -30.2670  -27.0160  -59.8280 N.am   30  GLN30      -0.0878
     29  N        -29.2610  -33.6890  -57.3800 N.3    32  LEU32      -0.1231
     30  CA       -29.0830  -33.3980  -55.9470 C.3    32  LEU32       0.1693
     31  C        -30.0930  -34.0590  -55.0360 C.2    32  LEU32       0.2591
     32  O        -31.1510  -34.5420  -55.4770 O.2    32  LEU32      -0.2718
     33  CB       -29.1660  -31.8940  -55.7000 C.3    32  LEU32       0.0284
     34  CG       -30.5210  -31.3240  -56.1460 C.3    32  LEU32       0.0019
     35  CD1      -31.4640  -31.0850  -54.9810 C.3    32  LEU32       0.0001
     36  CD2      -30.3390  -30.0600  -56.9610 C.3    32  LEU32       0.0001
     37  N        -29.7610  -34.0330  -53.7520 N.am   33  LEU33      -0.1980
     38  CA       -30.6650  -34.4550  -52.7130 C.3    33  LEU33       0.1596
     39  C        -31.3420  -35.7900  -52.9940 C.2    33  LEU33       0.2287
     40  O        -32.5480  -35.8480  -53.2320 O.2    33  LEU33      -0.2864
     41  CB       -31.7350  -33.3840  -52.4800 C.3    33  LEU33       0.0297
     42  CG       -31.4080  -31.9980  -51.9230 C.3    33  LEU33       0.0022
     43  CD1      -32.6190  -31.4820  -51.1400 C.3    33  LEU33       0.0001
     44  CD2      -30.1650  -32.0190  -51.0490 C.3    33  LEU33       0.0001
     45  N        -23.5670  -25.3010  -66.6280 N.3    56  TYR56      -0.1241
     46  CA       -22.7510  -25.9700  -65.6090 C.3    56  TYR56       0.1605
     47  C        -23.2750  -27.3460  -65.2100 C.2    56  TYR56       0.2264
     48  O        -24.3990  -27.7130  -65.5540 O.2    56  TYR56      -0.2867
     49  CB       -22.5530  -25.0700  -64.3690 C.3    56  TYR56       0.0534
     50  CG       -23.8280  -24.6140  -63.7420 C.ar   56  TYR56      -0.0201
     51  CD1      -24.5520  -25.4560  -62.9060 C.ar   56  TYR56      -0.0009
     52  CD2      -24.3290  -23.3530  -64.0000 C.ar   56  TYR56      -0.0009
     53  CE1      -25.7520  -25.0490  -62.3330 C.ar   56  TYR56       0.0417
     54  CE2      -25.5310  -22.9320  -63.4450 C.ar   56  TYR56       0.0417
     55  CZ       -26.2480  -23.7770  -62.6090 C.ar   56  TYR56       0.1957
     56  OH       -27.4460  -23.3360  -62.0560 O.3    56  TYR56      -0.2866
     57  N        -23.6150  -29.9300  -61.7120 N.3    58  LEU58      -0.1245
     58  CA       -23.6550  -29.8270  -60.2880 C.3    58  LEU58       0.1561
     59  C        -24.2380  -31.1010  -59.6640 C.2    58  LEU58       0.2260
     60  O        -25.3930  -31.4840  -59.9070 O.2    58  LEU58      -0.2867
     61  CB       -24.4520  -28.5780  -59.9210 C.3    58  LEU58       0.0270
     62  CG       -25.0820  -28.3930  -58.5480 C.3    58  LEU58       0.0019
     63  CD1      -24.0770  -28.6090  -57.4330 C.3    58  LEU58       0.0001
     64  CD2      -25.6720  -26.9960  -58.4900 C.3    58  LEU58       0.0001
     65  N        -24.6990  -32.9790  -55.8960 N.3    60  PHE60      -0.1241
     66  CA       -24.7410  -32.5980  -54.5010 C.3    60  PHE60       0.1605
     67  C        -25.6250  -33.4940  -53.6520 C.2    60  PHE60       0.2264
     68  O        -26.8530  -33.5290  -53.8120 O.2    60  PHE60      -0.2867
     69  CB       -25.1630  -31.1290  -54.3940 C.3    60  PHE60       0.0534
     70  CG       -25.5190  -30.6950  -53.0100 C.ar   60  PHE60      -0.0203
     71  CD1      -24.5650  -30.6940  -51.9940 C.ar   60  PHE60      -0.0042
     72  CD2      -26.8070  -30.2670  -52.7290 C.ar   60  PHE60      -0.0042
     73  CE1      -24.8970  -30.2880  -50.7170 C.ar   60  PHE60      -0.0003
     74  CE2      -27.1420  -29.8490  -51.4570 C.ar   60  PHE60      -0.0003
     75  CZ       -26.1870  -29.8660  -50.4480 C.ar   60  PHE60      -0.0000
     76  N        -22.6710  -19.6740  -65.0390 N.3    83  LEU83      -0.1231
     77  CA       -21.9310  -20.3860  -63.9940 C.3    83  LEU83       0.1693
     78  C        -22.6500  -20.3910  -62.6580 C.2    83  LEU83       0.2592
     79  O        -23.4160  -19.4780  -62.3450 O.2    83  LEU83      -0.2718
     80  CB       -20.5150  -19.8090  -63.8110 C.3    83  LEU83       0.0284
     81  CG       -19.5970  -19.7410  -65.0430 C.3    83  LEU83       0.0019
     82  CD1      -18.4020  -18.8420  -64.7640 C.3    83  LEU83       0.0001
     83  CD2      -19.1280  -21.1080  -65.5140 C.3    83  LEU83       0.0001
     84  N        -22.3840  -21.4340  -61.8820 N.am   84  PHE84      -0.1962
     85  CA       -22.9000  -21.5530  -60.5330 C.3    84  PHE84       0.1771
     86  C        -21.8870  -20.9670  -59.5370 C.2    84  PHE84       0.2619
     87  O        -20.8340  -21.5620  -59.2970 O.2    84  PHE84      -0.2715
     88  CB       -23.1850  -23.0250  -60.2440 C.3    84  PHE84       0.0574
     89  CG       -24.0590  -23.2520  -59.0420 C.ar   84  PHE84      -0.0200
     90  CD1      -25.4420  -23.2110  -59.1590 C.ar   84  PHE84      -0.0042
     91  CD2      -23.5000  -23.5190  -57.7920 C.ar   84  PHE84      -0.0042
     92  CE1      -26.2490  -23.4240  -58.0560 C.ar   84  PHE84      -0.0003
     93  CE2      -24.3020  -23.7340  -56.6870 C.ar   84  PHE84      -0.0003
     94  CZ       -25.6750  -23.6880  -56.8210 C.ar   84  PHE84      -0.0000
     95  N        -22.2280  -19.8210  -58.9390 N.am   85  PHE85      -0.1974
     96  CA       -21.2410  -18.9070  -58.3350 C.3    85  PHE85       0.1639
     97  C        -20.2460  -18.5400  -59.4510 C.2    85  PHE85       0.2290
     98  O        -20.5980  -17.7820  -60.3620 O.2    85  PHE85      -0.2864
     99  CB       -20.5730  -19.4920  -57.0710 C.3    85  PHE85       0.0560
    100  CG       -19.7380  -18.4940  -56.2850 C.ar   85  PHE85      -0.0200
    101  CD1      -20.3270  -17.6370  -55.3690 C.ar   85  PHE85      -0.0042
    102  CD2      -18.3460  -18.4300  -56.4430 C.ar   85  PHE85      -0.0042
    103  CE1      -19.5520  -16.7340  -54.6440 C.ar   85  PHE85      -0.0003
    104  CE2      -17.5670  -17.5270  -55.7280 C.ar   85  PHE85      -0.0003
    105  CZ       -18.1720  -16.6760  -54.8250 C.ar   85  PHE85      -0.0000
    106  N        -18.4860  -21.2830  -60.7850 N.3    87  TYR87      -0.1241
    107  CA       -18.0670  -22.6250  -61.1340 C.3    87  TYR87       0.1605
    108  C        -18.8580  -23.1990  -62.2750 C.2    87  TYR87       0.2264
    109  O        -20.0250  -22.8560  -62.4610 O.2    87  TYR87      -0.2867
    110  CB       -18.0870  -23.5300  -59.9100 C.3    87  TYR87       0.0534
    111  CG       -17.3050  -22.9160  -58.7890 C.ar   87  TYR87      -0.0201
    112  CD1      -15.9090  -22.9110  -58.8100 C.ar   87  TYR87      -0.0009
    113  CD2      -17.9500  -22.2880  -57.7310 C.ar   87  TYR87      -0.0009
    114  CE1      -15.1790  -22.3180  -57.7900 C.ar   87  TYR87       0.0417
    115  CE2      -17.2280  -21.6950  -56.7080 C.ar   87  TYR87       0.0417
    116  CZ       -15.8440  -21.7080  -56.7390 C.ar   87  TYR87       0.1957
    117  OH       -15.1420  -21.1070  -55.7130 O.3    87  TYR87      -0.2866
    118  N        -19.5400  -28.4150  -60.0950 N.3    90  VAL90      -0.1245
    119  CA       -19.5990  -28.4400  -58.6430 C.3    90  VAL90       0.1561
    120  C        -19.8670  -29.8370  -58.1430 C.2    90  VAL90       0.2260
    121  O        -20.9400  -30.3870  -58.3820 O.2    90  VAL90      -0.2867
    122  CB       -20.6400  -27.4590  -58.0730 C.3    90  VAL90       0.0252
    123  CG1      -20.7620  -27.6260  -56.5650 C.3    90  VAL90       0.0019
    124  CG2      -20.2370  -26.0310  -58.3830 C.3    90  VAL90       0.0019
    125  N        -20.0920  -31.5870  -54.5960 N.3    92  PHE92      -0.1227
    126  CA       -20.1970  -31.1020  -53.2350 C.3    92  PHE92       0.1736
    127  C        -20.9770  -32.0000  -52.3000 C.2    92  PHE92       0.2595
    128  O        -22.0690  -32.4570  -52.6290 O.2    92  PHE92      -0.2718
    129  CB       -20.7870  -29.6950  -53.2240 C.3    92  PHE92       0.0547
    130  CG       -20.7270  -29.0440  -51.8820 C.ar   92  PHE92      -0.0202
    131  CD1      -19.5070  -28.7040  -51.3140 C.ar   92  PHE92      -0.0042
    132  CD2      -21.8850  -28.7900  -51.1630 C.ar   92  PHE92      -0.0042
    133  CE1      -19.4500  -28.1090  -50.0530 C.ar   92  PHE92      -0.0003
    134  CE2      -21.8370  -28.1970  -49.9010 C.ar   92  PHE92      -0.0003
    135  CZ       -20.6170  -27.8530  -49.3450 C.ar   92  PHE92      -0.0000
    136  N        -20.3960  -32.2180  -51.1210 N.am   93  GLU93      -0.1979
    137  CA       -20.8840  -33.1820  -50.1370 C.3    93  GLU93       0.1602
    138  C        -21.4110  -34.4120  -50.8530 C.2    93  GLU93       0.2287
    139  O        -22.5220  -34.8610  -50.6290 O.2    93  GLU93      -0.2864
    140  CB       -21.9050  -32.5490  -49.1850 C.3    93  GLU93       0.0415
    141  CG       -21.2870  -31.5690  -48.1900 C.3    93  GLU93       0.1163
    142  CD       -22.2760  -30.9740  -47.1910 C.2    93  GLU93       0.3649
    143  OE1      -21.9470  -30.9340  -45.9890 O.co2  93  GLU93      -0.2457
    144  OE2      -23.3750  -30.5260  -47.5870 O.co2  93  GLU93      -0.2457
    145  N        -15.1950  -26.5140  -58.4370 N.3   114  ARG114     -0.1245
    146  CA       -15.2900  -26.5790  -56.9690 C.3   114  ARG114      0.1563
    147  C        -15.7440  -27.9570  -56.5040 C.2   114  ARG114      0.2260
    148  O        -16.9150  -28.3180  -56.6270 O.2   114  ARG114     -0.2867
    149  CB       -16.2180  -25.5030  -56.4070 C.3   114  ARG114      0.0307
    150  CG       -16.3510  -25.5290  -54.8940 C.3   114  ARG114      0.0489
    151  CD       -16.3530  -24.1100  -54.3850 C.3   114  ARG114      0.2205
    152  NE       -16.3580  -24.0100  -52.9320 N.pl3 114  ARG114     -0.0865
    153  CZ       -15.9960  -22.9170  -52.2520 C.cat 114  ARG114      0.5346
    154  NH1      -15.5820  -21.8250  -52.8920 N.pl3 114  ARG114      0.1354
    155  NH2      -16.0440  -22.9080  -50.9220 N.pl3 114  ARG114      0.1354
    156  N        -15.6530  -30.1180  -53.1700 N.3   116  GLU116     -0.1231
    157  CA       -15.4580  -29.8870  -51.7340 C.3   116  GLU116      0.1699
    158  C        -16.2620  -30.8410  -50.8580 C.2   116  GLU116      0.2592
    159  O        -17.3550  -31.2640  -51.2390 O.2   116  GLU116     -0.2718
    160  CB       -15.7950  -28.4210  -51.3850 C.3   116  GLU116      0.0402
    161  CG       -15.6940  -28.0470  -49.9030 C.3   116  GLU116      0.1161
    162  CD       -15.5970  -26.5360  -49.6570 C.2   116  GLU116      0.3649
    163  OE1      -15.8580  -25.7430  -50.5920 O.co2 116  GLU116     -0.2457
    164  OE2      -15.2610  -26.1300  -48.5200 O.co2 116  GLU116     -0.2457
    165  N        -15.7040  -31.1650  -49.6900 N.am  117  LYS117     -0.1980
    166  CA       -16.3810  -31.9600  -48.6500 C.3   117  LYS117      0.1596
    167  C        -16.8110  -33.3340  -49.1430 C.2   117  LYS117      0.2287
    168  O        -17.9000  -33.8240  -48.8290 O.2   117  LYS117     -0.2864
    169  CB       -17.5590  -31.1980  -48.0190 C.3   117  LYS117      0.0298
    170  CG       -17.1510  -30.0700  -47.0800 C.3   117  LYS117      0.0038
    171  CD       -18.3560  -29.2830  -46.5800 C.3   117  LYS117      0.0206
    172  CE       -17.9990  -27.8440  -46.2180 C.3   117  LYS117      0.1093
    173  NZ       -17.3260  -27.7090  -44.8960 N.3   117  LYS117     -0.1314
@<TRIPOS>BOND
     1    45    46    1
     2    46    47    1
     3    46    49    1
     4    48    47    2
     5    83    81    1
     6    81    82    1
     7    81    80    1
     8    76    77    1
     9    49    50    1
    10    52    50   ar
    11    52    54   ar
    12    77    80    1
    13    77    78    1
    14    50    51   ar
    15     1     2    1
    16    54    55   ar
    17    51    53   ar
    18    20    21    1
    19    78    79    2
    20    78    84   am
    21    55    53   ar
    22    55    56    1
    23   109   108    2
    24   108   107    1
    25     2     5    1
    26     2     3    1
    27    84    85    1
    28    57    58    1
    29     5     6    1
    30     3     4    2
    31    21    22    1
    32    21    24    1
    33   107   106    1
    34   107   110    1
    35    25    24    1
    36    25    26    1
    37    23    22    2
    38    85    88    1
    39    85    86    1
    40    26    27    2
    41    26    28   am
    42    98    97    2
    43    58    61    1
    44    58    59    1
    45    88    89    1
    46   118   119    1
    47     6     8   ar
    48     6     7   ar
    49    61    62    1
    50   110   111    1
    51    60    59    2
    52    86    87    2
    53    86    95   am
    54    97    96    1
    55    90    89   ar
    56    90    92   ar
    57    89    91   ar
    58    95    96    1
    59   112   111   ar
    60   112   114   ar
    61   111   113   ar
    62   119   120    1
    63   119   122    1
    64     9    10    1
    65    62    64    1
    66    62    63    1
    67   145   146    1
    68   124   122    1
    69   121   120    2
    70    96    99    1
    71   122   123    1
    72    92    94   ar
    73    91    93   ar
    74   114   116   ar
    75   113   115   ar
    76    29    30    1
    77    12    11    2
    78    10    11    1
    79    10    13    1
    80    14    15    1
    81    14    13    1
    82    99   100    1
    83   146   147    1
    84   146   149    1
    85    36    34    1
    86    16    15    1
    87    16    17    2
    88    94    93   ar
    89   116   115   ar
    90   116   117    1
    91   148   147    2
    92   102   100   ar
    93   102   104   ar
    94   149   150    1
    95   100   101   ar
    96    34    33    1
    97    34    35    1
    98    30    33    1
    99    30    31    1
   100    19    17    1
   101    65    66    1
   102    17    18    1
   103   104   105   ar
   104    32    31    2
   105   101   103   ar
   106    31    37   am
   107   150   151    1
   108   105   103   ar
   109   125   126    1
   110    66    69    1
   111    66    67    1
   112    69    70    1
   113   151   152    1
   114    68    67    2
   115    37    38    1
   116   126   129    1
   117   126   127    1
   118    40    39    2
   119   129   130    1
   120   156   157    1
   121    70    72   ar
   122    70    71   ar
   123    39    38    1
   124   152   153    2
   125   154   153    1
   126    72    74   ar
   127    38    41    1
   128   128   127    2
   129    41    42    1
   130   127   136   am
   131   153   155    1
   132    71    73   ar
   133    42    43    1
   134    42    44    1
   135   130   131   ar
   136   130   132   ar
   137   157   160    1
   138   157   158    1
   139    74    75   ar
   140   160   161    1
   141   131   133   ar
   142   159   158    2
   143   132   134   ar
   144   136   137    1
   145   158   165   am
   146   138   139    2
   147   138   137    1
   148    73    75   ar
   149   163   162   ar
   150   137   140    1
   151   133   135   ar
   152   161   162    1
   153   134   135   ar
   154   165   166    1
   155   162   164   ar
   156   140   141    1
   157   167   168    2
   158   167   166    1
   159   166   169    1
   160   141   142    1
   161   169   170    1
   162   144   142   ar
   163   142   143   ar
   164   170   171    1
   165   171   172    1
   166   172   173    1
