@<TRIPOS>MOLECULE
tmp/3w18B00.pdb
 210 199 0 0 0
SMALL
GASTEIGER

@<TRIPOS>ATOM
      1  N        -19.9470    9.0170   35.4610 N.3    12  ARG12      -0.1245
      2  CA       -18.7980    9.0880   34.6040 C.3    12  ARG12       0.1563
      3  C        -19.1490    9.6520   33.2180 C.2    12  ARG12       0.2260
      4  O        -20.2720    9.4780   32.7310 O.2    12  ARG12      -0.2867
      5  CB       -18.1920    7.7010   34.4550 C.3    12  ARG12       0.0307
      6  CG       -18.9960    6.7600   33.5050 C.3    12  ARG12       0.0489
      7  CD       -18.2410    5.4590   33.1050 C.3    12  ARG12       0.2205
      8  NE       -19.1150    4.3230   33.4040 N.pl3  12  ARG12      -0.0865
      9  CZ       -19.6710    3.5090   32.5070 C.cat  12  ARG12       0.5346
     10  NH1      -19.4030    3.6470   31.2100 N.pl3  12  ARG12       0.1354
     11  NH2      -20.4710    2.5290   32.9170 N.pl3  12  ARG12       0.1354
     12  N        -19.4500    9.0280   29.6260 N.3    14  LEU14      -0.1231
     13  CA       -19.6440    7.7230   28.9820 C.3    14  LEU14       0.1693
     14  C        -18.6870    7.4830   27.8310 C.2    14  LEU14       0.2592
     15  O        -18.2210    6.3570   27.6530 O.2    14  LEU14      -0.2718
     16  CB       -21.0940    7.4990   28.5260 C.3    14  LEU14       0.0284
     17  CG       -22.1190    7.2200   29.6490 C.3    14  LEU14       0.0019
     18  CD1      -23.5490    7.1660   29.1170 C.3    14  LEU14       0.0001
     19  CD2      -21.7970    5.9350   30.3580 C.3    14  LEU14       0.0001
     20  N        -18.3990    8.5290   27.0520 N.am   15  GLY15      -0.1957
     21  CA       -17.4020    8.4400   25.9900 C.3    15  GLY15       0.1869
     22  C        -16.6850    9.7470   25.7190 C.2    15  GLY15       0.2309
     23  O        -16.3670   10.4860   26.6400 O.2    15  GLY15      -0.2863
     24  N        -20.2940   13.5450   19.7270 N.3    19  PHE19      -0.1227
     25  CA       -21.2560   12.4960   19.9820 C.3    19  PHE19       0.1736
     26  C        -21.0910   11.8880   21.3910 C.2    19  PHE19       0.2596
     27  O        -21.9390   12.0860   22.2720 O.2    19  PHE19      -0.2718
     28  CB       -21.1450   11.3980   18.9360 C.3    19  PHE19       0.0547
     29  CG       -22.1060   10.2850   19.1620 C.ar   19  PHE19      -0.0202
     30  CD1      -23.4570   10.4640   18.9050 C.ar   19  PHE19      -0.0042
     31  CD2      -21.6790    9.0750   19.6750 C.ar   19  PHE19      -0.0042
     32  CE1      -24.3580    9.4490   19.1320 C.ar   19  PHE19      -0.0003
     33  CE2      -22.5880    8.0290   19.9020 C.ar   19  PHE19      -0.0003
     34  CZ       -23.9150    8.2210   19.6380 C.ar   19  PHE19      -0.0000
     35  N        -19.9890   11.1560   21.5830 N.am   20  GLY20      -0.1957
     36  CA       -19.7440   10.3710   22.7900 C.3    20  GLY20       0.1869
     37  C        -19.5810   11.0880   24.1210 C.2    20  GLY20       0.2309
     38  O        -19.7390   10.4480   25.1570 O.2    20  GLY20      -0.2863
     39  N        -20.9520   12.3220   26.6740 N.3    22  VAL22      -0.1245
     40  CA       -22.1650   12.4360   27.4780 C.3    22  VAL22       0.1561
     41  C        -21.9450   11.7470   28.8030 C.2    22  VAL22       0.2260
     42  O        -21.0900   10.8700   28.9220 O.2    22  VAL22      -0.2867
     43  CB       -23.4460   11.9190   26.7340 C.3    22  VAL22       0.0252
     44  CG1      -23.4600   12.4370   25.2960 C.3    22  VAL22       0.0019
     45  CG2      -23.5240   10.3890   26.7400 C.3    22  VAL22       0.0019
     46  N        -28.7280    9.9100   30.4890 N.3    35  ALA35      -0.1245
     47  CA       -27.5020   10.5090   30.0700 C.3    35  ALA35       0.1562
     48  C        -27.7230   11.9900   29.8590 C.2    35  ALA35       0.2260
     49  O        -28.8000   12.4170   29.4170 O.2    35  ALA35      -0.2867
     50  CB       -27.0330    9.8710   28.7790 C.3    35  ALA35       0.0290
     51  N        -26.0110   15.3470   27.9920 N.3    37  LYS37      -0.1245
     52  CA       -25.0340   15.9840   27.1740 C.3    37  LYS37       0.1561
     53  C        -25.0230   17.4590   27.4840 C.2    37  LYS37       0.2260
     54  O        -26.0750   18.1060   27.4900 O.2    37  LYS37      -0.2867
     55  CB       -25.3010   15.7710   25.7100 C.3    37  LYS37       0.0271
     56  CG       -24.2000   16.3930   24.8510 C.3    37  LYS37       0.0035
     57  CD       -24.5270   16.1950   23.4070 C.3    37  LYS37       0.0206
     58  CE       -23.2860   16.1280   22.6250 C.3    37  LYS37       0.1093
     59  NZ       -23.5880   15.3900   21.3940 N.3    37  LYS37      -0.1314
     60  N        -35.2340   20.3400   17.9160 N.3    46  VAL46      -0.1245
     61  CA       -35.0560   19.8500   19.2840 C.3    46  VAL46       0.1561
     62  C        -36.3750   19.3860   19.9720 C.2    46  VAL46       0.2260
     63  O        -36.4070   18.3480   20.6360 O.2    46  VAL46      -0.2867
     64  CB       -34.1790   20.8500   20.1420 C.3    46  VAL46       0.0252
     65  CG1      -34.7280   22.3250   20.1120 C.3    46  VAL46       0.0019
     66  CG2      -33.9450   20.3300   21.5620 C.3    46  VAL46       0.0019
     67  N        -37.1870   16.5970   17.6860 N.3    49  GLN49      -0.1245
     68  CA       -36.4370   15.3830   18.0040 C.3    49  GLN49       0.1566
     69  C        -37.0270   14.6820   19.2270 C.2    49  GLN49       0.2260
     70  O        -36.9890   13.4600   19.3150 O.2    49  GLN49      -0.2867
     71  CB       -34.9290   15.6770   18.1280 C.3    49  GLN49       0.0367
     72  CG       -34.2310   15.8520   16.7560 C.3    49  GLN49       0.0905
     73  CD       -33.2470   17.0450   16.6670 C.2    49  GLN49       0.2608
     74  OE1      -32.2850   17.1360   17.4410 O.2    49  GLN49      -0.2717
     75  NE2      -33.4810   17.9490   15.6970 N.am   49  GLN49      -0.0878
     76  N        -34.8190    4.0390   17.8570 N.3    57  ILE57      -0.1231
     77  CA       -34.3220    5.3910   17.8930 C.3    57  ILE57       0.1692
     78  C        -34.2340    5.8560   19.3350 C.2    57  ILE57       0.2591
     79  O        -35.2190    5.8170   20.0890 O.2    57  ILE57      -0.2718
     80  CB       -35.1930    6.3620   17.0580 C.3    57  ILE57       0.0266
     81  CG1      -35.0350    6.0500   15.5700 C.3    57  ILE57       0.0019
     82  CG2      -34.7690    7.7820   17.3420 C.3    57  ILE57       0.0020
     83  CD1      -35.9440    6.8130   14.6740 C.3    57  ILE57       0.0001
     84  N        -33.0300    6.2750   19.7010 N.am   58  LEU58      -0.1980
     85  CA       -32.6790    6.7620   21.0230 C.3    58  LEU58       0.1596
     86  C        -33.5300    8.0050   21.3480 C.2    58  LEU58       0.2287
     87  O        -33.6860    8.9160   20.5090 O.2    58  LEU58      -0.2864
     88  CB       -31.2060    7.0860   21.0050 C.3    58  LEU58       0.0297
     89  CG       -30.2430    7.0430   22.1880 C.3    58  LEU58       0.0022
     90  CD1      -30.1980    8.3860   22.8910 C.3    58  LEU58       0.0001
     91  CD2      -30.4540    5.8590   23.1500 C.3    58  LEU58       0.0001
     92  N        -34.5340   11.4340   22.8430 N.3    60  LEU60      -0.1245
     93  CA       -34.2250   12.6740   23.4930 C.3    60  LEU60       0.1561
     94  C        -35.4430   12.9760   24.3210 C.2    60  LEU60       0.2260
     95  O        -36.4830   13.3070   23.7590 O.2    60  LEU60      -0.2867
     96  CB       -34.0550   13.8130   22.4970 C.3    60  LEU60       0.0270
     97  CG       -33.9180   15.1440   23.2740 C.3    60  LEU60       0.0019
     98  CD1      -32.5160   15.1980   23.8660 C.3    60  LEU60       0.0001
     99  CD2      -34.2260   16.3910   22.4340 C.3    60  LEU60       0.0001
    100  N        -28.9410   18.4560   27.5170 N.3    72  LEU72      -0.1245
    101  CA       -29.9400   17.6680   26.8350 C.3    72  LEU72       0.1561
    102  C        -30.1780   16.3980   27.6310 C.2    72  LEU72       0.2260
    103  O        -29.2470   15.8150   28.1160 O.2    72  LEU72      -0.2867
    104  CB       -29.4810   17.3490   25.4170 C.3    72  LEU72       0.0270
    105  CG       -29.0230   18.4730   24.4690 C.3    72  LEU72       0.0019
    106  CD1      -28.2900   17.8970   23.2560 C.3    72  LEU72       0.0001
    107  CD2      -30.1810   19.4270   24.0110 C.3    72  LEU72       0.0001
    108  N        -31.1770   12.6380   27.6460 N.3    74  LEU74      -0.1231
    109  CA       -31.1750   11.5920   26.6450 C.3    74  LEU74       0.1693
    110  C        -31.2940   10.2050   27.2340 C.2    74  LEU74       0.2592
    111  O        -30.7250    9.9160   28.2970 O.2    74  LEU74      -0.2718
    112  CB       -29.8540   11.6240   25.8950 C.3    74  LEU74       0.0284
    113  CG       -29.5790   12.8150   25.0250 C.3    74  LEU74       0.0019
    114  CD1      -28.0670   13.0450   25.0260 C.3    74  LEU74       0.0001
    115  CD2      -30.1250   12.4730   23.6320 C.3    74  LEU74       0.0001
    116  N        -31.9650    9.3250   26.4900 N.am   75  GLU75      -0.1966
    117  CA       -31.9240    7.9070   26.7920 C.3    75  GLU75       0.1733
    118  C        -30.5040    7.4550   27.0040 C.2    75  GLU75       0.2616
    119  O        -29.5990    7.7950   26.2310 O.2    75  GLU75      -0.2715
    120  CB       -32.5620    7.0760   25.6670 C.3    75  GLU75       0.0429
    121  CG       -32.7150    5.5570   26.0030 C.3    75  GLU75       0.1163
    122  CD       -33.4480    4.7380   24.9180 C.2    75  GLU75       0.3649
    123  OE1      -33.4140    3.4810   24.9840 O.co2  75  GLU75      -0.2457
    124  OE2      -34.0510    5.3340   24.0060 O.co2  75  GLU75      -0.2457
    125  N        -30.3110    6.6560   28.0460 N.am   76  TYR76      -0.1960
    126  CA       -29.0510    5.9440   28.2350 C.3    76  TYR76       0.1771
    127  C        -29.1210    4.5720   27.6050 C.2    76  TYR76       0.2619
    128  O        -30.0720    3.8500   27.8180 O.2    76  TYR76      -0.2715
    129  CB       -28.7860    5.7810   29.7070 C.3    76  TYR76       0.0574
    130  CG       -27.7640    4.7390   30.0710 C.ar   76  TYR76      -0.0198
    131  CD1      -26.4350    4.8870   29.7370 C.ar   76  TYR76      -0.0009
    132  CD2      -28.1130    3.6620   30.8380 C.ar   76  TYR76      -0.0009
    133  CE1      -25.4890    3.9480   30.1140 C.ar   76  TYR76       0.0417
    134  CE2      -27.1600    2.7270   31.2320 C.ar   76  TYR76       0.0417
    135  CZ       -25.8730    2.8840   30.8530 C.ar   76  TYR76       0.1957
    136  OH       -24.9500    1.9660   31.2510 O.3    76  TYR76      -0.2866
    137  N        -28.0960    4.2090   26.8550 N.am   77  ALA77      -0.1964
    138  CA       -28.0210    2.9180   26.2520 C.3    77  ALA77       0.1713
    139  C        -26.9440    2.1260   26.9480 C.2    77  ALA77       0.2458
    140  O        -25.7750    2.4870   26.8630 O.2    77  ALA77      -0.2730
    141  CB       -27.7500    3.0560   24.7840 C.3    77  ALA77       0.0333
    142  N        -27.3350    1.0360   27.6590 N.am   78  PRO78      -0.2716
    143  CA       -26.5070    0.2610   28.6040 C.3    78  PRO78       0.1536
    144  C        -25.3900   -0.5620   27.9910 C.2    78  PRO78       0.2598
    145  O        -24.3310   -0.7550   28.6220 O.2    78  PRO78      -0.2715
    146  CB       -27.5120   -0.7020   29.2340 C.3    78  PRO78       0.0310
    147  CG       -28.8180   -0.1010   28.9950 C.3    78  PRO78       0.0237
    148  CD       -28.7060    0.5030   27.6290 C.3    78  PRO78       0.0939
    149  N        -25.6200   -1.0600   26.7790 N.am   79  LEU79      -0.1964
    150  CA       -24.6510   -1.9580   26.1070 C.3    79  LEU79       0.1728
    151  C        -23.7290   -1.1890   25.1920 C.2    79  LEU79       0.2617
    152  O        -22.9840   -1.7680   24.4290 O.2    79  LEU79      -0.2715
    153  CB       -25.3760   -3.0740   25.3470 C.3    79  LEU79       0.0311
    154  CG       -25.5840   -4.3990   26.1050 C.3    79  LEU79       0.0022
    155  CD1      -25.4200   -4.2850   27.6180 C.3    79  LEU79       0.0001
    156  CD2      -26.9300   -5.0600   25.7620 C.3    79  LEU79       0.0001
    157  N        -23.7970    0.1320   25.2650 N.am   80  GLY80      -0.1940
    158  CA       -22.8660    0.9830   24.5320 C.3    80  GLY80       0.2014
    159  C        -23.0220    0.8890   23.0250 C.2    80  GLY80       0.2639
    160  O        -24.1230    0.6310   22.5120 O.2    80  GLY80      -0.2714
    161  N        -21.8940    1.0820   22.3410 N.am   81  THR81      -0.1950
    162  CA       -21.8750    1.3130   20.9060 C.3    81  THR81       0.1897
    163  C        -21.6490   -0.0020   20.1430 C.2    81  THR81       0.2313
    164  O        -20.9710   -0.9180   20.6630 O.2    81  THR81      -0.2863
    165  CB       -20.7530    2.2910   20.5140 C.3    81  THR81       0.1794
    166  OG1      -19.5050    1.7030   20.8510 O.3    81  THR81      -0.2208
    167  CG2      -20.8840    3.6650   21.2100 C.3    81  THR81       0.0378
    168  N        -17.9620   -0.5510   19.6380 N.3    84  ARG84      -0.1245
    169  CA       -17.2990   -1.2340   20.7440 C.3    84  ARG84       0.1563
    170  C        -17.5140   -2.7340   20.6830 C.2    84  ARG84       0.2260
    171  O        -16.5470   -3.4540   20.8120 O.2    84  ARG84      -0.2867
    172  CB       -17.7250   -0.6330   22.1000 C.3    84  ARG84       0.0307
    173  CG       -16.9340   -1.0930   23.3210 C.3    84  ARG84       0.0489
    174  CD       -15.4880   -0.6230   23.2590 C.3    84  ARG84       0.2205
    175  NE       -15.1720    0.4320   24.2340 N.pl3  84  ARG84      -0.0865
    176  CZ       -14.3350    1.4510   24.0010 C.cat  84  ARG84       0.5346
    177  NH1      -13.7240    1.5940   22.8180 N.pl3  84  ARG84       0.1354
    178  NH2      -14.1120    2.3430   24.9540 N.pl3  84  ARG84       0.1354
    179  N        -25.9950    2.5990   19.0140 N.3   127  LEU127     -0.1245
    180  CA       -26.0630    2.2890   20.4370 C.3   127  LEU127      0.1561
    181  C        -26.9310    1.0840   20.5840 C.2   127  LEU127      0.2260
    182  O        -27.7580    0.8160   19.7150 O.2   127  LEU127     -0.2867
    183  CB       -26.6440    3.4690   21.2350 C.3   127  LEU127      0.0270
    184  CG       -25.8380    4.7780   21.2540 C.3   127  LEU127      0.0019
    185  CD1      -26.6510    5.9280   21.8770 C.3   127  LEU127      0.0001
    186  CD2      -24.5100    4.5930   21.9850 C.3   127  LEU127      0.0001
    187  N        -29.0290    7.5830   17.0710 N.3   137  ALA137     -0.1231
    188  CA       -29.0570    8.6000   18.1280 C.3   137  ALA137      0.1694
    189  C        -28.7180   10.0130   17.6580 C.2   137  ALA137      0.2592
    190  O        -29.0960   11.0180   18.2990 O.2   137  ALA137     -0.2718
    191  CB       -28.1140    8.1950   19.2390 C.3   137  ALA137      0.0304
    192  N        -28.0150   10.0970   16.5420 N.am  138  ASP138     -0.1960
    193  CA       -27.3340   11.3240   16.2300 C.3   138  ASP138      0.1840
    194  C        -28.0960   12.1690   15.2450 C.2   138  ASP138      0.2622
    195  O        -28.1640   11.8200   14.0660 O.2   138  ASP138     -0.2715
    196  CB       -25.9520   11.0110   15.6870 C.3   138  ASP138      0.1450
    197  CG       -25.0460   12.1840   15.7640 C.2   138  ASP138      0.3671
    198  OD1      -24.3780   12.3250   16.8040 O.co2 138  ASP138     -0.2456
    199  OD2      -25.0220   12.9830   14.8070 O.co2 138  ASP138     -0.2456
    200  N        -28.6480   13.2830   15.7300 N.am  139  PHE139     -0.1974
    201  CA       -29.4640   14.1830   14.9090 C.3   139  PHE139      0.1639
    202  C        -30.0560   13.3990   13.7270 C.2   139  PHE139      0.2290
    203  O        -31.0710   12.6810   13.8870 O.2   139  PHE139     -0.2864
    204  CB       -28.6410   15.3980   14.4250 C.3   139  PHE139      0.0560
    205  CG       -28.1740   16.3710   15.5230 C.ar  139  PHE139     -0.0200
    206  CD1      -28.8480   16.4270   16.7240 C.ar  139  PHE139     -0.0042
    207  CD2      -27.1020   17.2160   15.2490 C.ar  139  PHE139     -0.0042
    208  CE1      -28.4210   17.3520   17.6540 C.ar  139  PHE139     -0.0003
    209  CE2      -26.6890   18.1340   16.1840 C.ar  139  PHE139     -0.0003
    210  CZ       -27.3670   18.1890   17.3910 C.ar  139  PHE139     -0.0000
@<TRIPOS>BOND
     1   202   203    2
     2   202   201    1
     3   195   194    2
     4   204   201    1
     5   204   205    1
     6    83    81    1
     7   199   197   ar
     8   201   200    1
     9   194   200   am
    10   194   193    1
    11   207   205   ar
    12   207   209   ar
    13   205   206   ar
    14    81    80    1
    15   196   197    1
    16   196   193    1
    17    75    73   am
    18   197   198   ar
    19   209   210   ar
    20   193   192    1
    21   192   189   am
    22    73    72    1
    23    73    74    2
    24   206   208   ar
    25    72    71    1
    26    80    82    1
    27    80    77    1
    28   187   188    1
    29   210   208   ar
    30   189   188    1
    31   189   190    2
    32    67    68    1
    33    76    77    1
    34    77    78    1
    35    60    61    1
    36    68    71    1
    37    68    69    1
    38   188   191    1
    39    30    32   ar
    40    30    29   ar
    41    28    29    1
    42    28    25    1
    43   179   180    1
    44    32    34   ar
    45    29    31   ar
    46    69    70    2
    47    61    62    1
    48    61    64    1
    49    78    84   am
    50    78    79    2
    51    34    33   ar
    52   168   169    1
    53    31    33   ar
    54    84    85    1
    55   182   181    2
    56    24    25    1
    57    62    63    2
    58    25    26    1
    59    65    64    1
    60    64    66    1
    61   163   164    2
    62   163   162    1
    63   180   181    1
    64   180   183    1
    65    87    86    2
    66   165   166    1
    67   165   162    1
    68   165   167    1
    69   170   169    1
    70   170   171    2
    71   169   172    1
    72   162   161    1
    73    88    85    1
    74    88    89    1
    75    85    86    1
    76   183   184    1
    77   184   185    1
    78   184   186    1
    79    26    35   am
    80    26    27    2
    81    59    58    1
    82    35    36    1
    83   172   173    1
    84    89    90    1
    85    89    91    1
    86   161   159   am
    87    99    97    1
    88    96    97    1
    89    96    93    1
    90   160   159    2
    91    58    57    1
    92    36    37    1
    93   177   176    1
    94    92    93    1
    95   159   158    1
    96   106   105    1
    97   174   173    1
    98   174   175    1
    99    97    98    1
   100    57    56    1
   101    93    94    1
   102   115   113    1
   103    95    94    2
   104   176   175    2
   105   176   178    1
   106   124   122   ar
   107   107   105    1
   108    37    38    2
   109   152   151    2
   110   105   104    1
   111   158   157    1
   112   141   138    1
   113    56    55    1
   114   122   123   ar
   115   122   121    1
   116   113   114    1
   117   113   112    1
   118   151   157   am
   119   151   150    1
   120    44    43    1
   121   153   154    1
   122   153   150    1
   123   104   101    1
   124   120   121    1
   125   120   117    1
   126    55    52    1
   127    22    21    1
   128    22    23    2
   129   156   154    1
   130   112   109    1
   131    21    20    1
   132   154   155    1
   133   150   149    1
   134   119   118    2
   135   138   137    1
   136   138   139    1
   137   116   117    1
   138   116   110   am
   139   109   110    1
   140   109   108    1
   141    39    40    1
   142    43    45    1
   143    43    40    1
   144   149   144   am
   145   117   118    1
   146   101   100    1
   147   101   102    1
   148   137   127   am
   149   140   139    2
   150   139   142   am
   151   118   125   am
   152    20    14   am
   153    52    53    1
   154    52    51    1
   155   110   111    2
   156    40    41    1
   157    53    54    2
   158   127   128    2
   159   127   126    1
   160   148   142    1
   161   148   147    1
   162   102   103    2
   163    15    14    2
   164   142   143    1
   165    14    13    1
   166   144   143    1
   167   144   145    2
   168   125   126    1
   169   126   129    1
   170    16    13    1
   171    16    17    1
   172   143   146    1
   173    50    47    1
   174    41    42    2
   175    13    12    1
   176   147   146    1
   177    18    17    1
   178    49    48    2
   179    17    19    1
   180   129   130    1
   181   131   130   ar
   182   131   133   ar
   183    48    47    1
   184    47    46    1
   185   130   132   ar
   186   133   135   ar
   187   132   134   ar
   188   135   134   ar
   189   135   136    1
   190    10     9    1
   191     9    11    1
   192     9     8    2
   193     4     3    2
   194     7     8    1
   195     7     6    1
   196     3     2    1
   197     6     5    1
   198     5     2    1
   199     2     1    1
