@<TRIPOS>MOLECULE
tmp/3w18A00.pdb
 190 178 0 0 0
SMALL
GASTEIGER

@<TRIPOS>ATOM
      1  N          1.6160  -16.8220   12.9470 N.3    12  ARG12      -0.1245
      2  CA         0.4840  -15.8960   12.7780 C.3    12  ARG12       0.1563
      3  C          0.9030  -14.4690   12.3630 C.2    12  ARG12       0.2260
      4  O          1.9950  -14.0590   12.6790 O.2    12  ARG12      -0.2867
      5  CB        -0.3460  -15.8410   14.0690 C.3    12  ARG12       0.0307
      6  CG         0.2600  -14.9870   15.1450 C.3    12  ARG12       0.0489
      7  CD        -0.4920  -15.1180   16.4920 C.3    12  ARG12       0.2205
      8  NE         0.4460  -15.1090   17.6270 N.pl3  12  ARG12      -0.0865
      9  CZ         0.8520  -13.9990   18.2240 C.cat  12  ARG12       0.5346
     10  NH1        0.3690  -12.8310   17.8310 N.pl3  12  ARG12       0.1354
     11  NH2        1.7200  -14.0550   19.2230 N.pl3  12  ARG12       0.1354
     12  N          1.1880  -10.4990   12.9230 N.3    14  LEU14      -0.1231
     13  CA         1.2600   -9.6850   14.1200 C.3    14  LEU14       0.1693
     14  C          0.7010   -8.3150   13.7630 C.2    14  LEU14       0.2592
     15  O         -0.3070   -7.8560   14.3290 O.2    14  LEU14      -0.2718
     16  CB         2.7000   -9.5860   14.6600 C.3    14  LEU14       0.0284
     17  CG         3.4660  -10.9040   14.8850 C.3    14  LEU14       0.0019
     18  CD1        4.9860  -10.6720   15.1360 C.3    14  LEU14       0.0001
     19  CD2        2.8740  -11.7870   15.9730 C.3    14  LEU14       0.0001
     20  N          1.3370   -7.6850   12.7800 N.am   15  GLY15      -0.1957
     21  CA         0.9360   -6.3550   12.3200 C.3    15  GLY15       0.1869
     22  C         -0.3360   -6.3850   11.4860 C.2    15  GLY15       0.2309
     23  O         -1.2870   -7.1690   11.7430 O.2    15  GLY15      -0.2863
     24  N          3.2220   -8.1670    9.0750 N.3    20  VAL20      -0.1245
     25  CA         4.3730   -8.8010    9.7210 C.3    20  VAL20       0.1561
     26  C          4.0120  -10.0600   10.5240 C.2    20  VAL20       0.2260
     27  O          2.9600  -10.1330   11.1820 O.2    20  VAL20      -0.2867
     28  CB         5.3110   -7.7880   10.4410 C.3    20  VAL20       0.0252
     29  CG1        4.6660   -6.4400   10.5520 C.3    20  VAL20       0.0019
     30  CG2        5.8240   -8.3210   11.8000 C.3    20  VAL20       0.0019
     31  N         10.5760  -11.6700   13.5230 N.3    33  ALA33      -0.1245
     32  CA         9.4100  -11.2050   12.7910 C.3    33  ALA33       0.1562
     33  C          9.8140  -10.9640   11.3550 C.2    33  ALA33       0.2260
     34  O         10.9100  -10.4520   11.1160 O.2    33  ALA33      -0.2867
     35  CB         8.8630   -9.9570   13.4050 C.3    33  ALA33       0.0290
     36  N          8.5940   -9.0220    8.0590 N.3    35  LYS35      -0.1245
     37  CA         7.7500   -8.0750    7.3370 C.3    35  LYS35       0.1561
     38  C          7.8310   -8.3590    5.8600 C.2    35  LYS35       0.2260
     39  O          8.9130   -8.2750    5.2730 O.2    35  LYS35      -0.2867
     40  CB         8.1880   -6.6200    7.5840 C.3    35  LYS35       0.0271
     41  CG         7.2680   -5.6240    6.9110 C.3    35  LYS35       0.0035
     42  CD         6.8830   -4.4650    7.7910 C.3    35  LYS35       0.0206
     43  CE         5.5520   -3.8980    7.3020 C.3    35  LYS35       0.1093
     44  NZ         5.1260   -2.6500    8.0120 N.3    35  LYS35      -0.1314
     45  N          6.8200   -6.9170    2.5680 N.3    37  LEU37      -0.1245
     46  CA         6.3410   -5.7660    1.7950 C.3    37  LEU37       0.1561
     47  C          6.1950   -6.1290    0.3170 C.2    37  LEU37       0.2260
     48  O          6.9150   -6.9810   -0.1960 O.2    37  LEU37      -0.2867
     49  CB         7.2800   -4.5580    1.9740 C.3    37  LEU37       0.0270
     50  CG         7.3780   -3.9940    3.4050 C.3    37  LEU37       0.0019
     51  CD1        8.7260   -3.3780    3.6460 C.3    37  LEU37       0.0001
     52  CD2        6.2630   -2.9940    3.7240 C.3    37  LEU37       0.0001
     53  N         17.9240    3.0100    3.1340 N.3    47  GLU47      -0.1231
     54  CA        17.1300    3.3150    4.3460 C.3    47  GLU47       0.1699
     55  C         16.9660    2.0760    5.2240 C.2    47  GLU47       0.2592
     56  O         16.8110    2.1670    6.4550 O.2    47  GLU47      -0.2718
     57  CB        15.7650    3.9450    4.0180 C.3    47  GLU47       0.0402
     58  CG        15.7650    5.0380    2.9320 C.3    47  GLU47       0.1161
     59  CD        17.0580    5.8800    2.8770 C.2    47  GLU47       0.3649
     60  OE1       18.1020    5.3520    2.4270 O.co2  47  GLU47      -0.2457
     61  OE2       17.0320    7.0750    3.2590 O.co2  47  GLU47      -0.2457
     62  N         16.9870    0.9250    4.5550 N.am   48  VAL48      -0.1980
     63  CA        17.2280   -0.3710    5.1700 C.3    48  VAL48       0.1595
     64  C         18.7450   -0.5280    5.4140 C.2    48  VAL48       0.2287
     65  O         19.1970   -1.4730    6.0710 O.2    48  VAL48      -0.2864
     66  CB        16.6010   -1.5130    4.2880 C.3    48  VAL48       0.0276
     67  CG1       17.4030   -2.7790    4.3190 C.3    48  VAL48       0.0022
     68  CG2       15.1720   -1.7900    4.7180 C.3    48  VAL48       0.0022
     69  N         19.2000    1.6280    8.7160 N.3    51  GLN51      -0.1245
     70  CA        18.6720    0.7900    9.7670 C.3    51  GLN51       0.1566
     71  C         19.6600   -0.2920   10.2190 C.2    51  GLN51       0.2260
     72  O         19.7270   -0.6190   11.4140 O.2    51  GLN51      -0.2867
     73  CB        17.3520    0.1830    9.3230 C.3    51  GLN51       0.0367
     74  CG        16.4280   -0.1770   10.4820 C.3    51  GLN51       0.0905
     75  CD        15.9190    1.0320   11.2730 C.2    51  GLN51       0.2608
     76  OE1       15.6380    0.9320   12.4740 O.2    51  GLN51      -0.2717
     77  NE2       15.7940    2.1730   10.6000 N.am   51  GLN51      -0.0878
     78  N         16.0650    0.4730   19.9320 N.3    59  ILE59      -0.1231
     79  CA        15.6050    0.4580   18.5700 C.3    59  ILE59       0.1692
     80  C         15.4320   -0.9980   18.1460 C.2    59  ILE59       0.2591
     81  O         16.3030   -1.8270   18.4290 O.2    59  ILE59      -0.2718
     82  CB        16.5930    1.1560   17.6640 C.3    59  ILE59       0.0266
     83  CG1       16.8050    2.5860   18.1560 C.3    59  ILE59       0.0019
     84  CG2       16.0620    1.1620   16.2150 C.3    59  ILE59       0.0020
     85  CD1       17.5740    3.4740   17.2130 C.3    59  ILE59       0.0001
     86  N         14.3140   -1.3210   17.4920 N.am   60  LEU60      -0.1980
     87  CA        14.1640   -2.6470   16.8580 C.3    60  LEU60       0.1596
     88  C         15.3300   -2.8960   15.9350 C.2    60  LEU60       0.2287
     89  O         15.5920   -2.1110   15.0500 O.2    60  LEU60      -0.2864
     90  CB        12.8730   -2.7740   16.0300 C.3    60  LEU60       0.0297
     91  CG        11.6490   -3.4680   16.6310 C.3    60  LEU60       0.0022
     92  CD1       10.9270   -4.1810   15.5010 C.3    60  LEU60       0.0001
     93  CD2       11.9800   -4.4270   17.7880 C.3    60  LEU60       0.0001
     94  N         17.2250   -4.7000   12.8670 N.3    62  LEU62      -0.1245
     95  CA        16.9840   -5.3280   11.5870 C.3    62  LEU62       0.1561
     96  C         18.0930   -6.3720   11.3880 C.2    62  LEU62       0.2260
     97  O         19.2540   -6.0090   11.2570 O.2    62  LEU62      -0.2867
     98  CB        16.9960   -4.2860   10.4680 C.3    62  LEU62       0.0270
     99  CG        16.7910   -4.8030    9.0210 C.3    62  LEU62       0.0019
    100  CD1       15.5140   -5.6190    8.9160 C.3    62  LEU62       0.0001
    101  CD2       16.8110   -3.6850    7.9840 C.3    62  LEU62       0.0001
    102  N         11.6930   -8.1380    5.4420 N.3    74  LEU74      -0.1245
    103  CA        12.6080   -7.6500    6.4710 C.3    74  LEU74       0.1561
    104  C         12.6060   -8.6000    7.6500 C.2    74  LEU74       0.2260
    105  O         11.5380   -9.0180    8.1300 O.2    74  LEU74      -0.2867
    106  CB        12.2370   -6.2310    6.9250 C.3    74  LEU74       0.0270
    107  CG        11.9020   -5.2280    5.8320 C.3    74  LEU74       0.0019
    108  CD1       11.6160   -3.9040    6.4830 C.3    74  LEU74       0.0001
    109  CD2       13.0400   -5.0730    4.8660 C.3    74  LEU74       0.0001
    110  N         13.2420   -9.0930   11.2770 N.3    76  LEU76      -0.1231
    111  CA        13.2570   -8.1470   12.3860 C.3    76  LEU76       0.1693
    112  C         13.2330   -8.7820   13.7340 C.2    76  LEU76       0.2592
    113  O         12.5880   -9.7880   13.9270 O.2    76  LEU76      -0.2718
    114  CB        12.0430   -7.2120   12.2800 C.3    76  LEU76       0.0284
    115  CG        12.0060   -6.2130   11.1490 C.3    76  LEU76       0.0019
    116  CD1       10.5130   -5.9230   10.7260 C.3    76  LEU76       0.0001
    117  CD2       12.7680   -4.8880   11.5340 C.3    76  LEU76       0.0001
    118  N         13.8760   -8.1470   14.6940 N.am   77  GLU77      -0.1966
    119  CA        13.6240   -8.4060   16.0960 C.3    77  GLU77       0.1733
    120  C         12.1250   -8.5520   16.4090 C.2    77  GLU77       0.2616
    121  O         11.3010   -7.7420   15.9500 O.2    77  GLU77      -0.2715
    122  CB        14.2140   -7.2730   16.9010 C.3    77  GLU77       0.0429
    123  CG        14.1950   -7.4920   18.3820 C.3    77  GLU77       0.1163
    124  CD        15.0320   -6.4590   19.1670 C.2    77  GLU77       0.3649
    125  OE1       14.9990   -6.5400   20.4170 O.co2  77  GLU77      -0.2457
    126  OE2       15.6920   -5.5730   18.5570 O.co2  77  GLU77      -0.2457
    127  N         11.7840   -9.6050   17.1730 N.am   78  TYR78      -0.1960
    128  CA        10.4090   -9.8780   17.5940 C.3    78  TYR78       0.1771
    129  C         10.3090   -9.3810   19.0020 C.2    78  TYR78       0.2619
    130  O         11.0720   -9.8300   19.8700 O.2    78  TYR78      -0.2715
    131  CB        10.1250  -11.3910   17.5850 C.3    78  TYR78       0.0574
    132  CG         8.9140  -11.8680   18.4060 C.ar   78  TYR78      -0.0198
    133  CD1        7.6060  -11.5110   18.0490 C.ar   78  TYR78      -0.0009
    134  CD2        9.0820  -12.7280   19.5020 C.ar   78  TYR78      -0.0009
    135  CE1        6.5020  -11.9560   18.7750 C.ar   78  TYR78       0.0417
    136  CE2        7.9630  -13.2030   20.2470 C.ar   78  TYR78       0.0417
    137  CZ         6.6890  -12.7910   19.8870 C.ar   78  TYR78       0.1957
    138  OH         5.5810  -13.2490   20.5900 O.3    78  TYR78      -0.2866
    139  N          9.3820   -8.4630   19.2290 N.am   79  ALA79      -0.1964
    140  CA         9.1690   -7.8680   20.5450 C.3    79  ALA79       0.1713
    141  C          8.1100   -8.7050   21.2160 C.2    79  ALA79       0.2458
    142  O          6.9460   -8.6200   20.8350 O.2    79  ALA79      -0.2730
    143  CB         8.6860   -6.4830   20.4000 C.3    79  ALA79       0.0333
    144  N          8.5070   -9.5260   22.2070 N.am   80  PRO80      -0.2716
    145  CA         7.5690  -10.4930   22.7830 C.3    80  PRO80       0.1536
    146  C          6.3720   -9.8710   23.4730 C.2    80  PRO80       0.2598
    147  O          5.2880  -10.4340   23.4100 O.2    80  PRO80      -0.2715
    148  CB         8.4260  -11.2750   23.7970 C.3    80  PRO80       0.0310
    149  CG         9.7810  -10.9880   23.4440 C.3    80  PRO80       0.0237
    150  CD         9.8180   -9.6180   22.8630 C.3    80  PRO80       0.0939
    151  N          6.5450   -8.7060   24.0860 N.am   81  LEU81      -0.1964
    152  CA         5.4530   -8.0860   24.8300 C.3    81  LEU81       0.1728
    153  C          4.4920   -7.2040   24.0320 C.2    81  LEU81       0.2617
    154  O          3.5560   -6.6440   24.6220 O.2    81  LEU81      -0.2715
    155  CB         5.9980   -7.3600   26.0610 C.3    81  LEU81       0.0311
    156  CG         5.8660   -8.1400   27.3870 C.3    81  LEU81       0.0022
    157  CD1        5.9560   -9.6550   27.2010 C.3    81  LEU81       0.0001
    158  CD2        6.8810   -7.6770   28.4040 C.3    81  LEU81       0.0001
    159  N          4.6600   -7.1000   22.7120 N.am   82  GLY82      -0.1940
    160  CA         3.6790   -6.3500   21.9080 C.3    82  GLY82       0.2014
    161  C          3.8060   -4.8260   21.8310 C.2    82  GLY82       0.2639
    162  O          4.8620   -4.2830   22.1220 O.2    82  GLY82      -0.2714
    163  N          2.7350   -4.1520   21.3840 N.am   83  THR83      -0.1950
    164  CA         2.7630   -2.7000   21.2020 C.3    83  THR83       0.1897
    165  C          2.4040   -1.8980   22.4610 C.2    83  THR83       0.2313
    166  O          1.6310   -2.3480   23.2900 O.2    83  THR83      -0.2863
    167  CB         1.8680   -2.1730   20.0430 C.3    83  THR83       0.1794
    168  OG1        0.5010   -2.3810   20.3620 O.3    83  THR83      -0.2208
    169  CG2        2.2330   -2.8200   18.6700 C.3    83  THR83       0.0378
    170  N          7.2840   -0.7290   20.5050 N.3   129  LEU129     -0.1245
    171  CA         7.1450   -2.1090   20.9040 C.3   129  LEU129      0.1561
    172  C          7.8370   -2.3870   22.2010 C.2   129  LEU129      0.2260
    173  O          8.5390   -1.5280   22.7150 O.2   129  LEU129     -0.2867
    174  CB         7.6160   -3.0660   19.8270 C.3   129  LEU129      0.0270
    175  CG         6.8290   -2.9740   18.5610 C.3   129  LEU129      0.0019
    176  CD1        7.8140   -3.5800   17.5330 C.3   129  LEU129      0.0001
    177  CD2        5.5360   -3.7780   18.6510 C.3   129  LEU129      0.0001
    178  N         11.7290    1.2100   19.5330 N.3   138  ILE138     -0.1231
    179  CA        11.2690    2.0400   18.4180 C.3   138  ILE138      0.1692
    180  C         11.2580    1.2800   17.0930 C.2   138  ILE138      0.2591
    181  O         12.1940    0.5370   16.7950 O.2   138  ILE138     -0.2718
    182  CB        12.1280    3.3240   18.2980 C.3   138  ILE138      0.0266
    183  CG1       12.0070    4.1450   19.5830 C.3   138  ILE138      0.0019
    184  CG2       11.6480    4.1990   17.1630 C.3   138  ILE138      0.0020
    185  CD1       12.8910    5.3790   19.6330 C.3   138  ILE138      0.0001
    186  N         10.1980    1.4780   16.2990 N.am  139  ALA139     -0.1980
    187  CA        10.1060    0.9290   14.9210 C.3   139  ALA139      0.1597
    188  C          9.2730    1.8150   13.9760 C.2   139  ALA139      0.2287
    189  O          9.6930    2.1410   12.8460 O.2   139  ALA139     -0.2864
    190  CB         9.5600   -0.4940   14.9420 C.3   139  ALA139      0.0319
@<TRIPOS>BOND
     1    48    47    2
     2    47    46    1
     3    46    49    1
     4    46    45    1
     5    49    50    1
     6    60    59   ar
     7    59    58    1
     8    59    61   ar
     9    58    57    1
    10    53    54    1
    11    50    51    1
    12    50    52    1
    13    57    54    1
    14    66    67    1
    15    66    68    1
    16    66    63    1
    17    54    55    1
    18    62    63    1
    19    62    55   am
    20   109   107    1
    21    63    64    1
    22    55    56    2
    23    39    38    2
    24    64    65    2
    25   102   103    1
    26   107   108    1
    27   107   106    1
    28    38    37    1
    29   103   106    1
    30   103   104    1
    31    41    40    1
    32    41    42    1
    33    43    42    1
    34    43    44    1
    35    37    40    1
    36    37    36    1
    37   104   105    2
    38   101    99    1
    39    69    70    1
    40   100    99    1
    41    99    98    1
    42    24    25    1
    43    73    70    1
    44    73    74    1
    45    25    28    1
    46    25    26    1
    47    70    71    1
    48    71    72    2
    49    28    29    1
    50    28    30    1
    51    98    95    1
    52    74    75    1
    53    26    27    2
    54    77    75   am
    55   116   115    1
    56    34    33    2
    57   115   117    1
    58   115   114    1
    59    97    96    2
    60    75    76    2
    61   110   111    1
    62    33    32    1
    63    96    95    1
    64    22    23    2
    65    22    21    1
    66    95    94    1
    67   114   111    1
    68    21    20    1
    69     3     4    2
    70     3     2    1
    71   111   112    1
    72     2     1    1
    73     2     5    1
    74    20    14   am
    75    32    35    1
    76    32    31    1
    77   189   188    2
    78    12    13    1
    79   112   113    2
    80   112   118   am
    81    14    13    1
    82    14    15    2
    83   188   187    1
    84     5     6    1
    85    13    16    1
    86    16    17    1
    87   118   119    1
    88    17    18    1
    89    17    19    1
    90   187   190    1
    91   187   186    1
    92    89    88    2
    93     6     7    1
    94    92    91    1
    95    88    87    1
    96   121   120    2
    97    90    91    1
    98    90    87    1
    99   119   120    1
   100   119   122    1
   101    84    82    1
   102   186   180   am
   103   120   127   am
   104     7     8    1
   105    91    93    1
   106   181   180    2
   107    87    86    1
   108   122   123    1
   109   180   179    1
   110   184   182    1
   111   127   128    1
   112    85    83    1
   113    86    80   am
   114   176   175    1
   115   131   128    1
   116   131   132    1
   117   128   129    1
   118     8     9    2
   119    82    83    1
   120    82    79    1
   121    10     9    1
   122   133   132   ar
   123   133   135   ar
   124    80    81    2
   125    80    79    1
   126     9    11    1
   127   182   179    1
   128   182   183    1
   129   123   124    1
   130   132   134   ar
   131   179   178    1
   132   126   124   ar
   133   175   177    1
   134   175   174    1
   135    79    78    1
   136   169   167    1
   137   135   137   ar
   138   129   139   am
   139   129   130    2
   140   124   125   ar
   141   139   140    1
   142   134   136   ar
   143   183   185    1
   144   174   171    1
   145   137   136   ar
   146   137   138    1
   147   167   168    1
   148   167   164    1
   149   143   140    1
   150   170   171    1
   151   140   141    1
   152   142   141    2
   153   171   172    1
   154   164   163    1
   155   164   165    1
   156   141   144   am
   157   163   161   am
   158   161   160    1
   159   161   162    2
   160   160   159    1
   161   172   173    2
   162   144   145    1
   163   144   150    1
   164   165   166    2
   165   159   153   am
   166   145   146    1
   167   145   148    1
   168   150   149    1
   169   147   146    2
   170   149   148    1
   171   146   151   am
   172   153   154    2
   173   153   152    1
   174   151   152    1
   175   152   155    1
   176   155   156    1
   177   157   156    1
   178   156   158    1
