@<TRIPOS>MOLECULE
tmp/3w1bA00.pdb
 145 141 0 0 0
SMALL
GASTEIGER

@<TRIPOS>ATOM
      1  N         -2.2800   41.7730   63.1090 N.3     3  GLN3       -0.1245
      2  CA        -2.7950   40.6030   63.8070 C.3     3  GLN3        0.1566
      3  C         -3.9640   39.9760   63.0190 C.2     3  GLN3        0.2260
      4  O         -4.6660   40.6740   62.2860 O.2     3  GLN3       -0.2867
      5  CB        -3.2140   41.0050   65.2280 C.3     3  GLN3        0.0367
      6  CG        -3.5700   39.8520   66.1590 C.3     3  GLN3        0.0905
      7  CD        -2.3760   38.9760   66.5280 C.2     3  GLN3        0.2608
      8  OE1       -1.7930   38.2920   65.6760 O.2     3  GLN3       -0.2717
      9  NE2       -2.0150   38.9850   67.8090 N.am    3  GLN3       -0.0878
     10  N         -7.1050   36.6160   62.9930 N.3     5  VAL5       -0.1245
     11  CA        -7.8230   35.5500   63.6510 C.3     5  VAL5        0.1561
     12  C         -7.2320   34.2080   63.2290 C.2     5  VAL5        0.2260
     13  O         -6.9650   33.3390   64.0620 O.2     5  VAL5       -0.2867
     14  CB        -9.3160   35.6140   63.2870 C.3     5  VAL5        0.0252
     15  CG1      -10.0670   34.4090   63.8610 C.3     5  VAL5        0.0019
     16  CG2       -9.8940   36.9170   63.7900 C.3     5  VAL5        0.0019
     17  N         -4.6070   32.4440   64.9670 N.3     8  HIS8       -0.1226
     18  CA        -4.9940   31.9190   66.2680 C.3     8  HIS8        0.1752
     19  C         -5.8940   30.6880   66.2180 C.2     8  HIS8        0.2596
     20  O         -6.0830   30.0310   67.2320 O.2     8  HIS8       -0.2718
     21  CB        -5.7070   32.9940   67.0760 C.3     8  HIS8        0.0759
     22  CG        -4.8520   34.1710   67.3950 C.ar    8  HIS8        0.0818
     23  ND1       -3.9520   34.1720   68.4380 N.ar    8  HIS8       -0.2268
     24  CD2       -4.7730   35.3950   66.8250 C.ar    8  HIS8        0.1154
     25  CE1       -3.3510   35.3480   68.4910 C.ar    8  HIS8        0.1986
     26  NE2       -3.8320   36.1080   67.5220 N.ar    8  HIS8       -0.2212
     27  N         -6.4650   30.3810   65.0620 N.am    9  VAL9       -0.1966
     28  CA        -7.4330   29.2840   65.0030 C.3     9  VAL9        0.1712
     29  C         -6.8260   27.9830   64.4710 C.2     9  VAL9        0.2458
     30  O         -6.3560   27.9190   63.3310 O.2     9  VAL9       -0.2730
     31  CB        -8.6730   29.6670   64.1580 C.3     9  VAL9        0.0289
     32  CG1       -9.6710   28.4840   64.0760 C.3     9  VAL9        0.0023
     33  CG2       -9.3290   30.9060   64.7460 C.3     9  VAL9        0.0023
     34  N         -6.8180   26.9440   65.3060 N.am   10  PRO10      -0.2727
     35  CA        -6.2010   25.6880   64.8720 C.3    10  PRO10       0.1402
     36  C         -6.9170   25.2050   63.6360 C.2    10  PRO10       0.2269
     37  O         -8.1380   25.3030   63.5580 O.2    10  PRO10      -0.2865
     38  CB        -6.4820   24.7390   66.0420 C.3    10  PRO10       0.0296
     39  CG        -6.6160   25.6290   67.2330 C.3    10  PRO10       0.0237
     40  CD        -7.2330   26.9090   66.7200 C.3    10  PRO10       0.0939
     41  N         -9.9030   22.9590   64.3620 N.3    13  ASP13      -0.1239
     42  CA       -11.2550   23.4800   64.5760 C.3    13  ASP13       0.1674
     43  C        -12.0240   23.6930   63.2830 C.2    13  ASP13       0.2266
     44  O        -13.2310   23.4510   63.2260 O.2    13  ASP13      -0.2867
     45  CB       -11.2590   24.7650   65.3950 C.3    13  ASP13       0.1410
     46  CG       -10.6380   24.5790   66.7460 C.2    13  ASP13       0.3668
     47  OD1      -10.4360   23.4030   67.1460 O.co2  13  ASP13      -0.2456
     48  OD2      -10.3280   25.6060   67.3930 O.co2  13  ASP13      -0.2456
     49  N        -12.9580   19.9350   62.2370 N.3    16  SER16      -0.1202
     50  CA       -13.9980   19.3000   63.0250 C.3    16  SER16       0.2020
     51  C        -15.3630   19.8820   62.6450 C.2    16  SER16       0.2619
     52  O        -16.3840   19.2180   62.7270 O.2    16  SER16      -0.2717
     53  CB       -13.7300   19.4490   64.5260 C.3    16  SER16       0.2103
     54  OG       -14.0290   20.7520   64.9760 O.3    16  SER16      -0.2182
     55  N        -15.3640   21.1240   62.1980 N.am   17  THR17      -0.1952
     56  CA       -16.5850   21.7570   61.7290 C.3    17  THR17       0.1897
     57  C        -17.0060   21.2100   60.3570 C.2    17  THR17       0.2313
     58  O        -18.1900   20.9690   60.1120 O.2    17  THR17      -0.2863
     59  CB       -16.3920   23.2740   61.6750 C.3    17  THR17       0.1794
     60  OG1      -16.0580   23.7400   62.9900 O.3    17  THR17      -0.2208
     61  CG2      -17.6420   23.9760   61.1710 C.3    17  THR17       0.0378
     62  N        -18.3850   17.7060   60.9310 N.3    20  ARG20      -0.1245
     63  CA       -19.7540   17.7180   61.4410 C.3    20  ARG20       0.1563
     64  C        -20.7760   18.0920   60.3640 C.2    20  ARG20       0.2260
     65  O        -21.8600   17.5090   60.3090 O.2    20  ARG20      -0.2867
     66  CB       -19.9090   18.6440   62.6330 C.3    20  ARG20       0.0307
     67  CG       -19.2270   18.2100   63.9080 C.3    20  ARG20       0.0489
     68  CD       -19.3570   19.3620   64.9030 C.3    20  ARG20       0.2205
     69  NE       -18.5070   19.2500   66.0820 N.pl3  20  ARG20      -0.0865
     70  CZ       -18.7970   19.8110   67.2570 C.cat  20  ARG20       0.5346
     71  NH1      -19.9190   20.5070   67.4040 N.pl3  20  ARG20       0.1354
     72  NH2      -17.9720   19.6730   68.2890 N.pl3  20  ARG20       0.1354
     73  N        -22.1060   28.1340   63.9300 N.3    36  GLU36      -0.1231
     74  CA       -21.4280   28.1460   65.2180 C.3    36  GLU36       0.1699
     75  C        -19.9510   28.5210   65.0770 C.2    36  GLU36       0.2592
     76  O        -19.4060   29.2600   65.8980 O.2    36  GLU36      -0.2718
     77  CB       -21.5970   26.8030   65.9250 C.3    36  GLU36       0.0402
     78  CG       -22.9520   26.6880   66.6300 C.3    36  GLU36       0.1161
     79  CD       -23.3110   25.2580   67.0310 C.2    36  GLU36       0.3649
     80  OE1      -24.4800   25.0350   67.4300 O.co2  36  GLU36      -0.2457
     81  OE2      -22.4330   24.3630   66.9420 O.co2  36  GLU36      -0.2457
     82  N        -19.3240   28.0260   64.0160 N.am   37  PHE37      -0.1976
     83  CA       -17.9340   28.3390   63.7320 C.3    37  PHE37       0.1639
     84  C        -17.8140   29.8020   63.3260 C.2    37  PHE37       0.2290
     85  O        -17.0120   30.5490   63.8840 O.2    37  PHE37      -0.2864
     86  CB       -17.4050   27.4290   62.6180 C.3    37  PHE37       0.0560
     87  CG       -15.9210   27.5600   62.3780 C.ar   37  PHE37      -0.0200
     88  CD1      -15.0060   26.9760   63.2450 C.ar   37  PHE37      -0.0042
     89  CD2      -15.4420   28.2710   61.2920 C.ar   37  PHE37      -0.0042
     90  CE1      -13.6440   27.0910   63.0180 C.ar   37  PHE37      -0.0003
     91  CE2      -14.0890   28.3810   61.0640 C.ar   37  PHE37      -0.0003
     92  CZ       -13.1870   27.7880   61.9230 C.ar   37  PHE37      -0.0000
     93  N        -18.3630   32.1860   66.2230 N.3    40  SER40      -0.1202
     94  CA       -17.2560   32.2720   67.1810 C.3    40  SER40       0.2020
     95  C        -16.1460   33.1350   66.5850 C.2    40  SER40       0.2618
     96  O        -15.5240   33.9530   67.2740 O.2    40  SER40      -0.2717
     97  CB       -16.7240   30.8890   67.5550 C.3    40  SER40       0.2103
     98  OG       -17.7300   30.1000   68.1770 O.3    40  SER40      -0.2182
     99  N        -15.9330   32.9700   65.2870 N.am   41  TRP41      -0.1975
    100  CA       -14.8930   33.6920   64.5900 C.3    41  TRP41       0.1640
    101  C        -15.1820   35.1740   64.6370 C.2    41  TRP41       0.2290
    102  O        -14.2820   35.9790   64.8630 O.2    41  TRP41      -0.2864
    103  CB       -14.8250   33.2140   63.1520 C.3    41  TRP41       0.0576
    104  CG       -13.7090   33.7840   62.3410 C.ar   41  TRP41       0.0006
    105  CD1      -13.5420   35.0820   61.9700 C.ar   41  TRP41       0.0946
    106  CD2      -12.6300   33.0510   61.7450 C.ar   41  TRP41       0.0152
    107  NE1      -12.4090   35.2150   61.1970 N.ar   41  TRP41      -0.2442
    108  CE2      -11.8380   33.9790   61.0320 C.ar   41  TRP41       0.0810
    109  CE3      -12.2620   31.7030   61.7420 C.ar   41  TRP41       0.0012
    110  CZ2      -10.6830   33.6020   60.3310 C.ar   41  TRP41       0.0191
    111  CZ3      -11.1130   31.3230   61.0360 C.ar   41  TRP41       0.0001
    112  CH2      -10.3400   32.2720   60.3460 C.ar   41  TRP41       0.0015
    113  N        -17.1140   36.8920   66.8590 N.3    43  LYS43      -0.1231
    114  CA       -16.9740   37.4080   68.2270 C.3    43  LYS43       0.1693
    115  C        -15.4890   37.5670   68.6060 C.2    43  LYS43       0.2592
    116  O        -15.0900   38.5850   69.1760 O.2    43  LYS43      -0.2718
    117  CB       -17.7390   36.5480   69.2570 C.3    43  LYS43       0.0285
    118  CG       -19.1820   36.3300   68.8860 C.3    43  LYS43       0.0035
    119  CD       -20.0300   37.5000   69.2700 C.3    43  LYS43       0.0206
    120  CE       -21.5170   37.3000   69.0080 C.3    43  LYS43       0.1093
    121  NZ       -21.8600   36.9770   67.6280 N.3    43  LYS43      -0.1314
    122  N        -14.6800   36.5730   68.2570 N.am   44  PHE44      -0.1976
    123  CA       -13.2410   36.6200   68.4990 C.3    44  PHE44       0.1639
    124  C        -12.5980   37.8070   67.8050 C.2    44  PHE44       0.2290
    125  O        -11.8170   38.5450   68.4130 O.2    44  PHE44      -0.2864
    126  CB       -12.5730   35.3470   68.0010 C.3    44  PHE44       0.0560
    127  CG       -11.1350   35.2410   68.3820 C.ar   44  PHE44      -0.0200
    128  CD1      -10.7510   35.3350   69.7060 C.ar   44  PHE44      -0.0042
    129  CD2      -10.1680   35.0270   67.4320 C.ar   44  PHE44      -0.0042
    130  CE1       -9.4230   35.2250   70.0760 C.ar   44  PHE44      -0.0003
    131  CE2       -8.8370   34.9160   67.7960 C.ar   44  PHE44      -0.0003
    132  CZ        -8.4700   35.0170   69.1200 C.ar   44  PHE44      -0.0000
    133  N        -13.1430   40.9330   69.5540 N.3    47  ALA47      -0.1231
    134  CA       -12.3490   41.0240   70.7690 C.3    47  ALA47       0.1694
    135  C        -10.8930   41.2700   70.4210 C.2    47  ALA47       0.2591
    136  O        -10.2280   42.0880   71.0460 O.2    47  ALA47      -0.2718
    137  CB       -12.4850   39.7630   71.6020 C.3    47  ALA47       0.0304
    138  N        -10.4070   40.5590   69.4120 N.am   48  LEU48      -0.1980
    139  CA        -9.0190   40.6780   68.9960 C.3    48  LEU48       0.1596
    140  C         -8.7140   42.0700   68.4450 C.2    48  LEU48       0.2287
    141  O         -7.6410   42.6160   68.6840 O.2    48  LEU48      -0.2864
    142  CB        -8.6710   39.6060   67.9580 C.3    48  LEU48       0.0297
    143  CG        -7.2150   39.5580   67.4960 C.3    48  LEU48       0.0022
    144  CD1       -6.3650   38.9460   68.5770 C.3    48  LEU48       0.0001
    145  CD2       -7.0720   38.7820   66.2080 C.3    48  LEU48       0.0001
@<TRIPOS>BOND
     1    58    57    2
     2    65    64    2
     3   110   112   ar
     4   110   108   ar
     5   112   111   ar
     6    57    56    1
     7    64    63    1
     8    62    63    1
     9   108   107   ar
    10   108   106   ar
    11   111   109   ar
    12    91    89   ar
    13    91    92   ar
    14    61    59    1
    15   107   105   ar
    16    89    87   ar
    17    63    66    1
    18    59    56    1
    19    59    60    1
    20    56    55    1
    21   109   106   ar
    22   106   104   ar
    23    92    90   ar
    24   105   104   ar
    25    55    51   am
    26    49    50    1
    27     4     3    2
    28   104   103    1
    29    87    86    1
    30    87    88   ar
    31    86    83    1
    32    66    67    1
    33    51    52    2
    34    51    50    1
    35    10    11    1
    36    90    88   ar
    37     3     2    1
    38    50    53    1
    39     1     2    1
    40   103   100    1
    41    44    43    2
    42    12    11    1
    43    12    13    2
    44    43    42    1
    45    14    11    1
    46    14    16    1
    47    14    15    1
    48    84    83    1
    49    84    85    2
    50    30    29    2
    51    37    36    2
    52    36    35    1
    53    83    82    1
    54     2     5    1
    55    67    68    1
    56    73    74    1
    57    82    75   am
    58    32    31    1
    59    31    33    1
    60    31    28    1
    61    41    42    1
    62    29    28    1
    63    29    34   am
    64    53    54    1
    65    42    45    1
    66   100   101    1
    67   100    99    1
    68   101   102    2
    69    35    34    1
    70    35    38    1
    71    68    69    1
    72    17    18    1
    73    28    27    1
    74    27    19   am
    75    75    74    1
    76    75    76    2
    77    74    77    1
    78     5     6    1
    79    99    95   am
    80    34    40    1
    81    45    46    1
    82     8     7    2
    83    77    78    1
    84    38    39    1
    85    69    70    2
    86     6     7    1
    87   145   143    1
    88    19    18    1
    89    19    20    2
    90    93    94    1
    91    18    21    1
    92     7     9   am
    93    95    94    1
    94    95    96    2
    95    78    79    1
    96    40    39    1
    97    46    47   ar
    98    46    48   ar
    99    24    22   ar
   100    24    26   ar
   101   113   114    1
   102    81    79   ar
   103    79    80   ar
   104    21    22    1
   105    94    97    1
   106    70    71    1
   107    70    72    1
   108    22    23   ar
   109   129   131   ar
   110   129   127   ar
   111   143   142    1
   112   143   144    1
   113    26    25   ar
   114    97    98    1
   115   121   120    1
   116   131   132   ar
   117   124   125    2
   118   124   123    1
   119   142   139    1
   120   126   127    1
   121   126   123    1
   122   114   115    1
   123   114   117    1
   124   122   123    1
   125   122   115   am
   126   127   128   ar
   127    23    25   ar
   128   140   141    2
   129   140   139    1
   130   115   116    2
   131   118   117    1
   132   118   119    1
   133   139   138    1
   134   120   119    1
   135   132   130   ar
   136   138   135   am
   137   133   134    1
   138   128   130   ar
   139   135   134    1
   140   135   136    2
   141   134   137    1
