@<TRIPOS>MOLECULE
tmp/3w1fA00.pdb
 195 179 0 0 0
SMALL
GASTEIGER

@<TRIPOS>ATOM
      1  N          6.6800  -35.0030   -0.8700 N.3    14  LYS14      -0.1245
      2  CA         6.3170  -36.3490   -1.3580 C.3    14  LYS14       0.1561
      3  C          6.5750  -36.5210   -2.8580 C.2    14  LYS14       0.2260
      4  O          6.4060  -35.5870   -3.6420 O.2    14  LYS14      -0.2867
      5  CB         4.8390  -36.6340   -1.0760 C.3    14  LYS14       0.0271
      6  CG         4.2660  -37.8380   -1.7720 C.3    14  LYS14       0.0035
      7  CD         2.8140  -38.0080   -1.4090 C.3    14  LYS14       0.0206
      8  CE         1.9120  -37.2310   -2.3120 C.3    14  LYS14       0.1093
      9  NZ         0.5500  -37.8350   -2.2910 N.3    14  LYS14      -0.1314
     10  N          5.3330  -38.0300   -6.3250 N.3    16  ILE16      -0.1231
     11  CA         4.0610  -38.4420   -6.9020 C.3    16  ILE16       0.1692
     12  C          4.2240  -39.2200   -8.1980 C.2    16  ILE16       0.2592
     13  O          3.3930  -40.0630   -8.5180 O.2    16  ILE16      -0.2718
     14  CB         3.0900  -37.2660   -7.1050 C.3    16  ILE16       0.0266
     15  CG1        3.8160  -36.0260   -7.6110 C.3    16  ILE16       0.0019
     16  CG2        2.4680  -36.9270   -5.8060 C.3    16  ILE16       0.0020
     17  CD1        3.0190  -34.7170   -7.4620 C.3    16  ILE16       0.0001
     18  N          5.2990  -38.9390   -8.9280 N.am   17  GLY17      -0.1957
     19  CA         5.5040  -39.5050  -10.2620 C.3    17  GLY17       0.1869
     20  C          6.9490  -39.8910  -10.5020 C.2    17  GLY17       0.2309
     21  O          7.8580  -39.3930   -9.8110 O.2    17  GLY17      -0.2863
     22  N          8.3710  -36.5500  -10.3890 N.3    24  VAL24      -0.1245
     23  CA         7.4920  -35.4460   -9.9910 C.3    24  VAL24       0.1561
     24  C          7.3170  -35.4100   -8.4670 C.2    24  VAL24       0.2260
     25  O          6.9860  -36.4300   -7.8480 O.2    24  VAL24      -0.2867
     26  CB         6.0860  -35.5410  -10.6340 C.3    24  VAL24       0.0252
     27  CG1        5.4340  -34.1430  -10.6980 C.3    24  VAL24       0.0019
     28  CG2        6.1550  -36.1900  -11.9940 C.3    24  VAL24       0.0019
     29  N          5.4800  -33.4640   -5.0940 N.3    26  GLN26      -0.1245
     30  CA         4.5370  -32.5890   -4.4230 C.3    26  GLN26       0.1566
     31  C          5.3950  -31.7440   -3.4860 C.2    26  GLN26       0.2260
     32  O          6.0890  -32.2860   -2.6220 O.2    26  GLN26      -0.2867
     33  CB         3.5570  -33.4580   -3.6470 C.3    26  GLN26       0.0367
     34  CG         2.3290  -32.7730   -3.1380 C.3    26  GLN26       0.0905
     35  CD         1.6100  -33.6060   -2.0890 C.2    26  GLN26       0.2608
     36  OE1        2.2430  -34.1640   -1.1900 O.2    26  GLN26      -0.2717
     37  NE2        0.2880  -33.6910   -2.1930 N.am   26  GLN26      -0.0878
     38  N          1.2880  -25.1270   -2.3480 N.3    34  ILE34      -0.1245
     39  CA         1.6320  -26.3720   -3.0090 C.3    34  ILE34       0.1561
     40  C          1.8680  -26.1720   -4.5290 C.2    34  ILE34       0.2260
     41  O          1.3860  -25.2050   -5.1450 O.2    34  ILE34      -0.2867
     42  CB         0.6090  -27.5160   -2.6990 C.3    34  ILE34       0.0252
     43  CG1        1.3150  -28.8730   -2.6370 C.3    34  ILE34       0.0019
     44  CG2       -0.5540  -27.5190   -3.7080 C.3    34  ILE34       0.0019
     45  CD1        0.3930  -30.0290   -2.3260 C.3    34  ILE34       0.0001
     46  N          3.4420  -28.8610   -8.0140 N.3    36  ALA36      -0.1245
     47  CA         4.1320  -30.0370   -8.4820 C.3    36  ALA36       0.1562
     48  C          5.3550  -29.5310   -9.1940 C.2    36  ALA36       0.2260
     49  O          5.2930  -28.5250   -9.9120 O.2    36  ALA36      -0.2867
     50  CB         3.2620  -30.8290   -9.4030 C.3    36  ALA36       0.0290
     51  N          8.4940  -30.9730  -11.6390 N.3    38  LYS38      -0.1245
     52  CA         9.0660  -32.0790  -12.3680 C.3    38  LYS38       0.1561
     53  C         10.5730  -31.9220  -12.5280 C.2    38  LYS38       0.2260
     54  O         11.0510  -30.9400  -13.0800 O.2    38  LYS38      -0.2867
     55  CB         8.3650  -32.2680  -13.7120 C.3    38  LYS38       0.0271
     56  CG         8.9590  -33.3720  -14.5760 C.3    38  LYS38       0.0035
     57  CD         7.9150  -33.8890  -15.5250 C.3    38  LYS38       0.0206
     58  CE         8.3880  -33.9140  -16.9650 C.3    38  LYS38       0.1093
     59  NZ         7.2050  -34.0470  -17.8460 N.3    38  LYS38      -0.1314
     60  N          8.0570  -30.3190  -25.5100 N.3    56  GLU56      -0.1245
     61  CA         7.0020  -30.3520  -24.4970 C.3    56  GLU56       0.1567
     62  C          6.9190  -29.0180  -23.7480 C.2    56  GLU56       0.2260
     63  O          5.8730  -28.4040  -23.7380 O.2    56  GLU56      -0.2867
     64  CB         7.2190  -31.5100  -23.5200 C.3    56  GLU56       0.0388
     65  CG         6.1080  -31.6780  -22.4620 C.3    56  GLU56       0.1160
     66  CD         6.5590  -32.4210  -21.1710 C.2    56  GLU56       0.3649
     67  OE1        7.6730  -32.1580  -20.6480 O.co2  56  GLU56      -0.2457
     68  OE2        5.7690  -33.2630  -20.6720 O.co2  56  GLU56      -0.2457
     69  N          3.8270  -26.5630  -23.9000 N.3    60  LEU60      -0.1245
     70  CA         3.1640  -26.4630  -22.6250 C.3    60  LEU60       0.1561
     71  C          3.0570  -24.9980  -22.2690 C.2    60  LEU60       0.2260
     72  O          1.9950  -24.5450  -21.8770 O.2    60  LEU60      -0.2867
     73  CB         3.9180  -27.2550  -21.5680 C.3    60  LEU60       0.0270
     74  CG         3.2720  -27.2960  -20.1950 C.3    60  LEU60       0.0019
     75  CD1        1.8290  -27.7200  -20.2960 C.3    60  LEU60       0.0001
     76  CD2        4.0780  -28.2210  -19.3220 C.3    60  LEU60       0.0001
     77  N         -2.7180  -28.1620  -17.7770 N.3    71  ILE71      -0.1245
     78  CA        -1.8360  -27.9650  -16.6440 C.3    71  ILE71       0.1561
     79  C         -1.0840  -26.6320  -16.7630 C.2    71  ILE71       0.2260
     80  O         -0.5470  -26.3000  -17.8190 O.2    71  ILE71      -0.2867
     81  CB        -0.8690  -29.1660  -16.4240 C.3    71  ILE71       0.0252
     82  CG1       -0.1510  -29.0410  -15.0840 C.3    71  ILE71       0.0019
     83  CG2        0.1430  -29.2980  -17.5400 C.3    71  ILE71       0.0019
     84  CD1       -1.0370  -29.3700  -13.9140 C.3    71  ILE71       0.0001
     85  N         10.4040  -28.1340  -13.6520 N.3    85  MET85      -0.1245
     86  CA         9.1860  -27.4920  -14.0860 C.3    85  MET85       0.1570
     87  C          8.2780  -27.2390  -12.8870 C.2    85  MET85       0.2261
     88  O          7.7780  -28.1880  -12.2680 O.2    85  MET85      -0.2867
     89  CB         8.4620  -28.3390  -15.1520 C.3    85  MET85       0.0387
     90  CG         9.2210  -28.5190  -16.4560 C.3    85  MET85       0.0595
     91  SD         8.2530  -29.4750  -17.6410 S.3    85  MET85      -0.1393
     92  CE         9.5270  -30.5960  -18.1550 C.3    85  MET85       0.0692
     93  N          4.8460  -26.4150  -11.5610 N.3    87  MET87      -0.1230
     94  CA         3.5060  -26.5810  -12.1240 C.3    87  MET87       0.1702
     95  C          2.4270  -26.7080  -11.0670 C.2    87  MET87       0.2592
     96  O          2.7040  -26.9890   -9.9050 O.2    87  MET87      -0.2718
     97  CB         3.4560  -27.8370  -12.9870 C.3    87  MET87       0.0401
     98  CG         4.2810  -27.8090  -14.2370 C.3    87  MET87       0.0596
     99  SD         4.1190  -29.4210  -14.9840 S.3    87  MET87      -0.1393
    100  CE         5.4400  -30.3030  -14.1890 C.3    87  MET87       0.0692
    101  N          1.1950  -26.5160  -11.5050 N.am   88  GLU88      -0.1966
    102  CA         0.0090  -26.6790  -10.7060 C.3    88  GLU88       0.1733
    103  C         -0.0660  -28.0830  -10.0630 C.2    88  GLU88       0.2616
    104  O          0.3710  -29.0670  -10.6560 O.2    88  GLU88      -0.2715
    105  CB        -1.1550  -26.4910  -11.6540 C.3    88  GLU88       0.0429
    106  CG        -2.3870  -25.8350  -11.1210 C.3    88  GLU88       0.1163
    107  CD        -3.4540  -25.7650  -12.2020 C.2    88  GLU88       0.3649
    108  OE1       -3.1470  -26.1260  -13.3620 O.co2  88  GLU88      -0.2457
    109  OE2       -4.5920  -25.3570  -11.8970 O.co2  88  GLU88      -0.2457
    110  N         -0.6210  -28.1540   -8.8510 N.am   89  CYS89      -0.1954
    111  CA        -0.8340  -29.4250   -8.1330 C.3    89  CYS89       0.1843
    112  C         -2.3060  -29.8260   -8.0990 C.2    89  CYS89       0.2626
    113  O         -3.1760  -28.9980   -7.8390 O.2    89  CYS89      -0.2714
    114  CB        -0.3030  -29.3460   -6.6900 C.3    89  CYS89       0.0997
    115  SG         0.1590  -30.9470   -5.9310 S.3    89  CYS89      -0.0797
    116  N         -2.5750  -31.0990   -8.3580 N.am   90  GLY90      -0.1940
    117  CA        -3.9350  -31.6080   -8.3170 C.3    90  GLY90       0.2014
    118  C         -4.1830  -32.6670   -7.2560 C.2    90  GLY90       0.2639
    119  O         -3.3010  -33.0000   -6.4660 O.2    90  GLY90      -0.2714
    120  N         -5.4000  -33.2000   -7.2590 N.am   91  ASN91      -0.1958
    121  CA        -5.8390  -34.1580   -6.2640 C.3    91  ASN91       0.1819
    122  C         -5.4400  -35.5600   -6.6410 C.2    91  ASN91       0.2621
    123  O         -4.8550  -36.2670   -5.8300 O.2    91  ASN91      -0.2715
    124  CB        -7.3570  -34.1070   -6.0870 C.3    91  ASN91       0.1195
    125  CG        -7.8770  -32.7030   -5.8010 C.2    91  ASN91       0.2630
    126  OD1       -7.2800  -31.6910   -6.2180 O.2    91  ASN91      -0.2716
    127  ND2       -9.0120  -32.6330   -5.0960 N.am   91  ASN91      -0.0877
    128  N         -5.7650  -35.9630   -7.8680 N.am   92  ILE92      -0.1963
    129  CA        -5.4670  -37.3280   -8.3550 C.3    92  ILE92       0.1727
    130  C         -5.5220  -37.4220   -9.8840 C.2    92  ILE92       0.2616
    131  O         -6.3700  -36.8010  -10.5240 O.2    92  ILE92      -0.2715
    132  CB        -6.4250  -38.4100   -7.7140 C.3    92  ILE92       0.0290
    133  CG1       -5.8750  -39.8290   -7.9190 C.3    92  ILE92       0.0022
    134  CG2       -7.8670  -38.2530   -8.2330 C.3    92  ILE92       0.0023
    135  CD1       -6.6770  -40.9130   -7.2500 C.3    92  ILE92       0.0001
    136  N         -4.6240  -38.2010  -10.4700 N.am   93  ASP93      -0.1971
    137  CA        -4.7760  -38.5040  -11.8750 C.3    93  ASP93       0.1709
    138  C         -6.0860  -39.2580  -12.0460 C.2    93  ASP93       0.2293
    139  O         -6.5440  -39.9410  -11.1260 O.2    93  ASP93      -0.2864
    140  CB        -3.5920  -39.3000  -12.4420 C.3    93  ASP93       0.1436
    141  CG        -3.5090  -40.7000  -11.8930 C.2    93  ASP93       0.3671
    142  OD1       -3.8310  -41.6610  -12.6320 O.co2  93  ASP93      -0.2456
    143  OD2       -3.1170  -40.8280  -10.7130 O.co2  93  ASP93      -0.2456
    144  N         -4.6250  -41.6260  -17.3870 N.3   136  ALA136     -0.1245
    145  CA        -3.4320  -41.2180  -16.6490 C.3   136  ALA136      0.1562
    146  C         -2.9160  -39.8120  -17.0350 C.2   136  ALA136      0.2260
    147  O         -2.1820  -39.2000  -16.2610 O.2   136  ALA136     -0.2867
    148  CB        -2.3320  -42.2740  -16.8220 C.3   136  ALA136      0.0290
    149  N         -5.7600  -34.8280  -15.0310 N.3   139  LEU139     -0.1245
    150  CA        -5.4920  -34.5730  -13.6470 C.3   139  LEU139      0.1561
    151  C         -6.5870  -33.6910  -13.0770 C.2   139  LEU139      0.2260
    152  O         -6.8240  -32.6020  -13.5900 O.2   139  LEU139     -0.2867
    153  CB        -4.1480  -33.8720  -13.5440 C.3   139  LEU139      0.0270
    154  CG        -3.7110  -33.3090  -12.1950 C.3   139  LEU139      0.0019
    155  CD1       -2.9150  -34.3700  -11.4810 C.3   139  LEU139      0.0001
    156  CD2       -2.8890  -32.0290  -12.3780 C.3   139  LEU139      0.0001
    157  N         -2.1410  -33.0830  -18.7530 N.3   148  ILE148     -0.1231
    158  CA        -0.8120  -33.0950  -18.1720 C.3   148  ILE148      0.1692
    159  C          0.2440  -33.1020  -19.2560 C.2   148  ILE148      0.2592
    160  O          1.2300  -32.3920  -19.1490 O.2   148  ILE148     -0.2718
    161  CB        -0.6350  -34.3370  -17.2700 C.3   148  ILE148      0.0266
    162  CG1       -1.1870  -34.0640  -15.8840 C.3   148  ILE148      0.0019
    163  CG2        0.8310  -34.7970  -17.1460 C.3   148  ILE148      0.0020
    164  CD1       -1.0240  -35.2550  -14.9650 C.3   148  ILE148      0.0001
    165  N          0.0580  -33.9150  -20.2890 N.am  149  ASP149     -0.1974
    166  CA         1.0930  -34.0710  -21.3140 C.3   149  ASP149      0.1709
    167  C          0.5260  -34.1430  -22.7320 C.2   149  ASP149      0.2293
    168  O         -0.6840  -34.2420  -22.9130 O.2   149  ASP149     -0.2864
    169  CB         1.9700  -35.2970  -21.0140 C.3   149  ASP149      0.1436
    170  CG         1.2740  -36.6020  -21.3260 C.2   149  ASP149      0.3671
    171  OD1        1.9680  -37.5650  -21.7470 O.co2 149  ASP149     -0.2456
    172  OD2        0.0370  -36.6500  -21.1520 O.co2 149  ASP149     -0.2456
    173  N          5.4360  -40.4080  -18.3770 N.3   156  MET156     -0.1245
    174  CA         5.7100  -40.6780  -16.9520 C.3   156  MET156      0.1570
    175  C          4.5500  -41.4600  -16.3090 C.2   156  MET156      0.2261
    176  O          3.3790  -41.2110  -16.6150 O.2   156  MET156     -0.2867
    177  CB         5.9600  -39.3730  -16.1630 C.3   156  MET156      0.0387
    178  CG         7.2510  -38.6160  -16.5030 C.3   156  MET156      0.0595
    179  SD         7.0800  -37.3900  -17.8400 S.3   156  MET156     -0.1393
    180  CE         8.7670  -37.2380  -18.4450 C.3   156  MET156      0.0692
    181  N          2.4640  -42.2690  -12.8380 N.3   158  PRO158     -0.2102
    182  CA         2.2040  -41.7120  -11.4870 C.3   158  PRO158      0.1504
    183  C          2.1930  -42.7460  -10.3410 C.2   158  PRO158      0.2575
    184  O          1.6000  -43.8230  -10.4730 O.2   158  PRO158     -0.2718
    185  CB         0.8210  -41.0300  -11.6300 C.3   158  PRO158      0.0282
    186  CG         0.5070  -41.0290  -13.1160 C.3   158  PRO158      0.0208
    187  CD         1.2550  -42.2050  -13.6850 C.3   158  PRO158      0.0893
    188  N          2.8470  -42.3960   -9.2310 N.am  159  ASP159     -0.1974
    189  CA         2.9780  -43.2670   -8.0570 C.3   159  ASP159      0.1708
    190  C          1.7530  -43.1300   -7.1580 C.2   159  ASP159      0.2293
    191  O          1.6900  -43.7220   -6.0800 O.2   159  ASP159     -0.2864
    192  CB         4.2520  -42.9270   -7.2570 C.3   159  ASP159      0.1436
    193  CG         5.5050  -42.7980   -8.1360 C.2   159  ASP159      0.3671
    194  OD1        5.6160  -43.4810   -9.1780 O.co2 159  ASP159     -0.2456
    195  OD2        6.4010  -42.0090   -7.7670 O.co2 159  ASP159     -0.2456
@<TRIPOS>BOND
     1    60    61    1
     2    61    62    1
     3    61    64    1
     4    69    70    1
     5    62    63    2
     6    64    65    1
     7   168   167    2
     8   167   166    1
     9    70    71    1
    10    70    73    1
    11    65    66    1
    12    71    72    2
    13   171   170   ar
    14    73    74    1
    15   170   172   ar
    16   170   169    1
    17   166   169    1
    18   166   165    1
    19    66    68   ar
    20    66    67   ar
    21    75    74    1
    22   165   159   am
    23    74    76    1
    24   159   160    2
    25   159   158    1
    26   157   158    1
    27   180   179    1
    28   173   174    1
    29   158   161    1
    30    92    91    1
    31    59    58    1
    32   179   178    1
    33    80    79    2
    34    77    78    1
    35    91    90    1
    36    83    81    1
    37   144   145    1
    38   161   163    1
    39   161   162    1
    40   146   145    1
    41   146   147    2
    42    58    57    1
    43   174   175    1
    44   174   177    1
    45   148   145    1
    46    79    78    1
    47    78    81    1
    48   176   175    2
    49   178   177    1
    50    90    89    1
    51    81    82    1
    52   162   164    1
    53    57    56    1
    54    89    86    1
    55    82    84    1
    56   149   150    1
    57    99    98    1
    58    99   100    1
    59    56    55    1
    60    98    97    1
    61    86    85    1
    62    86    87    1
    63    55    52    1
    64   187   186    1
    65   187   181    1
    66   150   153    1
    67   150   151    1
    68   152   151    2
    69   153   154    1
    70   108   107   ar
    71   186   185    1
    72    54    53    2
    73    97    94    1
    74    87    88    2
    75   181   182    1
    76   142   141   ar
    77    53    52    1
    78   140   141    1
    79   140   137    1
    80   156   154    1
    81    52    51    1
    82   107   109   ar
    83   107   106    1
    84   154   155    1
    85    94    93    1
    86    94    95    1
    87   138   137    1
    88   138   139    2
    89    28    26    1
    90   141   143   ar
    91   137   136    1
    92   105   106    1
    93   105   102    1
    94   185   182    1
    95   101    95   am
    96   101   102    1
    97   182   183    1
    98    95    96    2
    99   102   103    1
   100    27    26    1
   101   104   103    2
   102    26    23    1
   103   131   130    2
   104    20    19    1
   105    20    21    2
   106   184   183    2
   107   136   130   am
   108    22    23    1
   109   183   188   am
   110    19    18    1
   111   103   110   am
   112    23    24    1
   113    49    48    2
   114   130   129    1
   115    50    47    1
   116   188   189    1
   117    48    47    1
   118   194   193   ar
   119    18    12   am
   120   110   111    1
   121    13    12    2
   122    47    46    1
   123    24    25    2
   124   116   117    1
   125   116   112   am
   126   129   128    1
   127   129   132    1
   128   117   118    1
   129   134   132    1
   130    12    11    1
   131   193   195   ar
   132   193   192    1
   133   111   112    1
   134   111   114    1
   135   112   113    2
   136   189   192    1
   137   189   190    1
   138   133   132    1
   139   133   135    1
   140   128   122   am
   141    15    17    1
   142    15    14    1
   143   120   118   am
   144   120   121    1
   145   118   119    2
   146   190   191    2
   147    14    11    1
   148    14    16    1
   149    11    10    1
   150   114   115    1
   151   122   121    1
   152   122   123    2
   153   121   124    1
   154   126   125    2
   155   124   125    1
   156   125   127   am
   157    41    40    2
   158    29    30    1
   159    40    39    1
   160    30    33    1
   161    30    31    1
   162    44    42    1
   163    33    34    1
   164     4     3    2
   165    31    32    2
   166    34    35    1
   167    39    42    1
   168    39    38    1
   169     3     2    1
   170    42    43    1
   171    43    45    1
   172     8     9    1
   173     8     7    1
   174    37    35   am
   175    35    36    2
   176     6     7    1
   177     6     5    1
   178     2     5    1
   179     2     1    1
