@<TRIPOS>MOLECULE
tmp/3w1gA01.pdb
 185 173 0 0 0
SMALL
GASTEIGER

@<TRIPOS>ATOM
      1  N         25.2080   17.1300  152.3690 N.3   237  LEU237     -0.1231
      2  CA        25.3180   18.3860  151.6170 C.3   237  LEU237      0.1693
      3  C         26.5980   18.5330  150.7590 C.2   237  LEU237      0.2591
      4  O         27.6420   17.9730  151.0600 O.2   237  LEU237     -0.2718
      5  CB        25.1840   19.5810  152.5690 C.3   237  LEU237      0.0284
      6  CG        23.8720   19.6930  153.3490 C.3   237  LEU237      0.0019
      7  CD1       23.7770   21.0460  154.0150 C.3   237  LEU237      0.0001
      8  CD2       22.6610   19.4550  152.4460 C.3   237  LEU237      0.0001
      9  N         26.4970   19.3070  149.6890 N.am  238  ALA238     -0.1980
     10  CA        27.6000   19.4950  148.7710 C.3   238  ALA238      0.1597
     11  C         28.2880   20.8100  149.0680 C.2   238  ALA238      0.2287
     12  O         27.6130   21.8300  149.2410 O.2   238  ALA238     -0.2864
     13  CB        27.0770   19.5120  147.3430 C.3   238  ALA238      0.0319
     14  N         28.1830   13.6430  138.5300 N.3   258  GLU258     -0.1231
     15  CA        26.7690   13.3300  138.5560 C.3   258  GLU258      0.1699
     16  C         26.0020   14.5900  138.2390 C.2   258  GLU258      0.2593
     17  O         26.4480   15.6920  138.5760 O.2   258  GLU258     -0.2718
     18  CB        26.3850   12.8370  139.9520 C.3   258  GLU258      0.0402
     19  CG        25.1830   11.9290  139.9850 C.3   258  GLU258      0.1161
     20  CD        24.8810   11.3980  141.3770 C.2   258  GLU258      0.3649
     21  OE1       25.0690   12.1440  142.3640 O.co2 258  GLU258     -0.2457
     22  OE2       24.4510   10.2250  141.4780 O.co2 258  GLU258     -0.2457
     23  N         24.8430   14.4300  137.6050 N.am  259  THR259     -0.1939
     24  CA        23.9890   15.5650  137.2510 C.3   259  THR259      0.2028
     25  C         23.5190   16.3430  138.4780 C.2   259  THR259      0.2642
     26  O         23.1460   15.7600  139.4940 O.2   259  THR259     -0.2714
     27  CB        22.7850   15.1130  136.3930 C.3   259  THR259      0.1808
     28  OG1       23.2400   14.7160  135.0880 O.3   259  THR259     -0.2208
     29  CG2       21.7990   16.2350  136.2330 C.3   259  THR259      0.0379
     30  N         23.5590   17.6670  138.3970 N.am  260  LYS260     -0.1963
     31  CA        23.0680   18.4820  139.5020 C.3   260  LYS260      0.1728
     32  C         21.6790   19.0380  139.1850 C.2   260  LYS260      0.2616
     33  O         21.5070   19.9150  138.3390 O.2   260  LYS260     -0.2715
     34  CB        24.0680   19.5930  139.8490 C.3   260  LYS260      0.0311
     35  CG        23.5910   20.6260  140.8610 C.3   260  LYS260      0.0038
     36  CD        24.5820   21.7720  140.9340 C.3   260  LYS260      0.0206
     37  CE        23.9440   23.0320  141.4710 C.3   260  LYS260      0.1093
     38  NZ        23.4630   22.8040  142.8510 N.3   260  LYS260     -0.1314
     39  N         20.6860   18.5120  139.8810 N.am  261  LEU261     -0.1963
     40  CA        19.3070   18.8910  139.6470 C.3   261  LEU261      0.1728
     41  C         18.8270   19.9000  140.6890 C.2   261  LEU261      0.2616
     42  O         19.0140   19.6970  141.8900 O.2   261  LEU261     -0.2715
     43  CB        18.4360   17.6430  139.7000 C.3   261  LEU261      0.0311
     44  CG        18.9700   16.4360  138.9230 C.3   261  LEU261      0.0022
     45  CD1       18.4740   15.1700  139.5770 C.3   261  LEU261      0.0001
     46  CD2       18.5310   16.4750  137.4680 C.3   261  LEU261      0.0001
     47  N         18.2080   20.9850  140.2290 N.am  262  ASP262     -0.1957
     48  CA        17.6320   21.9700  141.1330 C.3   262  ASP262      0.1840
     49  C         16.1420   21.6580  141.3980 C.2   262  ASP262      0.2622
     50  O         15.2360   22.2820  140.8380 O.2   262  ASP262     -0.2715
     51  CB        17.8320   23.3900  140.5800 C.3   262  ASP262      0.1450
     52  CG        19.2670   23.8910  140.6360 C.2   262  ASP262      0.3671
     53  OD1       20.1170   23.2340  141.2810 O.co2 262  ASP262     -0.2456
     54  OD2       19.5520   24.9220  140.0320 O.co2 262  ASP262     -0.2456
     55  N         15.8970   20.6750  142.2540 N.am  263  GLY263     -0.1954
     56  CA        14.5400   20.3320  142.6200 C.3   263  GLY263      0.1869
     57  C         14.3170   20.4810  144.1020 C.2   263  GLY263      0.2309
     58  O         14.8890   21.3550  144.7470 O.2   263  GLY263     -0.2863
     59  N         14.9000   18.5400  147.5050 N.3   265  ARG265     -0.1245
     60  CA        15.5620   17.4530  148.1900 C.3   265  ARG265      0.1563
     61  C         14.4950   16.6970  148.9780 C.2   265  ARG265      0.2260
     62  O         13.8240   17.2690  149.8450 O.2   265  ARG265     -0.2867
     63  CB        16.6500   18.0260  149.1000 C.3   265  ARG265      0.0307
     64  CG        17.5740   17.0140  149.7460 C.3   265  ARG265      0.0489
     65  CD        18.3060   16.1820  148.7090 C.3   265  ARG265      0.2205
     66  NE        19.3540   15.3510  149.3040 N.pl3 265  ARG265     -0.0865
     67  CZ        20.5740   15.7890  149.5850 C.cat 265  ARG265      0.5346
     68  NH1       20.8890   17.0540  149.3330 N.pl3 265  ARG265      0.1354
     69  NH2       21.4800   14.9690  150.1120 N.pl3 265  ARG265      0.1354
     70  N         14.1460   18.3150  153.2330 N.3   280  ARG280     -0.1245
     71  CA        15.5100   18.4450  153.7510 C.3   280  ARG280      0.1563
     72  C         15.5290   18.9310  155.1810 C.2   280  ARG280      0.2260
     73  O         16.4920   18.6980  155.8920 O.2   280  ARG280     -0.2867
     74  CB        16.3400   19.4000  152.8880 C.3   280  ARG280      0.0307
     75  CG        15.8570   20.8270  152.9770 C.3   280  ARG280      0.0489
     76  CD        16.5810   21.7490  152.0300 C.3   280  ARG280      0.2205
     77  NE        17.9970   21.9010  152.3520 N.pl3 280  ARG280     -0.0865
     78  CZ        18.9750   21.7750  151.4620 C.cat 280  ARG280      0.5346
     79  NH1       18.6930   21.4830  150.1940 N.pl3 280  ARG280      0.1354
     80  NH2       20.2350   21.9360  151.8430 N.pl3 280  ARG280      0.1354
     81  N         16.0490   14.1300  144.4310 N.3   318  GLU318     -0.1245
     82  CA        15.3480   15.3940  144.2130 C.3   318  GLU318      0.1567
     83  C         14.0200   15.1390  143.5350 C.2   318  GLU318      0.2260
     84  O         13.9520   14.3450  142.5990 O.2   318  GLU318     -0.2867
     85  CB        16.1840   16.3060  143.3180 C.3   318  GLU318      0.0388
     86  CG        17.5350   16.6700  143.9060 C.3   318  GLU318      0.1160
     87  CD        17.4870   17.9460  144.7060 C.2   318  GLU318      0.3649
     88  OE1       18.2770   18.0790  145.6660 O.co2 318  GLU318     -0.2457
     89  OE2       16.6590   18.8170  144.3680 O.co2 318  GLU318     -0.2457
     90  N         12.8280   25.7540  138.5500 N.3   332  LYS332     -0.1245
     91  CA        11.9910   26.4080  139.5570 C.3   332  LYS332      0.1561
     92  C         11.6120   27.8390  139.1640 C.2   332  LYS332      0.2260
     93  O         10.4750   28.2670  139.3650 O.2   332  LYS332     -0.2867
     94  CB        12.6730   26.3870  140.9210 C.3   332  LYS332      0.0271
     95  CG        12.8900   24.9860  141.4680 C.3   332  LYS332      0.0035
     96  CD        11.5840   24.2580  141.7350 C.3   332  LYS332      0.0206
     97  CE        11.7640   22.9320  142.4360 C.3   332  LYS332      0.1093
     98  NZ        10.4380   22.1010  142.3160 N.3   332  LYS332     -0.1314
     99  N         19.6830    9.6760  143.8070 N.3   354  PHE354     -0.1241
    100  CA        21.1360    9.5880  143.7040 C.3   354  PHE354      0.1605
    101  C         21.7700    8.8170  144.8630 C.2   354  PHE354      0.2264
    102  O         22.9880    8.6970  144.9340 O.2   354  PHE354     -0.2867
    103  CB        21.7740   10.9700  143.5460 C.3   354  PHE354      0.0534
    104  CG        21.2500   11.9980  144.5040 C.ar  354  PHE354     -0.0203
    105  CD1       20.4430   13.0390  144.0530 C.ar  354  PHE354     -0.0042
    106  CD2       21.5570   11.9340  145.8520 C.ar  354  PHE354     -0.0042
    107  CE1       19.9470   13.9990  144.9320 C.ar  354  PHE354     -0.0003
    108  CE2       21.0610   12.8920  146.7410 C.ar  354  PHE354     -0.0003
    109  CZ        20.2530   13.9180  146.2750 C.ar  354  PHE354     -0.0000
    110  N         19.7480    9.2710  138.8940 N.3   390  VAL390     -0.1245
    111  CA        20.5300   10.3760  138.3450 C.3   390  VAL390      0.1561
    112  C         21.7410    9.8480  137.5710 C.2   390  VAL390      0.2260
    113  O         22.4550    8.9540  138.0440 O.2   390  VAL390     -0.2867
    114  CB        21.0180   11.3080  139.4550 C.3   390  VAL390      0.0252
    115  CG1       21.8110   12.4480  138.8710 C.3   390  VAL390      0.0019
    116  CG2       19.8480   11.8290  140.2410 C.3   390  VAL390      0.0019
    117  N         22.3900   23.8190  136.0610 N.3   414  GLU414     -0.1245
    118  CA        23.0060   25.0040  136.6460 C.3   414  GLU414      0.1567
    119  C         24.3760   24.7120  137.2380 C.2   414  GLU414      0.2260
    120  O         25.0540   25.6110  137.7500 O.2   414  GLU414     -0.2867
    121  CB        22.0850   25.6410  137.6870 C.3   414  GLU414      0.0388
    122  CG        20.7890   26.1920  137.0960 C.3   414  GLU414      0.1160
    123  CD        20.2800   27.4300  137.8240 C.2   414  GLU414      0.3649
    124  OE1       20.5520   28.5590  137.3510 O.co2 414  GLU414     -0.2457
    125  OE2       19.6000   27.2730  138.8620 O.co2 414  GLU414     -0.2457
    126  N         27.7110   17.8520  139.9390 N.3   417  MET417     -0.1245
    127  CA        28.1620   17.3280  141.2180 C.3   417  MET417      0.1570
    128  C         29.4090   16.4780  141.0160 C.2   417  MET417      0.2261
    129  O         29.5300   15.7500  140.0250 O.2   417  MET417     -0.2867
    130  CB        27.0610   16.4870  141.8590 C.3   417  MET417      0.0387
    131  CG        25.7710   17.2530  142.1470 C.3   417  MET417      0.0595
    132  SD        25.9010   18.2880  143.6170 S.3   417  MET417     -0.1393
    133  CE        26.5790   17.0940  144.7660 C.3   417  MET417      0.0692
    134  N         31.7440   13.7070  143.2520 N.3   419  LYS419     -0.1245
    135  CA        31.6470   12.8860  144.4440 C.3   419  LYS419      0.1561
    136  C         32.8080   11.8990  144.5630 C.2   419  LYS419      0.2260
    137  O         33.2540   11.3340  143.5650 O.2   419  LYS419     -0.2867
    138  CB        30.3210   12.1230  144.4280 C.3   419  LYS419      0.0271
    139  CG        29.0870   12.9890  144.5860 C.3   419  LYS419      0.0035
    140  CD        27.8850   12.1220  144.9100 C.3   419  LYS419      0.0206
    141  CE        26.6070   12.9380  145.0840 C.3   419  LYS419      0.1093
    142  NZ        25.4270   12.0300  145.2840 N.3   419  LYS419     -0.1314
    143  N         28.3100   19.1250  155.4060 N.3   430  ARG430     -0.1245
    144  CA        28.5120   19.7560  154.1090 C.3   430  ARG430      0.1563
    145  C         29.9250   19.5170  153.5980 C.2   430  ARG430      0.2260
    146  O         30.8940   19.5470  154.3550 O.2   430  ARG430     -0.2867
    147  CB        28.2080   21.2520  154.1530 C.3   430  ARG430      0.0307
    148  CG        28.4580   21.9560  152.8310 C.3   430  ARG430      0.0489
    149  CD        28.1810   23.4360  152.9310 C.3   430  ARG430      0.2205
    150  NE        26.7710   23.7060  153.1840 N.pl3 430  ARG430     -0.0865
    151  CZ        25.8340   23.6620  152.2450 C.cat 430  ARG430      0.5346
    152  NH1       24.5730   23.9260  152.5520 N.pl3 430  ARG430      0.1354
    153  NH2       26.1590   23.3500  150.9970 N.pl3 430  ARG430      0.1354
    154  N         31.1180   15.0600  148.9760 N.3   434  TRP434     -0.1241
    155  CA        30.4030   15.6390  147.8340 C.3   434  TRP434      0.1605
    156  C         30.7580   17.0950  147.5910 C.2   434  TRP434      0.2264
    157  O         30.7450   17.9080  148.5210 O.2   434  TRP434     -0.2867
    158  CB        28.8860   15.5570  148.0060 C.3   434  TRP434      0.0550
    159  CG        28.3130   14.2060  148.2370 C.ar  434  TRP434      0.0003
    160  CD1       28.9820   13.0230  148.3040 C.ar  434  TRP434      0.0946
    161  CD2       26.9310   13.9020  148.4470 C.ar  434  TRP434      0.0152
    162  NE1       28.1040   11.9980  148.5500 N.ar  434  TRP434     -0.2442
    163  CE2       26.8370   12.5100  148.6450 C.ar  434  TRP434      0.0810
    164  CE3       25.7610   14.6750  148.4930 C.ar  434  TRP434      0.0012
    165  CZ2       25.6200   11.8660  148.8780 C.ar  434  TRP434      0.0191
    166  CZ3       24.5500   14.0340  148.7220 C.ar  434  TRP434      0.0001
    167  CH2       24.4910   12.6380  148.9080 C.ar  434  TRP434      0.0015
    168  N         30.0100   20.5360  144.7910 N.3   436  LYS436     -0.1245
    169  CA        29.2260   21.0350  143.6660 C.3   436  LYS436      0.1561
    170  C         30.0030   22.1120  142.9280 C.2   436  LYS436      0.2260
    171  O         30.6840   22.9410  143.5520 O.2   436  LYS436     -0.2867
    172  CB        27.8630   21.5730  144.1140 C.3   436  LYS436      0.0271
    173  CG        27.9490   22.5920  145.2220 C.3   436  LYS436      0.0035
    174  CD        26.6290   23.2840  145.4310 C.3   436  LYS436      0.0206
    175  CE        26.7100   24.1820  146.6480 C.3   436  LYS436      0.1093
    176  NZ        25.4560   24.9430  146.8350 N.3   436  LYS436     -0.1314
    177  N         29.7330   25.1610  139.9080 N.3   438  LYS438     -0.1245
    178  CA        28.8910   26.0800  139.1380 C.3   438  LYS438      0.1561
    179  C         29.8090   27.0880  138.4550 C.2   438  LYS438      0.2260
    180  O         30.9550   27.2600  138.8690 O.2   438  LYS438     -0.2867
    181  CB        27.9240   26.8370  140.0560 C.3   438  LYS438      0.0271
    182  CG        26.7550   26.0270  140.5970 C.3   438  LYS438      0.0035
    183  CD        26.0750   26.7420  141.7830 C.3   438  LYS438      0.0206
    184  CE        24.7220   27.3400  141.4090 C.3   438  LYS438      0.1093
    185  NZ        24.3080   28.4260  142.3500 N.3   438  LYS438     -0.1314
@<TRIPOS>BOND
     1    28    27    1
     2   117   118    1
     3    29    27    1
     4    27    24    1
     5   118   119    1
     6   118   121    1
     7   122   121    1
     8   122   123    1
     9   119   120    2
    10    24    23    1
    11    24    25    1
    12   124   123   ar
    13    46    44    1
    14   112   113    2
    15   112   111    1
    16    23    16   am
    17   123   125   ar
    18    16    15    1
    19    16    17    2
    20    33    32    2
    21   111   110    1
    22   111   114    1
    23    30    25   am
    24    30    31    1
    25   179   180    2
    26   179   178    1
    27    25    26    2
    28    14    15    1
    29    90    91    1
    30    15    18    1
    31   115   114    1
    32    44    45    1
    33    44    43    1
    34   178   177    1
    35   178   181    1
    36    92    93    2
    37    92    91    1
    38    32    31    1
    39    32    39   am
    40   114   116    1
    41    31    34    1
    42    91    94    1
    43    40    43    1
    44    40    39    1
    45    40    41    1
    46    34    35    1
    47   126   127    1
    48    18    19    1
    49    19    20    1
    50   129   128    2
    51    54    52   ar
    52   181   182    1
    53    47    41   am
    54    47    48    1
    55    51    52    1
    56    51    48    1
    57   182   183    1
    58    52    53   ar
    59    41    42    2
    60    50    49    2
    61    35    36    1
    62    94    95    1
    63    36    37    1
    64   128   127    1
    65    48    49    1
    66   127   130    1
    67    20    22   ar
    68    20    21   ar
    69    49    55   am
    70   184   183    1
    71   184   185    1
    72    95    96    1
    73    37    38    1
    74    96    97    1
    75   130   131    1
    76   131   132    1
    77    55    56    1
    78    98    97    1
    79    84    83    2
    80    56    57    1
    81   170   171    2
    82   170   169    1
    83   134   135    1
    84    85    86    1
    85    85    82    1
    86    83    82    1
    87   103   100    1
    88   103   104    1
    89   137   136    2
    90   132   133    1
    91   169   172    1
    92   169   168    1
    93   100    99    1
    94   100   101    1
    95    86    87    1
    96   105   104   ar
    97   105   107   ar
    98    57    58    2
    99   172   173    1
   100    82    81    1
   101    89    87   ar
   102   138   135    1
   103   138   139    1
   104   135   136    1
   105   104   106   ar
   106   139   140    1
   107    87    88   ar
   108   101   102    2
   109   140   141    1
   110   107   109   ar
   111   141   142    1
   112   173   174    1
   113   174   175    1
   114   106   108   ar
   115   109   108   ar
   116   175   176    1
   117    13    10    1
   118    59    60    1
   119   156   155    1
   120   156   157    2
   121   155   158    1
   122   155   154    1
   123   158   159    1
   124    60    61    1
   125    60    63    1
   126   159   160   ar
   127   159   161   ar
   128   160   162   ar
   129   161   164   ar
   130   161   163   ar
   131   164   166   ar
   132   162   163   ar
   133   163   165   ar
   134    65    66    1
   135    65    64    1
   136   166   167   ar
   137    10    11    1
   138    10     9    1
   139   165   167   ar
   140    61    62    2
   141    11    12    2
   142    63    64    1
   143    66    67    2
   144    68    67    1
   145    67    69    1
   146     9     3   am
   147    79    78    1
   148     3     4    2
   149     3     2    1
   150   153   151    1
   151    78    80    1
   152    78    77    2
   153     2     1    1
   154     2     5    1
   155    76    77    1
   156    76    75    1
   157   151   152    1
   158   151   150    2
   159     8     6    1
   160     5     6    1
   161   148   149    1
   162   148   147    1
   163    74    75    1
   164    74    71    1
   165   149   150    1
   166    70    71    1
   167     6     7    1
   168   145   144    1
   169   145   146    2
   170    71    72    1
   171   144   147    1
   172   144   143    1
   173    72    73    2
