@<TRIPOS>MOLECULE
tmp/3w1pB01.pdb
 97 90 0 0 0
SMALL
GASTEIGER

@<TRIPOS>ATOM
      1  N        -14.8780   24.1690   79.1130 N.3    20  ALA20      -0.1245
      2  CA       -14.7370   22.9290   78.4300 C.3    20  ALA20       0.1562
      3  C        -13.3690   22.2660   78.7910 C.2    20  ALA20       0.2260
      4  O        -12.3160   22.9190   78.8610 O.2    20  ALA20      -0.2867
      5  CB       -14.8880   23.1100   76.9050 C.3    20  ALA20       0.0290
      6  N        -16.5630   17.9340   77.4590 N.3    44  LYS44      -0.1231
      7  CA       -15.2180   17.8840   76.9620 C.3    44  LYS44       0.1693
      8  C        -15.1890   17.9900   75.4520 C.2    44  LYS44       0.2592
      9  O        -15.9350   17.2910   74.7910 O.2    44  LYS44      -0.2718
     10  CB       -14.6020   16.5100   77.3440 C.3    44  LYS44       0.0285
     11  CG       -13.2460   16.2060   76.7230 C.3    44  LYS44       0.0035
     12  CD       -12.2050   17.2610   77.1340 C.3    44  LYS44       0.0206
     13  CE       -10.8790   17.2070   76.3400 C.3    44  LYS44       0.1093
     14  NZ        -9.8730   18.2280   76.8100 N.3    44  LYS44      -0.1314
     15  N        -14.2840   18.7750   74.9040 N.am   45  SER45      -0.1952
     16  CA       -14.1780   18.8720   73.4270 C.3    45  SER45       0.1924
     17  C        -13.9480   17.4920   72.8880 C.2    45  SER45       0.2314
     18  O        -13.0970   16.7530   73.4050 O.2    45  SER45      -0.2863
     19  CB       -13.0400   19.7710   72.9800 C.3    45  SER45       0.2116
     20  OG       -13.3630   21.1140   73.2420 O.3    45  SER45      -0.2180
     21  N         -1.3520   22.9640   80.7870 N.3    68  ASN68      -0.1240
     22  CA        -1.7760   21.6620   80.3290 C.3    68  ASN68       0.1653
     23  C         -1.4270   21.4120   78.8850 C.2    68  ASN68       0.2266
     24  O         -1.4370   22.3390   78.0660 O.2    68  ASN68      -0.2867
     25  CB        -3.2790   21.4600   80.5330 C.3    68  ASN68       0.1155
     26  CG        -4.1300   21.9460   79.3620 C.2    68  ASN68       0.2627
     27  OD1       -4.2940   21.2640   78.3290 O.2    68  ASN68      -0.2716
     28  ND2       -4.6540   23.1670   79.5020 N.am   68  ASN68      -0.0877
     29  N         -3.0370   18.3680   77.3980 N.3    70  MET70      -0.1230
     30  CA        -3.7900   17.1590   77.6110 C.3    70  MET70       0.1702
     31  C         -3.7530   16.2860   76.3750 C.2    70  MET70       0.2593
     32  O         -3.6720   15.0770   76.4690 O.2    70  MET70      -0.2718
     33  CB        -5.2510   17.4570   77.9360 C.3    70  MET70       0.0401
     34  CG        -5.5050   18.2460   79.1850 C.3    70  MET70       0.0596
     35  SD        -4.8230   17.5650   80.7020 S.3    70  MET70      -0.1393
     36  CE        -5.9850   16.2720   81.1120 C.3    70  MET70       0.0692
     37  N         -3.8270   16.9160   75.2080 N.am   71  GLY71      -0.1942
     38  CA        -3.7510   16.1780   73.9520 C.3    71  GLY71       0.2014
     39  C         -5.1340   15.6650   73.5230 C.2    71  GLY71       0.2638
     40  O         -5.2510   14.6500   72.8390 O.2    71  GLY71      -0.2714
     41  N         -6.1770   16.3490   73.9520 N.am   72  LEU72      -0.1977
     42  CA        -7.5350   16.0670   73.4890 C.3    72  LEU72       0.1596
     43  C         -8.0230   14.6450   73.8540 C.2    72  LEU72       0.2287
     44  O         -8.6520   13.9920   73.0590 O.2    72  LEU72      -0.2864
     45  CB        -7.6250   16.3380   71.9720 C.3    72  LEU72       0.0297
     46  CG        -8.8070   17.2200   71.5130 C.3    72  LEU72       0.0022
     47  CD1       -8.9420   17.3450   70.0050 C.3    72  LEU72       0.0001
     48  CD2      -10.1410   16.8030   72.1620 C.3    72  LEU72       0.0001
     49  N        -14.2240   19.5240   68.7560 N.3   100  SER100     -0.1217
     50  CA       -12.9200   19.9310   68.2970 C.3   100  SER100      0.1889
     51  C        -12.2470   18.9060   67.3370 C.2   100  SER100      0.2288
     52  O        -11.1680   18.3430   67.5780 O.2   100  SER100     -0.2866
     53  CB       -12.0120   20.2540   69.5150 C.3   100  SER100      0.2089
     54  OG       -10.7350   20.7370   69.0620 O.3   100  SER100     -0.2183
     55  N        -14.8480   24.4720   68.8990 N.3   128  ASN128     -0.1240
     56  CA       -13.5510   24.8670   69.4080 C.3   128  ASN128      0.1653
     57  C        -12.6630   25.1600   68.2500 C.2   128  ASN128      0.2266
     58  O        -12.3010   24.2710   67.4950 O.2   128  ASN128     -0.2867
     59  CB       -12.9430   23.7800   70.3000 C.3   128  ASN128      0.1155
     60  CG       -11.6830   24.1940   70.9710 C.2   128  ASN128      0.2627
     61  OD1      -11.1580   25.2840   70.7960 O.2   128  ASN128     -0.2716
     62  ND2      -11.1890   23.3030   71.8000 N.am  128  ASN128     -0.0877
     63  N         -7.6780   24.8530   69.9680 N.3   131  CYS131     -0.1221
     64  CA        -6.7440   23.8840   70.6470 C.3   131  CYS131      0.1794
     65  C         -5.2180   24.2060   70.4740 C.2   131  CYS131      0.2443
     66  O         -4.7290   24.1330   69.3480 O.2   131  CYS131     -0.2733
     67  CB        -6.9770   22.4830   70.1350 C.3   131  CYS131      0.0970
     68  SG        -6.0130   21.3260   71.1450 S.3   131  CYS131     -0.0800
     69  N         -4.4620   24.5590   71.5710 N.am  132  PRO132     -0.2718
     70  CA        -3.0280   24.9530   71.3350 C.3   132  PRO132      0.1535
     71  C         -1.9630   23.8260   71.4570 C.2   132  PRO132      0.2598
     72  O         -0.7620   24.0980   71.1600 O.2   132  PRO132     -0.2715
     73  CB        -2.7910   26.0170   72.4080 C.3   132  PRO132      0.0310
     74  CG        -3.6240   25.5020   73.5860 C.3   132  PRO132      0.0237
     75  CD        -4.8230   24.7460   73.0010 C.3   132  PRO132      0.0939
     76  N         -2.4410   22.5980   71.7870 N.am  133  ASN133     -0.1973
     77  CA        -1.6340   21.4230   72.3010 C.3   133  ASN133      0.1688
     78  C         -1.4820   20.1250   71.4680 C.2   133  ASN133      0.2292
     79  O         -0.8770   19.1120   71.9450 O.2   133  ASN133     -0.2864
     80  CB        -2.2370   21.0210   73.6530 C.3   133  ASN133      0.1181
     81  CG        -1.9970   22.0870   74.6830 C.2   133  ASN133      0.2629
     82  OD1       -0.9180   22.6640   74.6430 O.2   133  ASN133     -0.2716
     83  ND2       -2.9990   22.4120   75.5390 N.am  133  ASN133     -0.0877
     84  N         -9.8460   30.5700   75.3050 N.3   195  ASN195     -0.1225
     85  CA        -9.0910   29.3340   75.5140 C.3   195  ASN195      0.1785
     86  C         -7.7720   29.6820   76.2220 C.2   195  ASN195      0.2597
     87  O         -7.4740   30.8580   76.4690 O.2   195  ASN195     -0.2718
     88  CB        -8.7870   28.5700   74.1890 C.3   195  ASN195      0.1169
     89  CG        -8.7430   27.0520   74.3760 C.2   195  ASN195      0.2627
     90  OD1       -8.0760   26.5250   75.2590 O.2   195  ASN195     -0.2716
     91  ND2       -9.4590   26.3600   73.5450 N.am  195  ASN195     -0.0877
     92  N         -6.9860   28.6640   76.5740 N.am  196  SER196     -0.1952
     93  CA        -5.7740   28.8970   77.3140 C.3   196  SER196      0.1924
     94  C         -4.7750   29.7130   76.5290 C.2   196  SER196      0.2314
     95  O         -4.8410   29.7630   75.2980 O.2   196  SER196     -0.2863
     96  CB        -5.1690   27.5670   77.7910 C.3   196  SER196      0.2116
     97  OG        -5.0050   26.7000   76.7560 O.3   196  SER196     -0.2180
@<TRIPOS>BOND
     1    51    52    2
     2    51    50    1
     3    58    57    2
     4    57    56    1
     5    50    49    1
     6    50    53    1
     7    55    56    1
     8    54    53    1
     9    66    65    2
    10    56    59    1
    11    63    64    1
    12    47    46    1
    13    67    64    1
    14    67    68    1
    15    59    60    1
    16    65    64    1
    17    65    69   am
    18    61    60    2
    19    60    62   am
    20    72    71    2
    21    70    71    1
    22    70    69    1
    23    70    73    1
    24    71    76   am
    25    78    79    2
    26    78    77    1
    27    46    45    1
    28    46    48    1
    29    69    75    1
    30    76    77    1
    31    45    42    1
    32    77    80    1
    33    73    74    1
    34    40    39    2
    35    17    18    2
    36    17    16    1
    37    19    20    1
    38    19    16    1
    39    75    74    1
    40    44    43    2
    41    16    15    1
    42    42    43    1
    43    42    41    1
    44    39    38    1
    45    39    41   am
    46    91    89   am
    47    80    81    1
    48    38    37    1
    49    88    89    1
    50    88    85    1
    51    89    90    2
    52    82    81    2
    53    81    83   am
    54     9     8    2
    55    15     8   am
    56    37    31   am
    57    95    94    2
    58    84    85    1
    59     8     7    1
    60    85    86    1
    61    86    87    2
    62    86    92   am
    63    13    14    1
    64    13    12    1
    65    31    32    2
    66    31    30    1
    67    94    93    1
    68    92    93    1
    69    11    12    1
    70    11    10    1
    71    97    96    1
    72     5     2    1
    73     7    10    1
    74     7     6    1
    75    93    96    1
    76    29    30    1
    77    30    33    1
    78    33    34    1
    79    24    23    2
    80    27    26    2
    81     2     3    1
    82     2     1    1
    83     3     4    2
    84    23    22    1
    85    34    35    1
    86    26    28   am
    87    26    25    1
    88    22    25    1
    89    22    21    1
    90    35    36    1
