@<TRIPOS>MOLECULE
tmp/3w1qA01.pdb
 118 110 0 0 0
SMALL
GASTEIGER

@<TRIPOS>ATOM
      1  N         49.7460  -16.7520  -15.9730 N.3    44  LYS44      -0.1231
      2  CA        48.3200  -16.7210  -15.5490 C.3    44  LYS44       0.1693
      3  C         48.2700  -16.5770  -14.0030 C.2    44  LYS44       0.2592
      4  O         49.0280  -17.2180  -13.2970 O.2    44  LYS44      -0.2718
      5  CB        47.6420  -18.0130  -15.9920 C.3    44  LYS44       0.0285
      6  CG        46.2390  -18.2770  -15.4210 C.3    44  LYS44       0.0035
      7  CD        45.2130  -17.3230  -15.9690 C.3    44  LYS44       0.0206
      8  CE        43.8910  -17.4460  -15.2430 C.3    44  LYS44       0.1093
      9  NZ        42.8620  -16.4240  -15.5820 N.3    44  LYS44      -0.1314
     10  N         47.3470  -15.7950  -13.4580 N.am   45  SER45      -0.1952
     11  CA        47.1570  -15.7720  -11.9710 C.3    45  SER45       0.1924
     12  C         46.8780  -17.1750  -11.4250 C.2    45  SER45       0.2314
     13  O         46.0570  -17.9030  -11.9730 O.2    45  SER45      -0.2863
     14  CB        46.0280  -14.8660  -11.6000 C.3    45  SER45       0.2116
     15  OG        46.3660  -13.5290  -11.8290 O.3    45  SER45      -0.2180
     16  N         34.6790  -11.6710  -20.0910 N.3    68  ASN68      -0.1225
     17  CA        35.1090  -12.9570  -19.4940 C.3    68  ASN68       0.1785
     18  C         34.7100  -13.1750  -18.0480 C.2    68  ASN68       0.2598
     19  O         34.6850  -12.2740  -17.2050 O.2    68  ASN68      -0.2718
     20  CB        36.6470  -13.1910  -19.6130 C.3    68  ASN68       0.1169
     21  CG        37.4360  -12.6530  -18.4500 C.2    68  ASN68       0.2627
     22  OD1       37.5700  -13.3290  -17.4330 O.2    68  ASN68      -0.2716
     23  ND2       37.9050  -11.3820  -18.5530 N.am   68  ASN68      -0.0877
     24  N         34.4250  -14.4620  -17.7670 N.am   69  SER69      -0.1938
     25  CA        34.3500  -14.8840  -16.4410 C.3    69  SER69       0.2055
     26  C         34.9910  -16.2610  -16.4140 C.2    69  SER69       0.2643
     27  O         34.3390  -17.2530  -16.1890 O.2    69  SER69      -0.2714
     28  CB        32.9150  -14.7900  -15.9810 C.3    69  SER69       0.2130
     29  OG        32.8150  -15.4780  -14.7940 O.3    69  SER69      -0.2179
     30  N         36.3150  -16.2610  -16.6240 N.am   70  MET70      -0.1962
     31  CA        37.0700  -17.5080  -16.7410 C.3    70  MET70       0.1736
     32  C         36.9660  -18.3700  -15.4800 C.2    70  MET70       0.2617
     33  O         36.9150  -19.6110  -15.5690 O.2    70  MET70      -0.2715
     34  CB        38.5350  -17.2350  -17.0180 C.3    70  MET70       0.0427
     35  CG        38.8320  -16.3100  -18.1800 C.3    70  MET70       0.0599
     36  SD        38.2260  -16.9460  -19.7240 S.3    70  MET70      -0.1393
     37  CE        39.3230  -18.2900  -20.1210 C.3    70  MET70       0.0692
     38  N         36.9710  -17.7220  -14.3200 N.am   71  GLY71      -0.1940
     39  CA        37.0110  -18.3850  -13.0340 C.3    71  GLY71       0.2014
     40  C         38.3420  -18.8700  -12.5230 C.2    71  GLY71       0.2638
     41  O         38.4240  -19.8330  -11.7730 O.2    71  GLY71      -0.2714
     42  N         39.4440  -18.2010  -12.9120 N.am   72  LEU72      -0.1977
     43  CA        40.7590  -18.5340  -12.4130 C.3    72  LEU72       0.1596
     44  C         41.2070  -19.9470  -12.7210 C.2    72  LEU72       0.2287
     45  O         41.7650  -20.6860  -11.8530 O.2    72  LEU72      -0.2864
     46  CB        40.7900  -18.1900  -10.9440 C.3    72  LEU72       0.0297
     47  CG        42.0120  -17.8140  -10.1610 C.3    72  LEU72       0.0022
     48  CD1       42.9610  -16.9010  -10.9360 C.3    72  LEU72       0.0001
     49  CD2       41.5650  -17.1710   -8.8410 C.3    72  LEU72       0.0001
     50  N         47.0610  -15.2380   -7.2600 N.3   100  SER100     -0.1217
     51  CA        45.7300  -14.7630   -6.8830 C.3   100  SER100      0.1889
     52  C         45.0950  -15.8210   -5.9600 C.2   100  SER100      0.2288
     53  O         44.0740  -16.4340   -6.2910 O.2   100  SER100     -0.2866
     54  CB        44.8480  -14.5570   -8.0960 C.3   100  SER100      0.2089
     55  OG        43.6550  -13.9270   -7.7470 O.3   100  SER100     -0.2183
     56  N         47.7220  -10.1880   -7.6480 N.3   128  ASN128     -0.1240
     57  CA        46.4190   -9.8620   -8.1650 C.3   128  ASN128      0.1653
     58  C         45.3850   -9.6810   -7.0720 C.2   128  ASN128      0.2266
     59  O         44.9820  -10.6100   -6.4900 O.2   128  ASN128     -0.2867
     60  CB        45.9480  -10.9300   -9.1120 C.3   128  ASN128      0.1155
     61  CG        44.5980  -10.6540   -9.7620 C.2   128  ASN128      0.2627
     62  OD1       43.9310   -9.7060   -9.5200 O.2   128  ASN128     -0.2716
     63  ND2       44.2290  -11.5560  -10.6310 N.am  128  ASN128     -0.0877
     64  N         42.2610   -8.9890   -7.3160 N.3   130  SER130     -0.1202
     65  CA        40.9270   -9.4630   -7.7860 C.3   130  SER130      0.2020
     66  C         40.5470  -10.9420   -7.4360 C.2   130  SER130      0.2619
     67  O         41.3760  -11.8090   -7.4190 O.2   130  SER130     -0.2717
     68  CB        40.7320   -9.1770   -9.2900 C.3   130  SER130      0.2103
     69  OG        40.7300   -7.8090   -9.5770 O.3   130  SER130     -0.2182
     70  N         39.2920  -11.2420   -7.1340 N.am  131  CYS131     -0.1956
     71  CA        38.9220  -12.6650   -6.7180 C.3   131  CYS131      0.1828
     72  C         37.4560  -13.0680   -7.1400 C.2   131  CYS131      0.2467
     73  O         36.6390  -12.1480   -7.4890 O.2   131  CYS131     -0.2730
     74  CB        39.1680  -12.8770   -5.1970 C.3   131  CYS131      0.0996
     75  SG        38.1080  -11.8520   -4.1580 S.3   131  CYS131     -0.0797
     76  N         37.1200  -14.4120   -7.1490 N.am  132  PRO132     -0.2726
     77  CA        35.7060  -14.7410   -7.4550 C.3   132  PRO132      0.1402
     78  C         34.7450  -14.0860   -6.4290 C.2   132  PRO132      0.2269
     79  O         35.1640  -13.7950   -5.2950 O.2   132  PRO132     -0.2865
     80  CB        35.6800  -16.3020   -7.3830 C.3   132  PRO132      0.0296
     81  CG        37.0670  -16.7500   -7.6910 C.3   132  PRO132      0.0237
     82  CD        37.9350  -15.6570   -7.0290 C.3   132  PRO132      0.0939
     83  N         35.1530   -7.1770   -3.5880 N.3   139  GLN139     -0.1245
     84  CA        36.4680   -7.5700   -4.0130 C.3   139  GLN139      0.1566
     85  C         37.4840   -6.8720   -3.1370 C.2   139  GLN139      0.2260
     86  O         37.2400   -5.7210   -2.7240 O.2   139  GLN139     -0.2867
     87  CB        36.6680   -7.1280   -5.4710 C.3   139  GLN139      0.0367
     88  CG        37.4320   -8.1700   -6.2520 C.3   139  GLN139      0.0905
     89  CD        36.5420   -9.1890   -6.9430 C.2   139  GLN139      0.2608
     90  OE1       35.5860   -9.8130   -6.3490 O.2   139  GLN139     -0.2717
     91  NE2       36.8730   -9.4290   -8.1980 N.am  139  GLN139     -0.0878
     92  N         48.3510   -5.8530   -9.1060 N.3   165  LYS165     -0.1245
     93  CA        47.3760   -5.6790  -10.1740 C.3   165  LYS165      0.1561
     94  C         46.0500   -5.1690   -9.5920 C.2   165  LYS165      0.2260
     95  O         45.4590   -5.8230   -8.7110 O.2   165  LYS165     -0.2867
     96  CB        47.1870   -6.9750  -10.8910 C.3   165  LYS165      0.0271
     97  CG        46.1800   -6.9370  -12.0300 C.3   165  LYS165      0.0035
     98  CD        46.7140   -6.2470  -13.2680 C.3   165  LYS165      0.0206
     99  CE        45.7690   -6.4720  -14.4760 C.3   165  LYS165      0.1093
    100  NZ        45.8300   -7.8410  -14.9970 N.3   165  LYS165     -0.1314
    101  N         42.9620   -4.0890  -14.1820 N.3   195  ASN195     -0.1225
    102  CA        42.2700   -5.3250  -14.4710 C.3   195  ASN195      0.1785
    103  C         40.9750   -5.0100  -15.2440 C.2   195  ASN195      0.2597
    104  O         40.6920   -3.8340  -15.5010 O.2   195  ASN195     -0.2718
    105  CB        41.9970   -6.0510  -13.1620 C.3   195  ASN195      0.1169
    106  CG        41.9580   -7.5710  -13.3090 C.2   195  ASN195      0.2627
    107  OD1       41.3310   -8.1200  -14.2140 O.2   195  ASN195     -0.2716
    108  ND2       42.6210   -8.2530  -12.3890 N.am  195  ASN195     -0.0877
    109  N         40.1980   -6.0140  -15.6160 N.am  196  SER196     -0.1952
    110  CA        38.9750   -5.8200  -16.4180 C.3   196  SER196      0.1924
    111  C         37.9410   -4.9910  -15.6850 C.2   196  SER196      0.2314
    112  O         37.9100   -4.9630  -14.4460 O.2   196  SER196     -0.2863
    113  CB        38.4380   -7.2080  -16.8650 C.3   196  SER196      0.2116
    114  OG        38.2450   -8.0480  -15.7570 O.3   196  SER196     -0.2180
    115  N         34.0230   -9.5410  -16.6740 N.3   220  GLY220     -0.1225
    116  CA        34.9090   -8.4220  -16.7760 C.3   220  GLY220      0.1811
    117  C         35.0610   -8.0130  -18.2580 C.2   220  GLY220      0.2280
    118  O         35.2270   -8.8410  -19.1640 O.2   220  GLY220     -0.2866
@<TRIPOS>BOND
     1    37    36    1
     2    16    17    1
     3    36    35    1
     4    20    17    1
     5    20    21    1
     6    17    18    1
     7   118   117    2
     8    23    21   am
     9    21    22    2
    10   117   116    1
    11    35    34    1
    12    18    24   am
    13    18    19    2
    14    24    25    1
    15    34    31    1
    16   113   110    1
    17   113   114    1
    18   116   115    1
    19    31    30    1
    20    31    32    1
    21    30    26   am
    22    25    26    1
    23    25    28    1
    24   110   111    1
    25   110   109    1
    26    26    27    2
    27     5     2    1
    28     5     6    1
    29    28    29    1
    30     1     2    1
    31     7     6    1
    32     7     8    1
    33   111   112    2
    34   109   103   am
    35     9     8    1
    36    33    32    2
    37     2     3    1
    38   104   103    2
    39    32    38   am
    40   103   102    1
    41   100    99    1
    42    99    98    1
    43   102   101    1
    44   102   105    1
    45    38    39    1
    46   107   106    2
    47     3    10   am
    48     3     4    2
    49    10    11    1
    50   106   105    1
    51   106   108   am
    52    98    97    1
    53    39    40    1
    54    42    40   am
    55    42    43    1
    56    44    43    1
    57    44    45    2
    58    40    41    2
    59    43    46    1
    60    97    96    1
    61    13    12    2
    62    11    14    1
    63    11    12    1
    64    15    14    1
    65    46    47    1
    66    48    47    1
    67    96    93    1
    68    63    61   am
    69    93    94    1
    70    93    92    1
    71    47    49    1
    72    61    62    2
    73    61    60    1
    74    94    95    2
    75    69    68    1
    76    68    65    1
    77    60    57    1
    78    91    89   am
    79    57    56    1
    80    57    58    1
    81    54    55    1
    82    54    51    1
    83    65    66    1
    84    65    64    1
    85    81    80    1
    86    81    82    1
    87    73    72    2
    88    77    80    1
    89    77    76    1
    90    77    78    1
    91    66    67    2
    92    66    70   am
    93    50    51    1
    94    76    72   am
    95    76    82    1
    96    72    71    1
    97    70    71    1
    98    58    59    2
    99    89    90    2
   100    89    88    1
   101    51    52    1
   102    71    74    1
   103    78    79    2
   104    53    52    2
   105    88    87    1
   106    87    84    1
   107    74    75    1
   108    84    83    1
   109    84    85    1
   110    85    86    2
