@<TRIPOS>MOLECULE
tmp/3w1tB00.pdb
 119 111 0 0 0
SMALL
GASTEIGER

@<TRIPOS>ATOM
      1  N        -15.7790  -16.7490   15.6200 N.3    44  LYS44      -0.1227
      2  CA       -14.3420  -16.6990   15.2040 C.3    44  LYS44       0.1736
      3  C        -14.2820  -16.5690   13.6580 C.2    44  LYS44       0.2596
      4  O        -14.9820  -17.3080   12.9600 O.2    44  LYS44      -0.2718
      5  CB       -13.6650  -18.0230   15.6250 C.3    44  LYS44       0.0541
      6  CG       -12.2290  -18.2630   15.1120 C.2    44  LYS44      -0.0272
      7  CD       -11.1450  -17.3220   15.6190 C.2    44  LYS44      -0.0103
      8  CE        -9.7520  -17.3940   14.9830 C.3    44  LYS44       0.1350
      9  NZ        -8.6940  -16.3080   15.3540 N.3    44  LYS44      -0.1262
     10  N        -13.4430  -15.7120   13.1020 N.am   45  SER45      -0.1952
     11  CA       -13.2510  -15.6640   11.6180 C.3    45  SER45       0.1924
     12  C        -12.9460  -17.0820   11.0940 C.2    45  SER45       0.2314
     13  O        -12.1220  -17.8010   11.6400 O.2    45  SER45      -0.2863
     14  CB       -12.1010  -14.7770   11.2200 C.3    45  SER45       0.2116
     15  OG       -12.3940  -13.4010   11.5260 O.3    45  SER45      -0.2180
     16  N         -8.9320  -25.2640   10.5680 N.3    51  ARG51      -0.1245
     17  CA        -7.5280  -25.0340   10.7410 C.3    51  ARG51       0.1563
     18  C         -7.1370  -25.2830   12.1920 C.2    51  ARG51       0.2260
     19  O         -7.8430  -24.8620   13.1080 O.2    51  ARG51      -0.2867
     20  CB        -7.1640  -23.5780   10.4110 C.3    51  ARG51       0.0307
     21  CG        -7.3110  -23.2220    8.9750 C.3    51  ARG51       0.0489
     22  CD        -7.1220  -21.7410    8.7030 C.3    51  ARG51       0.2205
     23  NE        -5.7850  -21.3140    9.1070 N.pl3  51  ARG51      -0.0865
     24  CZ        -4.7050  -21.4000    8.3540 C.cat  51  ARG51       0.5346
     25  NH1       -4.7900  -21.8330    7.1220 N.pl3  51  ARG51       0.1354
     26  NH2       -3.5390  -20.9690    8.8000 N.pl3  51  ARG51       0.1354
     27  N         -0.6270  -11.6690   19.7650 N.3    68  ASN68      -0.1225
     28  CA        -1.0430  -12.9560   19.2040 C.3    68  ASN68       0.1785
     29  C         -0.6410  -13.1510   17.7840 C.2    68  ASN68       0.2598
     30  O         -0.6600  -12.2470   16.9570 O.2    68  ASN68      -0.2718
     31  CB        -2.5670  -13.1450   19.3460 C.3    68  ASN68       0.1169
     32  CG        -3.3510  -12.6320   18.1690 C.2    68  ASN68       0.2627
     33  OD1       -3.5070  -13.2590   17.0820 O.2    68  ASN68      -0.2716
     34  ND2       -3.8590  -11.4090   18.3350 N.am   68  ASN68      -0.0877
     35  N         -0.2980  -14.4500   17.4890 N.am   69  SER69      -0.1938
     36  CA        -0.1550  -14.9170   16.1120 C.3    69  SER69       0.2055
     37  C         -0.8010  -16.2800   16.0360 C.2    69  SER69       0.2643
     38  O         -0.1360  -17.3020   15.9700 O.2    69  SER69      -0.2714
     39  CB         1.3000  -14.9550   15.6700 C.3    69  SER69       0.2130
     40  OG         1.8140  -13.6120   15.5290 O.3    69  SER69      -0.2179
     41  N         -2.1270  -16.2560   16.1240 N.am   70  MET70      -0.1962
     42  CA        -2.8770  -17.4970   16.2840 C.3    70  MET70       0.1736
     43  C         -2.8350  -18.3560   15.0430 C.2    70  MET70       0.2617
     44  O         -2.8550  -19.5930   15.1880 O.2    70  MET70      -0.2715
     45  CB        -4.3370  -17.2390   16.6160 C.3    70  MET70       0.0427
     46  CG        -4.6350  -16.3640   17.8190 C.3    70  MET70       0.0599
     47  SD        -4.0410  -16.9920   19.3580 S.3    70  MET70      -0.1393
     48  CE        -5.1040  -18.3340   19.6460 C.3    70  MET70       0.0692
     49  N         -2.8120  -17.7450   13.8490 N.am   71  GLY71      -0.1940
     50  CA        -2.8960  -18.4690   12.5740 C.3    71  GLY71       0.2014
     51  C         -4.2660  -18.9970   12.2500 C.2    71  GLY71       0.2638
     52  O         -4.4110  -19.9920   11.5180 O.2    71  GLY71      -0.2714
     53  N         -5.2700  -18.2500   12.6550 N.am   72  LEU72      -0.1977
     54  CA        -6.6380  -18.5410   12.3830 C.3    72  LEU72       0.1596
     55  C         -7.1020  -19.9700   12.6590 C.2    72  LEU72       0.2287
     56  O         -7.7370  -20.6070   11.7930 O.2    72  LEU72      -0.2864
     57  CB        -6.9500  -18.0750   10.9630 C.3    72  LEU72       0.0297
     58  CG        -8.4600  -17.9260   10.8730 C.3    72  LEU72       0.0022
     59  CD1       -8.8970  -16.5510   11.2650 C.3    72  LEU72       0.0001
     60  CD2       -8.9020  -18.1490    9.4610 C.3    72  LEU72       0.0001
     61  N        -12.9850  -15.0720    7.0070 N.3   100  SER100     -0.1217
     62  CA       -11.7190  -14.6050    6.4980 C.3   100  SER100      0.1889
     63  C        -11.0360  -15.6720    5.6360 C.2   100  SER100      0.2288
     64  O        -10.1380  -16.2740    6.0210 O.2   100  SER100     -0.2866
     65  CB       -10.7890  -14.1340    7.6020 C.3   100  SER100      0.2089
     66  OG        -9.9990  -13.0890    7.1260 O.3   100  SER100     -0.2183
     67  N         -8.8480  -17.3590    2.5420 N.3   102  LEU102     -0.1245
     68  CA        -7.4710  -17.1440    2.0890 C.3   102  LEU102      0.1561
     69  C         -7.3990  -16.5780    0.6670 C.2   102  LEU102      0.2260
     70  O         -6.3080  -16.2120    0.2460 O.2   102  LEU102     -0.2867
     71  CB        -6.7090  -18.4490    2.1440 C.3   102  LEU102      0.0270
     72  CG        -6.7300  -19.2510    3.4580 C.3   102  LEU102      0.0019
     73  CD1       -5.8940  -20.5370    3.4320 C.3   102  LEU102      0.0001
     74  CD2       -6.2480  -18.3010    4.5140 C.3   102  LEU102      0.0001
     75  N        -13.6720  -10.1540    7.4640 N.3   128  ASN128     -0.1240
     76  CA       -12.3480   -9.7610    8.0060 C.3   128  ASN128      0.1653
     77  C        -11.3360   -9.5420    6.9010 C.2   128  ASN128      0.2266
     78  O        -10.8930  -10.5210    6.3280 O.2   128  ASN128     -0.2867
     79  CB       -11.8770  -10.8120    9.0260 C.3   128  ASN128      0.1155
     80  CG       -10.4840  -10.5810    9.5810 C.2   128  ASN128      0.2627
     81  OD1       -9.8070   -9.6110    9.2770 O.2   128  ASN128     -0.2716
     82  ND2      -10.0000  -11.5420   10.3410 N.am  128  ASN128     -0.0877
     83  N         -8.2530   -8.3170    7.1040 N.3   130  SER130     -0.1202
     84  CA        -6.8530   -8.5940    7.4850 C.3   130  SER130      0.2020
     85  C         -6.4450  -10.0020    7.1240 C.2   130  SER130      0.2619
     86  O         -6.0720  -10.7550    7.9530 O.2   130  SER130     -0.2717
     87  CB        -6.6460   -8.3500    8.9980 C.3   130  SER130      0.2103
     88  OG        -6.7030   -6.9350    9.1770 O.3   130  SER130     -0.2182
     89  N         -6.5700  -10.3550    5.8670 N.am  131  CYS131     -0.1956
     90  CA        -6.4400  -11.7240    5.3710 C.3   131  CYS131      0.1828
     91  C         -5.3250  -11.7380    4.2950 C.2   131  CYS131      0.2467
     92  O         -4.8970  -10.6860    3.6860 O.2   131  CYS131     -0.2730
     93  CB        -7.7850  -12.2190    4.8070 C.3   131  CYS131      0.0996
     94  SG        -8.5600  -11.0170    3.6370 S.3   131  CYS131     -0.0797
     95  N         -4.8510  -12.9470    4.0130 N.am  132  PRO132     -0.2726
     96  CA        -3.7030  -13.0250    3.1270 C.3   132  PRO132      0.1402
     97  C         -3.9940  -12.6270    1.6920 C.2   132  PRO132      0.2269
     98  O         -5.1090  -12.7660    1.1470 O.2   132  PRO132     -0.2865
     99  CB        -3.3000  -14.5250    3.1430 C.3   132  PRO132      0.0296
    100  CG        -4.2930  -15.2230    3.9640 C.3   132  PRO132      0.0237
    101  CD        -5.0760  -14.2140    4.7600 C.3   132  PRO132      0.0939
    102  N         -8.9310   -4.0870   14.0350 N.3   195  ASN195     -0.1225
    103  CA        -8.1930   -5.3200   14.2670 C.3   195  ASN195      0.1785
    104  C         -6.8870   -4.9690   15.0540 C.2   195  ASN195      0.2597
    105  O         -6.6260   -3.8220   15.3430 O.2   195  ASN195     -0.2718
    106  CB        -7.8450   -6.0330   12.9510 C.3   195  ASN195      0.1169
    107  CG        -7.8830   -7.5460   13.0960 C.2   195  ASN195      0.2627
    108  OD1       -7.2890   -8.1100   14.0430 O.2   195  ASN195     -0.2716
    109  ND2       -8.5480   -8.2380   12.1540 N.am  195  ASN195     -0.0877
    110  N         -6.1560   -5.9580   15.5050 N.am  196  SER196     -0.1952
    111  CA        -4.9320   -5.7770   16.2450 C.3   196  SER196      0.1924
    112  C         -3.9270   -4.9450   15.4460 C.2   196  SER196      0.2314
    113  O         -3.9660   -4.8200   14.2010 O.2   196  SER196     -0.2863
    114  CB        -4.4460   -7.1720   16.7130 C.3   196  SER196      0.2116
    115  OG        -4.2030   -8.0490   15.6450 O.3   196  SER196     -0.2180
    116  N          0.0770   -9.5480   16.4500 N.3   220  GLY220     -0.1225
    117  CA        -0.7830   -8.3900   16.5600 C.3   220  GLY220      0.1811
    118  C         -0.9780   -8.0000   17.9970 C.2   220  GLY220      0.2280
    119  O         -1.1770   -8.8370   18.8700 O.2   220  GLY220     -0.2866
@<TRIPOS>BOND
     1    70    69    2
     2    69    68    1
     3    98    97    2
     4    97    96    1
     5    68    71    1
     6    68    67    1
     7    71    72    1
     8    96    99    1
     9    96    95    1
    10    99   100    1
    11    73    72    1
    12    72    74    1
    13    94    93    1
    14    92    91    2
    15   100   101    1
    16    95    91   am
    17    95   101    1
    18    91    90    1
    19    93    90    1
    20    90    89    1
    21    63    64    2
    22    63    62    1
    23    89    85   am
    24    78    77    2
    25    62    61    1
    26    62    65    1
    27    77    76    1
    28    83    84    1
    29    25    24    1
    30    85    84    1
    31    85    86    2
    32    66    65    1
    33    75    76    1
    34    84    87    1
    35    76    79    1
    36    24    26    1
    37    24    23    2
    38    22    21    1
    39    22    23    1
    40    21    20    1
    41    87    88    1
    42    79    80    1
    43    81    80    2
    44    60    58    1
    45    80    82   am
    46    20    17    1
    47    16    17    1
    48    17    18    1
    49    58    57    1
    50    58    59    1
    51    57    54    1
    52    12    11    1
    53    12    13    2
    54    14    15    1
    55    14    11    1
    56    52    51    2
    57    11    10    1
    58    56    55    2
    59   109   107   am
    60    18    19    2
    61    51    50    1
    62    51    53   am
    63    54    53    1
    64    54    55    1
    65    50    49    1
    66   106   107    1
    67   106   103    1
    68     4     3    2
    69   107   108    2
    70    10     3   am
    71     3     2    1
    72    49    43   am
    73   102   103    1
    74   113   112    2
    75   103   104    1
    76     8     9    1
    77     8     7    1
    78    43    44    2
    79    43    42    1
    80   104   105    2
    81   104   110   am
    82     6     7    2
    83     6     5    1
    84     2     1    1
    85     2     5    1
    86   112   111    1
    87   110   111    1
    88    40    39    1
    89   115   114    1
    90    39    36    1
    91    38    37    2
    92    37    36    1
    93    37    41   am
    94    36    35    1
    95    41    42    1
    96   111   114    1
    97    42    45    1
    98   116   117    1
    99   117   118    1
   100    45    46    1
   101    30    29    2
   102    33    32    2
   103    35    29   am
   104    29    28    1
   105    46    47    1
   106   118   119    2
   107    32    34   am
   108    32    31    1
   109    28    31    1
   110    28    27    1
   111    47    48    1
