@<TRIPOS>MOLECULE
tmp/3w1vA01.pdb
 201 189 0 0 0
SMALL
GASTEIGER

@<TRIPOS>ATOM
      1  N        -36.6650  -34.0030  -26.2630 N.3    93  LYS93      -0.1231
      2  CA       -35.4750  -34.8030  -26.5470 C.3    93  LYS93       0.1693
      3  C        -34.4520  -34.8130  -25.4830 C.2    93  LYS93       0.2592
      4  O        -33.4270  -35.4040  -25.6780 O.2    93  LYS93      -0.2718
      5  CB       -34.8580  -34.4760  -27.9230 C.3    93  LYS93       0.0285
      6  CG       -34.5030  -33.0400  -28.0740 C.3    93  LYS93       0.0035
      7  CD       -33.8350  -32.7390  -29.4150 C.3    93  LYS93       0.0206
      8  CE       -32.9340  -31.4960  -29.2600 C.3    93  LYS93       0.1093
      9  NZ       -31.7290  -31.7270  -28.3840 N.3    93  LYS93      -0.1314
     10  N        -34.6840  -34.1520  -24.3560 N.am   94  GLN94      -0.1966
     11  CA       -33.7100  -34.2890  -23.2680 C.3    94  GLN94       0.1733
     12  C        -33.9770  -35.6170  -22.5490 C.2    94  GLN94       0.2616
     13  O        -35.1010  -36.0570  -22.4220 O.2    94  GLN94      -0.2715
     14  CB       -33.7570  -33.1190  -22.2860 C.3    94  GLN94       0.0408
     15  CG       -33.3510  -31.7540  -22.8630 C.3    94  GLN94       0.0908
     16  CD       -32.0030  -31.7990  -23.5740 C.2    94  GLN94       0.2608
     17  OE1      -30.9870  -32.1050  -22.9690 O.2    94  GLN94      -0.2717
     18  NE2      -32.0110  -31.5470  -24.8760 N.am   94  GLN94      -0.0878
     19  N        -32.9350  -36.2650  -22.0900 N.am   95  VAL95      -0.1964
     20  CA       -33.0900  -37.5000  -21.3720 C.3    95  VAL95       0.1712
     21  C        -33.7650  -37.2800  -19.9870 C.2    95  VAL95       0.2458
     22  O        -34.6710  -37.9280  -19.6630 O.2    95  VAL95      -0.2730
     23  CB       -31.7060  -38.2230  -21.2960 C.3    95  VAL95       0.0289
     24  CG1      -31.7230  -39.3190  -20.2080 C.3    95  VAL95       0.0023
     25  CG2      -31.4060  -38.7350  -22.7260 C.3    95  VAL95       0.0023
     26  N        -33.2410  -36.3920  -19.1430 N.am   96  PRO96      -0.2727
     27  CA       -33.7120  -36.3850  -17.7670 C.3    96  PRO96       0.1402
     28  C        -35.1740  -35.9340  -17.7540 C.2    96  PRO96       0.2269
     29  O        -35.9820  -36.4370  -17.0090 O.2    96  PRO96      -0.2865
     30  CB       -32.8660  -35.2780  -17.1210 C.3    96  PRO96       0.0296
     31  CG       -31.6570  -35.1140  -17.9840 C.3    96  PRO96       0.0237
     32  CD       -31.9450  -35.6910  -19.3170 C.3    96  PRO96       0.0939
     33  N        -30.1670  -43.2400  -29.7480 N.3   135  LYS135     -0.1245
     34  CA       -30.7010  -43.6860  -28.4180 C.3   135  LYS135      0.1561
     35  C        -32.0110  -44.5130  -28.5120 C.2   135  LYS135      0.2260
     36  O        -32.4080  -45.1960  -27.5060 O.2   135  LYS135     -0.2867
     37  CB       -30.9040  -42.4560  -27.5000 C.3   135  LYS135      0.0271
     38  CG       -29.5920  -41.6820  -27.2830 C.3   135  LYS135      0.0035
     39  CD       -29.9080  -40.6840  -26.2050 C.3   135  LYS135      0.0206
     40  CE       -28.9320  -39.5010  -26.0100 C.3   135  LYS135      0.1093
     41  NZ       -27.6040  -40.1040  -25.8420 N.3   135  LYS135     -0.1314
     42  N        -36.6410  -41.2310  -23.1430 N.3   143  MET143     -0.1245
     43  CA       -36.5190  -40.4980  -24.3680 C.3   143  MET143      0.1570
     44  C        -36.2740  -41.4530  -25.5710 C.2   143  MET143      0.2261
     45  O        -36.9820  -41.3740  -26.5830 O.2   143  MET143     -0.2867
     46  CB       -35.3400  -39.5430  -24.2450 C.3   143  MET143      0.0387
     47  CG       -35.3190  -38.5240  -25.3950 C.3   143  MET143      0.0595
     48  SD       -34.5800  -39.1140  -26.9760 S.3   143  MET143     -0.1393
     49  CE       -32.8870  -39.3290  -26.6090 C.3   143  MET143      0.0692
     50  N        -26.0760  -37.8560  -31.3650 N.3   175  ASN175     -0.1225
     51  CA       -25.7330  -36.4850  -31.0250 C.3   175  ASN175      0.1785
     52  C        -24.8020  -35.8340  -32.0110 C.2   175  ASN175      0.2597
     53  O        -23.8860  -36.4350  -32.5060 O.2   175  ASN175     -0.2718
     54  CB       -25.0920  -36.4450  -29.6460 C.3   175  ASN175      0.1169
     55  CG       -26.1040  -36.6100  -28.5610 C.2   175  ASN175      0.2627
     56  OD1      -27.2730  -36.8990  -28.8330 O.2   175  ASN175     -0.2716
     57  ND2      -25.6850  -36.4160  -27.3250 N.am  175  ASN175     -0.0877
     58  N        -25.1360  -34.6010  -32.3350 N.am  176  VAL176     -0.1980
     59  CA       -24.4090  -33.8020  -33.2330 C.3   176  VAL176      0.1595
     60  C        -23.2630  -33.0900  -32.4450 C.2   176  VAL176      0.2287
     61  O        -23.4620  -32.6140  -31.3080 O.2   176  VAL176     -0.2864
     62  CB       -25.4190  -32.8080  -33.8320 C.3   176  VAL176      0.0276
     63  CG1      -24.7020  -31.5800  -34.3510 C.3   176  VAL176      0.0022
     64  CG2      -26.2360  -33.4730  -34.9510 C.3   176  VAL176      0.0022
     65  N        -23.3950  -29.4380  -30.5440 N.3   179  SER179     -0.1202
     66  CA       -24.7310  -28.9910  -30.1820 C.3   179  SER179      0.2020
     67  C        -24.8320  -28.3860  -28.7610 C.2   179  SER179      0.2619
     68  O        -24.0710  -28.7460  -27.7970 O.2   179  SER179     -0.2717
     69  CB       -25.7650  -30.1190  -30.3310 C.3   179  SER179      0.2103
     70  OG       -25.4450  -31.2400  -29.5090 O.3   179  SER179     -0.2182
     71  N        -25.7950  -27.4670  -28.6390 N.am  180  ARG180     -0.1965
     72  CA       -26.1570  -26.8530  -27.3510 C.3   180  ARG180      0.1729
     73  C        -26.1400  -27.8800  -26.1820 C.2   180  ARG180      0.2617
     74  O        -26.9280  -28.8000  -26.1340 O.2   180  ARG180     -0.2715
     75  CB       -27.5470  -26.1630  -27.4640 C.3   180  ARG180      0.0348
     76  CG       -27.8660  -25.0900  -26.4230 C.3   180  ARG180      0.0492
     77  CD       -26.7960  -23.9780  -26.4440 C.3   180  ARG180      0.2205
     78  NE       -27.0750  -22.8040  -25.5970 N.pl3 180  ARG180     -0.0865
     79  CZ       -27.9400  -21.8290  -25.8950 C.cat 180  ARG180      0.5346
     80  NH1      -28.0940  -20.8080  -25.0590 N.pl3 180  ARG180      0.1354
     81  NH2      -28.6640  -21.8660  -27.0160 N.pl3 180  ARG180      0.1354
     82  N        -25.2540  -27.6950  -25.2220 N.am  181  GLY181     -0.1940
     83  CA       -25.3690  -28.5210  -24.0110 C.3   181  GLY181      0.2014
     84  C        -24.5840  -29.8140  -24.0840 C.2   181  GLY181      0.2640
     85  O        -24.5880  -30.5430  -23.1010 O.2   181  GLY181     -0.2714
     86  N        -23.9080  -30.0790  -25.2200 N.am  182  SER182     -0.1935
     87  CA       -23.2430  -31.3520  -25.4770 C.3   182  SER182      0.2055
     88  C        -21.8110  -31.2600  -24.9210 C.2   182  SER182      0.2642
     89  O        -21.4070  -30.2170  -24.4790 O.2   182  SER182     -0.2714
     90  CB       -23.2010  -31.6700  -26.9650 C.3   182  SER182      0.2130
     91  OG       -22.4490  -30.6910  -27.6920 O.3   182  SER182     -0.2179
     92  N        -21.0470  -32.3350  -24.9980 N.am  183  VAL183     -0.1977
     93  CA       -19.8200  -32.4680  -24.2690 C.3   183  VAL183      0.1596
     94  C        -18.7130  -31.6070  -24.8710 C.2   183  VAL183      0.2287
     95  O        -17.8310  -31.1800  -24.1470 O.2   183  VAL183     -0.2864
     96  CB       -19.3960  -33.9510  -24.2060 C.3   183  VAL183      0.0276
     97  CG1      -18.9480  -34.4340  -25.5790 C.3   183  VAL183      0.0022
     98  CG2      -18.3150  -34.1720  -23.1340 C.3   183  VAL183      0.0022
     99  N        -19.0590  -28.2260  -23.4790 N.3   186  LEU186     -0.1231
    100  CA       -18.7550  -28.4270  -22.0490 C.3   186  LEU186      0.1693
    101  C        -17.2460  -28.4370  -21.8110 C.2   186  LEU186      0.2592
    102  O        -16.7420  -27.7390  -20.9320 O.2   186  LEU186     -0.2718
    103  CB       -19.3360  -29.7430  -21.5210 C.3   186  LEU186      0.0284
    104  CG       -19.3120  -29.8620  -19.9940 C.3   186  LEU186      0.0019
    105  CD1      -20.2930  -28.8730  -19.3810 C.3   186  LEU186      0.0001
    106  CD2      -19.7070  -31.2680  -19.5650 C.3   186  LEU186      0.0001
    107  N        -16.5400  -29.2570  -22.5860 N.am  187  PHE187     -0.1976
    108  CA       -15.1040  -29.4150  -22.3740 C.3   187  PHE187      0.1639
    109  C        -14.3610  -28.1150  -22.6920 C.2   187  PHE187      0.2290
    110  O        -13.5650  -27.6500  -21.8580 O.2   187  PHE187     -0.2864
    111  CB       -14.5430  -30.5350  -23.2130 C.3   187  PHE187      0.0560
    112  CG       -14.7840  -31.9160  -22.6720 C.ar  187  PHE187     -0.0200
    113  CD1      -15.2930  -32.1240  -21.4040 C.ar  187  PHE187     -0.0042
    114  CD2      -14.4590  -33.0030  -23.4450 C.ar  187  PHE187     -0.0042
    115  CE1      -15.5370  -33.4150  -20.9250 C.ar  187  PHE187     -0.0003
    116  CE2      -14.6750  -34.2660  -22.9780 C.ar  187  PHE187     -0.0003
    117  CZ       -15.1980  -34.4720  -21.7030 C.ar  187  PHE187     -0.0000
    118  N        -14.6330  -32.9710  -16.8380 N.3   198  THR198     -0.1203
    119  CA       -15.3340  -34.0200  -16.1500 C.3   198  THR198      0.1994
    120  C        -15.7010  -35.0570  -17.1720 C.2   198  THR198      0.2618
    121  O        -16.5700  -34.8290  -18.0560 O.2   198  THR198     -0.2717
    122  CB       -16.6330  -33.4990  -15.4830 C.3   198  THR198      0.1784
    123  OG1      -17.2950  -32.6290  -16.4050 O.3   198  THR198     -0.2211
    124  CG2      -16.2780  -32.7280  -14.2090 C.3   198  THR198      0.0376
    125  N        -15.0580  -36.2060  -17.0340 N.am  199  ILE199     -0.1965
    126  CA       -15.2750  -37.3130  -17.9370 C.3   199  ILE199      0.1727
    127  C        -16.0520  -38.3590  -17.1690 C.2   199  ILE199      0.2616
    128  O        -15.7220  -38.6640  -16.0250 O.2   199  ILE199     -0.2715
    129  CB       -13.9060  -37.9130  -18.4530 C.3   199  ILE199      0.0290
    130  CG1      -13.1750  -36.8770  -19.3250 C.3   199  ILE199      0.0022
    131  CG2      -14.1330  -39.2960  -19.0780 C.3   199  ILE199      0.0023
    132  CD1      -11.9880  -37.4320  -20.0970 C.3   199  ILE199      0.0001
    133  N        -17.0990  -38.8830  -17.7890 N.am  200  THR200     -0.1951
    134  CA       -17.9370  -39.9100  -17.1580 C.3   200  THR200      0.1897
    135  C        -17.2480  -41.2820  -17.1590 C.2   200  THR200      0.2313
    136  O        -16.9560  -41.8610  -16.0730 O.2   200  THR200     -0.2863
    137  CB       -19.3060  -40.0060  -17.8630 C.3   200  THR200      0.1794
    138  OG1      -19.0990  -40.0140  -19.2840 O.3   200  THR200     -0.2208
    139  CG2      -20.1560  -38.7370  -17.5520 C.3   200  THR200      0.0378
    140  N        -16.1260  -44.9100  -23.0120 N.3   204  MET204     -0.1245
    141  CA       -17.3470  -44.7580  -23.8000 C.3   204  MET204      0.1570
    142  C        -16.9810  -44.3580  -25.2050 C.2   204  MET204      0.2261
    143  O        -16.1070  -43.5370  -25.4190 O.2   204  MET204     -0.2867
    144  CB       -18.2190  -43.6400  -23.1990 C.3   204  MET204      0.0387
    145  CG       -19.1340  -44.0940  -22.1010 C.3   204  MET204      0.0595
    146  SD       -19.7870  -42.6870  -21.1550 S.3   204  MET204     -0.1393
    147  CE       -21.0740  -43.4210  -20.1110 C.3   204  MET204      0.0692
    148  N        -18.8710  -42.8320  -28.7990 N.3   206  ARG206     -0.1245
    149  CA       -20.0470  -42.1710  -29.4190 C.3   206  ARG206      0.1563
    150  C        -19.6900  -41.9110  -30.9030 C.2   206  ARG206      0.2260
    151  O        -18.5380  -41.5960  -31.1960 O.2   206  ARG206     -0.2867
    152  CB       -20.2820  -40.8080  -28.7500 C.3   206  ARG206      0.0307
    153  CG       -20.6850  -40.9210  -27.2760 C.3   206  ARG206      0.0489
    154  CD       -22.0840  -41.5160  -27.1620 C.3   206  ARG206      0.2205
    155  NE       -22.6580  -41.6210  -25.8100 N.pl3 206  ARG206     -0.0865
    156  CZ       -22.4940  -42.6310  -24.9610 C.cat 206  ARG206      0.5346
    157  NH1      -21.7660  -43.7020  -25.2300 N.pl3 206  ARG206      0.1354
    158  NH2      -23.1310  -42.6230  -23.8160 N.pl3 206  ARG206      0.1354
    159  N        -14.5560  -41.2160  -25.4110 N.3   240  VAL240     -0.1245
    160  CA       -14.6450  -39.9320  -24.7560 C.3   240  VAL240      0.1561
    161  C        -13.2970  -39.4190  -24.2460 C.2   240  VAL240      0.2260
    162  O        -13.0360  -38.2010  -24.3280 O.2   240  VAL240     -0.2867
    163  CB       -15.6450  -39.9820  -23.5810 C.3   240  VAL240      0.0252
    164  CG1      -15.6050  -38.6220  -22.8530 C.3   240  VAL240      0.0019
    165  CG2      -17.0490  -40.2770  -24.1590 C.3   240  VAL240      0.0019
    166  N        -11.5140  -37.7820  -27.2260 N.3   243  LEU243     -0.1245
    167  CA       -12.1040  -36.5010  -27.5320 C.3   243  LEU243      0.1561
    168  C        -11.5770  -35.4000  -26.5800 C.2   243  LEU243      0.2260
    169  O        -11.2750  -34.2790  -27.0120 O.2   243  LEU243     -0.2867
    170  CB       -13.6240  -36.5950  -27.5080 C.3   243  LEU243      0.0270
    171  CG       -14.4620  -35.3150  -27.6690 C.3   243  LEU243      0.0019
    172  CD1      -14.1830  -34.6720  -29.0410 C.3   243  LEU243      0.0001
    173  CD2      -15.9410  -35.7440  -27.4560 C.3   243  LEU243      0.0001
    174  N        -15.9860  -38.7170  -13.2970 N.3   260  ILE260     -0.1245
    175  CA       -17.1670  -38.5890  -12.4350 C.3   260  ILE260      0.1561
    176  C        -18.0050  -39.8740  -12.4660 C.2   260  ILE260      0.2260
    177  O        -18.9650  -39.9860  -11.7020 O.2   260  ILE260     -0.2867
    178  CB       -18.0380  -37.3390  -12.7710 C.3   260  ILE260      0.0252
    179  CG1      -18.6340  -37.3900  -14.2030 C.3   260  ILE260      0.0019
    180  CG2      -17.2540  -36.0450  -12.6140 C.3   260  ILE260      0.0019
    181  CD1      -19.6060  -36.2350  -14.5120 C.3   260  ILE260      0.0001
    182  N        -23.3030  -41.6310  -15.7300 N.3   263  ARG263     -0.1245
    183  CA       -24.5510  -40.9900  -15.2560 C.3   263  ARG263      0.1563
    184  C        -25.7360  -41.9680  -15.4970 C.2   263  ARG263      0.2260
    185  O        -25.6070  -42.9420  -16.2170 O.2   263  ARG263     -0.2867
    186  CB       -24.7480  -39.6780  -16.0040 C.3   263  ARG263      0.0307
    187  CG       -23.5250  -38.7350  -15.7170 C.3   263  ARG263      0.0489
    188  CD       -23.6370  -37.5030  -16.5690 C.3   263  ARG263      0.2205
    189  NE       -23.6990  -37.8630  -18.0030 N.pl3 263  ARG263     -0.0865
    190  CZ       -23.8710  -36.9490  -18.9620 C.cat 263  ARG263      0.5346
    191  NH1      -24.0180  -35.6560  -18.6170 N.pl3 263  ARG263      0.1354
    192  NH2      -23.9330  -37.3140  -20.2590 N.pl3 263  ARG263      0.1354
    193  N        -27.4910  -43.6210  -19.3750 N.3   266  GLU266     -0.1245
    194  CA       -26.5500  -43.6790  -20.5030 C.3   266  GLU266      0.1567
    195  C        -25.7870  -44.9690  -20.6350 C.2   266  GLU266      0.2260
    196  O        -25.5050  -45.6620  -19.6390 O.2   266  GLU266     -0.2867
    197  CB       -25.6470  -42.4350  -20.5750 C.3   266  GLU266      0.0388
    198  CG       -24.7040  -42.2570  -19.3990 C.3   266  GLU266      0.1160
    199  CD       -23.8170  -40.9760  -19.4680 C.2   266  GLU266      0.3649
    200  OE1      -23.7250  -40.2360  -20.5250 O.co2 266  GLU266     -0.2457
    201  OE2      -23.1530  -40.7420  -18.4370 O.co2 266  GLU266     -0.2457
@<TRIPOS>BOND
     1    64    62    1
     2    63    62    1
     3    62    59    1
     4    59    60    1
     5    59    58    1
     6    53    52    2
     7    60    61    2
     8    58    52   am
     9    52    51    1
    10    50    51    1
    11   151   150    2
    12    51    54    1
    13   150   149    1
    14    65    66    1
    15    69    66    1
    16    69    70    1
    17    66    67    1
    18    33    34    1
    19    54    55    1
    20   149   148    1
    21   149   152    1
    22     7     8    1
    23     7     6    1
    24     8     9    1
    25   172   171    1
    26    56    55    2
    27    67    71   am
    28    67    68    2
    29   152   153    1
    30    71    72    1
    31    55    57   am
    32    35    34    1
    33    35    36    2
    34    34    37    1
    35     6     5    1
    36     5     2    1
    37    91    90    1
    38   171   170    1
    39   171   173    1
    40   167   170    1
    41   167   166    1
    42   167   168    1
    43    37    38    1
    44    75    72    1
    45    75    76    1
    46    72    73    1
    47    38    39    1
    48   153   154    1
    49   154   155    1
    50    81    79    1
    51   169   168    2
    52    48    49    1
    53    48    47    1
    54    90    87    1
    55    45    44    2
    56     2     1    1
    57     2     3    1
    58    77    76    1
    59    77    78    1
    60    39    40    1
    61    73    74    2
    62    73    82   am
    63    40    41    1
    64    79    78    2
    65    79    80    1
    66   155   156    2
    67     4     3    2
    68    97    96    1
    69    44    43    1
    70     3    10   am
    71    87    86    1
    72    87    88    1
    73   143   142    2
    74   159   160    1
    75    47    46    1
    76   157   156    1
    77    82    83    1
    78    86    84   am
    79   142   141    1
    80    92    88   am
    81    92    93    1
    82   156   158    1
    83    88    89    2
    84    18    16   am
    85    94    93    1
    86    94    95    2
    87   160   161    1
    88   160   163    1
    89    43    46    1
    90    43    42    1
    91    10    11    1
    92   162   161    2
    93    93    96    1
    94    96    98    1
    95   165   163    1
    96    84    83    1
    97    84    85    2
    98   141   144    1
    99   141   140    1
   100   163   164    1
   101    16    17    2
   102    16    15    1
   103    99   100    1
   104   114   116   ar
   105   114   112   ar
   106    11    12    1
   107    11    14    1
   108   111   112    1
   109   111   108    1
   110   144   145    1
   111   116   117   ar
   112    15    14    1
   113    25    23    1
   114   109   108    1
   115   109   110    2
   116   112   113   ar
   117   107   108    1
   118   107   101   am
   119    12    13    2
   120    12    19   am
   121   145   146    1
   122    19    20    1
   123   100   101    1
   124   100   103    1
   125   101   102    2
   126   117   115   ar
   127   103   104    1
   128   113   115   ar
   129    20    23    1
   130    20    21    1
   131    23    24    1
   132   146   147    1
   133   195   194    1
   134   195   196    2
   135   197   194    1
   136   197   198    1
   137   200   199   ar
   138   194   193    1
   139   192   190    1
   140   132   130    1
   141   104   106    1
   142   104   105    1
   143    21    22    2
   144    21    26   am
   145   199   198    1
   146   199   201   ar
   147   130   129    1
   148    32    26    1
   149    32    31    1
   150   138   137    1
   151    26    27    1
   152   131   129    1
   153   190   191    1
   154   190   189    2
   155   129   126    1
   156   121   120    2
   157   189   188    1
   158    31    30    1
   159   126   127    1
   160   126   125    1
   161   137   139    1
   162   137   134    1
   163   133   127   am
   164   133   134    1
   165    27    28    1
   166    27    30    1
   167    28    29    2
   168   120   125   am
   169   120   119    1
   170   127   128    2
   171   135   134    1
   172   135   136    2
   173   118   119    1
   174   188   187    1
   175   123   122    1
   176   185   184    2
   177   119   122    1
   178   186   187    1
   179   186   183    1
   180   182   183    1
   181   184   183    1
   182   122   124    1
   183   181   179    1
   184   179   178    1
   185   174   175    1
   186   178   180    1
   187   178   175    1
   188   176   175    1
   189   176   177    2
