@<TRIPOS>MOLECULE
tmp/3w1xA00.pdb
 136 126 0 0 0
SMALL
GASTEIGER

@<TRIPOS>ATOM
      1  N         16.6240   19.1560   16.7910 N.3    44  LYS44      -0.1227
      2  CA        15.2890   19.1420   16.3020 C.3    44  LYS44       0.1736
      3  C         15.2990   19.0700   14.7580 C.2    44  LYS44       0.2596
      4  O         16.0150   19.8630   14.1560 O.2    44  LYS44      -0.2718
      5  CB        14.5940   20.4700   16.7290 C.3    44  LYS44       0.0541
      6  CG        13.2300   20.6830   16.0870 C.2    44  LYS44      -0.0272
      7  CD        12.0140   19.7340   16.4400 C.2    44  LYS44      -0.0103
      8  CE        10.7380   19.7530   15.5250 C.3    44  LYS44       0.1350
      9  NZ         9.4390   18.8160   15.7950 N.3    44  LYS44      -0.1262
     10  N         14.4050   18.2730   14.2200 N.am   45  SER45      -0.1952
     11  CA        14.2990   18.2210   12.7270 C.3    45  SER45       0.1924
     12  C         14.0210   19.6190   12.2210 C.2    45  SER45       0.2314
     13  O         13.1700   20.3220   12.7080 O.2    45  SER45      -0.2863
     14  CB        13.1560   17.3900   12.3100 C.3    45  SER45       0.2116
     15  OG        13.4420   15.9890   12.5800 O.3    45  SER45      -0.2180
     16  N         10.2030   27.8660   11.3690 N.3    51  ARG51      -0.1245
     17  CA         8.7740   27.5760   11.4940 C.3    51  ARG51       0.1563
     18  C          8.2820   27.7360   12.9200 C.2    51  ARG51       0.2260
     19  O          8.8940   27.3480   13.8370 O.2    51  ARG51      -0.2867
     20  CB         8.4640   26.1190   11.0870 C.3    51  ARG51       0.0307
     21  CG         8.6950   25.8020    9.6200 C.3    51  ARG51       0.0489
     22  CD         8.4290   24.3280    9.3100 C.3    51  ARG51       0.2205
     23  NE         7.1050   23.8320    9.6540 N.pl3  51  ARG51      -0.0865
     24  CZ         6.0600   23.8880    8.8650 C.cat  51  ARG51       0.5346
     25  NH1        6.1350   24.4890    7.6930 N.pl3  51  ARG51       0.1354
     26  NH2        4.9480   23.3820    9.2840 N.pl3  51  ARG51       0.1354
     27  N          2.4560   24.3670   14.6790 N.3    54  ASN54      -0.1240
     28  CA         1.0440   24.3960   14.8460 C.3    54  ASN54       0.1653
     29  C          0.6300   25.1190   16.1190 C.2    54  ASN54       0.2266
     30  O          1.3480   25.3350   17.0040 O.2    54  ASN54      -0.2867
     31  CB         0.4550   22.9640   14.8560 C.3    54  ASN54       0.1155
     32  CG         0.4480   22.3190   13.5110 C.2    54  ASN54       0.2627
     33  OD1        0.3800   22.9630   12.5130 O.2    54  ASN54      -0.2716
     34  ND2        0.5180   21.0310   13.4970 N.am   54  ASN54      -0.0877
     35  N          1.2660   14.0970   19.9220 N.3    68  ASN68      -0.1225
     36  CA         1.7580   15.3720   19.4150 C.3    68  ASN68       0.1785
     37  C          1.3970   15.6120   17.9580 C.2    68  ASN68       0.2598
     38  O          1.5120   14.7380   17.1070 O.2    68  ASN68      -0.2718
     39  CB         3.2900   15.5900   19.6190 C.3    68  ASN68       0.1169
     40  CG         4.1070   15.0520   18.5000 C.2    68  ASN68       0.2627
     41  OD1        4.2920   15.7270   17.4350 O.2    68  ASN68      -0.2716
     42  ND2        4.6320   13.8650   18.6650 N.am   68  ASN68      -0.0877
     43  N          1.0500   16.8450   17.6480 N.am   69  SER69      -0.1938
     44  CA         1.0050   17.3710   16.2710 C.3    69  SER69       0.2055
     45  C          1.7410   18.7050   16.2780 C.2    69  SER69       0.2643
     46  O          1.1070   19.7750   16.0830 O.2    69  SER69      -0.2714
     47  CB        -0.4700   17.4370   15.8170 C.3    69  SER69       0.2130
     48  OG        -0.9140   16.1540   15.5160 O.3    69  SER69      -0.2179
     49  N          3.0440   18.6700   16.4840 N.am   70  MET70      -0.1962
     50  CA         3.8380   19.8910   16.6270 C.3    70  MET70       0.1736
     51  C          3.8560   20.7390   15.3850 C.2    70  MET70       0.2617
     52  O          3.8190   21.9840   15.4290 O.2    70  MET70      -0.2715
     53  CB         5.2520   19.5600   17.0190 C.3    70  MET70       0.0427
     54  CG         5.4780   18.7730   18.2430 C.3    70  MET70       0.0599
     55  SD         4.7290   19.4670   19.7470 S.3    70  MET70      -0.1393
     56  CE         5.8060   20.7670   20.0670 C.3    70  MET70       0.0692
     57  N          3.9610   20.1090   14.2070 N.am   71  GLY71      -0.1940
     58  CA         4.0200   20.8300   12.9280 C.3    71  GLY71       0.2014
     59  C          5.3550   21.3340   12.6100 C.2    71  GLY71       0.2638
     60  O          5.5370   22.3940   11.9710 O.2    71  GLY71      -0.2714
     61  N          6.4130   20.6560   13.0360 N.am   72  LEU72      -0.1977
     62  CA         7.7900   20.9980   12.7140 C.3    72  LEU72       0.1596
     63  C          8.1560   22.4070   13.1450 C.2    72  LEU72       0.2287
     64  O          8.8050   23.1280   12.3620 O.2    72  LEU72      -0.2864
     65  CB         8.0910   20.8070   11.2070 C.3    72  LEU72       0.0297
     66  CG         8.8270   19.6580   10.7970 C.3    72  LEU72       0.0022
     67  CD1        8.8690   19.5590    9.2880 C.3    72  LEU72       0.0001
     68  CD2       10.1690   19.4470   11.4650 C.3    72  LEU72       0.0001
     69  N         14.4230   17.5660    8.0790 N.3   100  SER100     -0.1217
     70  CA        13.1100   17.1180    7.6740 C.3   100  SER100      0.1889
     71  C         12.5130   18.1080    6.7050 C.2   100  SER100      0.2288
     72  O         11.4270   18.7030    6.9150 O.2   100  SER100     -0.2866
     73  CB        12.3060   16.9150    8.9520 C.3   100  SER100      0.2089
     74  OG        10.9810   16.5680    8.6110 O.3   100  SER100     -0.2183
     75  N         10.4510   19.5660    3.5460 N.3   102  LEU102     -0.1245
     76  CA         9.0690   19.3570    3.1240 C.3   102  LEU102      0.1561
     77  C          8.9390   18.9230    1.6630 C.2   102  LEU102      0.2260
     78  O          7.8320   18.6610    1.1720 O.2   102  LEU102     -0.2867
     79  CB         8.2360   20.5650    3.5040 C.3   102  LEU102      0.0270
     80  CG         8.0320   20.5460    5.1140 C.3   102  LEU102      0.0019
     81  CD1        7.2930   21.8080    5.4040 C.3   102  LEU102      0.0001
     82  CD2        7.2310   19.4450    5.7350 C.3   102  LEU102      0.0001
     83  N         14.9990   12.5830    8.3770 N.3   128  ASN128     -0.1240
     84  CA        13.6720   12.1780    8.7870 C.3   128  ASN128      0.1653
     85  C         12.7540   11.8670    7.6070 C.2   128  ASN128      0.2266
     86  O         12.3570   12.7030    6.9220 O.2   128  ASN128     -0.2867
     87  CB        13.0410   13.3120    9.6240 C.3   128  ASN128      0.1155
     88  CG        11.7050   12.9260   10.2550 C.2   128  ASN128      0.2627
     89  OD1       11.3080   11.8600   10.2220 O.2   128  ASN128     -0.2716
     90  ND2       11.0910   13.8690   10.8600 N.am  128  ASN128     -0.0877
     91  N          9.8610   10.1450    8.0610 N.3   130  SER130     -0.1202
     92  CA         8.5360   10.0090    8.6790 C.3   130  SER130      0.2020
     93  C          8.0220   11.3520    8.7730 C.2   130  SER130      0.2619
     94  O          7.9260   11.9230    9.8000 O.2   130  SER130     -0.2717
     95  CB         8.5690    9.3230   10.0420 C.3   130  SER130      0.2103
     96  OG         9.9370    8.9210   10.4220 O.3   130  SER130     -0.2182
     97  N          7.7660   11.9050    7.6180 N.am  131  CYS131     -0.1956
     98  CA         7.5520   13.2630    7.3950 C.3   131  CYS131      0.1828
     99  C          6.5680   13.4690    6.1840 C.2   131  CYS131      0.2467
    100  O          6.6180   12.7880    5.2080 O.2   131  CYS131     -0.2730
    101  CB         8.9190   13.8230    6.8680 C.3   131  CYS131      0.0996
    102  SG         8.9800   15.6390    6.7470 S.3   131  CYS131     -0.0797
    103  N          5.7060   14.5680    6.2910 N.am  132  PRO132     -0.2726
    104  CA         4.9060   14.8760    5.0810 C.3   132  PRO132      0.1402
    105  C          5.6340   15.2780    3.7860 C.2   132  PRO132      0.2269
    106  O          6.6270   15.8800    3.7550 O.2   132  PRO132     -0.2865
    107  CB         4.0030   16.0470    5.5360 C.3   132  PRO132      0.0296
    108  CG         4.7140   16.6880    6.6170 C.3   132  PRO132      0.0237
    109  CD         5.2380   15.5520    7.4030 C.3   132  PRO132      0.0939
    110  N          9.8770    6.4910   14.7280 N.3   195  ASN195     -0.1225
    111  CA         9.0960    7.7210   14.8990 C.3   195  ASN195      0.1785
    112  C          7.7440    7.3740   15.5780 C.2   195  ASN195      0.2597
    113  O          7.5050    6.2700   15.8610 O.2   195  ASN195     -0.2718
    114  CB         8.9390    8.5040   13.5400 C.3   195  ASN195      0.1169
    115  CG         8.9620   10.0180   13.7350 C.2   195  ASN195      0.2627
    116  OD1        8.2780   10.5040   14.5500 O.2   195  ASN195     -0.2716
    117  ND2        9.7840   10.7060   12.9870 N.am  195  ASN195     -0.0877
    118  N          6.9490    8.3880   15.8040 N.am  196  SER196     -0.1952
    119  CA         5.6660    8.1390   16.4380 C.3   196  SER196      0.1924
    120  C          4.7460    7.2300   15.6610 C.2   196  SER196      0.2314
    121  O          4.7820    7.1570   14.5000 O.2   196  SER196     -0.2863
    122  CB         4.8620    9.4040   16.7470 C.3   196  SER196      0.2116
    123  OG         5.1660   10.4820   16.0710 O.3   196  SER196     -0.2180
    124  N         -5.3390   19.2230   13.7620 N.3   215  LYS215     -0.1245
    125  CA        -5.7430   17.9740   13.1450 C.3   215  LYS215      0.1561
    126  C         -6.9090   17.3440   13.8570 C.2   215  LYS215      0.2260
    127  O         -7.0270   16.1200   13.9300 O.2   215  LYS215     -0.2867
    128  CB        -4.5570   17.0110   13.0500 C.3   215  LYS215      0.0271
    129  CG        -3.4360   17.4760   12.0940 C.3   215  LYS215      0.0035
    130  CD        -2.2120   16.5530   12.1330 C.3   215  LYS215      0.0206
    131  CE        -2.5860   15.0930   11.8700 C.3   215  LYS215      0.1093
    132  NZ        -1.3840   14.2630   11.6010 N.3   215  LYS215     -0.1314
    133  N          0.6940   12.0760   16.6290 N.3   220  GLY220     -0.1225
    134  CA         1.5660   10.8800   16.7790 C.3   220  GLY220      0.1811
    135  C          1.7550   10.4740   18.2020 C.2   220  GLY220      0.2280
    136  O          1.9160   11.3030   19.1010 O.2   220  GLY220     -0.2866
@<TRIPOS>BOND
     1    78    77    2
     2    77    76    1
     3    76    79    1
     4    76    75    1
     5    79    80    1
     6   106   105    2
     7   105   104    1
     8   104   107    1
     9   104   103    1
    10    80    81    1
    11    80    82    1
    12   100    99    2
    13   107   108    1
    14    99   103   am
    15    99    98    1
    16   103   109    1
    17   108   109    1
    18    71    72    2
    19    71    70    1
    20   102   101    1
    21   101    98    1
    22    86    85    2
    23    98    97    1
    24    85    84    1
    25    97    93   am
    26    70    69    1
    27    70    73    1
    28    25    24    1
    29    91    92    1
    30    83    84    1
    31    74    73    1
    32    92    93    1
    33    92    95    1
    34    93    94    2
    35    84    87    1
    36    24    26    1
    37    24    23    2
    38    67    66    1
    39    22    21    1
    40    22    23    1
    41    21    20    1
    42    87    88    1
    43    95    96    1
    44    89    88    2
    45    88    90   am
    46    66    65    1
    47    66    68    1
    48    20    17    1
    49    65    62    1
    50    16    17    1
    51    17    18    1
    52   132   131    1
    53   131   130    1
    54    60    59    2
    55   129   130    1
    56   129   128    1
    57    12    13    2
    58    12    11    1
    59    14    15    1
    60    14    11    1
    61    64    63    2
    62    33    32    2
    63    59    58    1
    64    59    61   am
    65    62    61    1
    66    62    63    1
    67    11    10    1
    68    18    19    2
    69    58    57    1
    70   117   115   am
    71   128   125    1
    72   125   124    1
    73   125   126    1
    74    34    32   am
    75    32    31    1
    76   114   115    1
    77   114   111    1
    78   115   116    2
    79   126   127    2
    80     4     3    2
    81    57    51   am
    82    10     3   am
    83   121   120    2
    84    27    28    1
    85   110   111    1
    86     3     2    1
    87    28    31    1
    88    28    29    1
    89   111   112    1
    90    51    52    2
    91    51    50    1
    92    48    47    1
    93     8     9    1
    94     8     7    1
    95   112   118   am
    96   112   113    2
    97   120   119    1
    98   118   119    1
    99    47    44    1
   100   123   122    1
   101    46    45    2
   102     6     7    2
   103     6     5    1
   104    29    30    2
   105    44    45    1
   106    44    43    1
   107    45    49   am
   108     2     5    1
   109     2     1    1
   110   119   122    1
   111    49    50    1
   112    50    53    1
   113   133   134    1
   114   134   135    1
   115    53    54    1
   116    38    37    2
   117    41    40    2
   118    43    37   am
   119    37    36    1
   120   135   136    2
   121    54    55    1
   122    40    42   am
   123    40    39    1
   124    36    39    1
   125    36    35    1
   126    55    56    1
