@<TRIPOS>MOLECULE
tmp/3w21A00.pdb
 126 121 0 0 0
SMALL
GASTEIGER

@<TRIPOS>ATOM
      1  N        -20.9270   -3.9430  -20.6530 N.3   122  ARG122     -0.1245
      2  CA       -19.9100   -4.4450  -19.7140 C.3   122  ARG122      0.1563
      3  C        -20.4720   -5.6560  -18.9890 C.2   122  ARG122      0.2260
      4  O        -21.5600   -5.5910  -18.4070 O.2   122  ARG122     -0.2867
      5  CB       -19.4400   -3.3230  -18.7370 C.3   122  ARG122      0.0307
      6  CG       -19.1390   -2.0570  -19.5410 C.3   122  ARG122      0.0489
      7  CD       -18.2370   -0.9710  -18.9810 C.3   122  ARG122      0.2205
      8  NE       -18.9610   -0.0940  -18.0750 N.pl3 122  ARG122     -0.0865
      9  CZ       -19.0550    1.2450  -18.0880 C.cat 122  ARG122      0.5346
     10  NH1      -18.5140    2.0540  -19.0150 N.pl3 122  ARG122      0.1354
     11  NH2      -19.7490    1.7820  -17.0950 N.pl3 122  ARG122      0.1354
     12  N        -19.5410   -8.1570  -15.8720 N.3   124  TYR124     -0.1241
     13  CA       -18.6510   -8.3920  -14.7560 C.3   124  TYR124      0.1605
     14  C        -19.0170   -9.7790  -14.2350 C.2   124  TYR124      0.2264
     15  O        -20.1950  -10.0140  -13.8860 O.2   124  TYR124     -0.2867
     16  CB       -18.9000   -7.3830  -13.6600 C.3   124  TYR124      0.0534
     17  CG       -18.6690   -5.9250  -14.0260 C.ar  124  TYR124     -0.0201
     18  CD1      -17.4750   -5.3000  -13.6960 C.ar  124  TYR124     -0.0009
     19  CD2      -19.6600   -5.1720  -14.6620 C.ar  124  TYR124     -0.0009
     20  CE1      -17.2310   -3.9730  -13.9920 C.ar  124  TYR124      0.0417
     21  CE2      -19.4360   -3.8320  -14.9700 C.ar  124  TYR124      0.0417
     22  CZ       -18.2090   -3.2390  -14.6370 C.ar  124  TYR124      0.1957
     23  OH       -17.9790   -1.9120  -14.8960 O.3   124  TYR124     -0.2866
     24  N        -10.2900    3.3420   -8.6430 N.3   131  HIS131     -0.1241
     25  CA        -9.7340    4.1210   -9.7410 C.3   131  HIS131      0.1621
     26  C        -10.5280    5.4060   -9.8840 C.2   131  HIS131      0.2264
     27  O        -11.6000    5.5380   -9.2740 O.2   131  HIS131     -0.2867
     28  CB        -9.7270    3.2750  -11.0310 C.3   131  HIS131      0.0745
     29  CG       -11.0640    3.1450  -11.6210 C.ar  131  HIS131      0.0817
     30  ND1      -12.0070    2.3210  -11.0980 N.ar  131  HIS131     -0.2268
     31  CD2      -11.6740    3.8400  -12.6690 C.ar  131  HIS131      0.1154
     32  CE1      -13.1590    2.4590  -11.8000 C.ar  131  HIS131      0.1986
     33  NE2      -12.9560    3.4080  -12.7450 N.ar  131  HIS131     -0.2212
     34  N        -11.6140    8.2740  -13.3550 N.3   133  ASP133     -0.1239
     35  CA       -11.5450    8.4290  -14.7890 C.3   133  ASP133      0.1674
     36  C        -11.4250    9.9200  -15.1220 C.2   133  ASP133      0.2266
     37  O        -12.2700   10.7530  -14.6350 O.2   133  ASP133     -0.2867
     38  CB       -12.7880    7.8650  -15.4380 C.3   133  ASP133      0.1410
     39  CG       -13.1660    6.4630  -14.9270 C.2   133  ASP133      0.3668
     40  OD1      -12.6460    5.5110  -15.4670 O.co2 133  ASP133     -0.2456
     41  OD2      -14.0760    6.2940  -14.1060 O.co2 133  ASP133     -0.2456
     42  N        -19.2260    9.9610  -15.3120 N.3   155  GLY155     -0.1210
     43  CA       -19.4860    8.6150  -15.8000 C.3   155  GLY155      0.1956
     44  C        -20.9880    8.4010  -15.7230 C.2   155  GLY155      0.2612
     45  O        -21.6560    8.9240  -14.7630 O.2   155  GLY155     -0.2717
     46  N        -21.5430    7.6340  -16.7030 N.am  156  GLY156     -0.1942
     47  CA       -22.9770    7.3160  -16.6370 C.3   156  GLY156      0.2014
     48  C        -23.0600    5.8330  -17.0010 C.2   156  GLY156      0.2638
     49  O        -22.5150    5.3930  -18.0590 O.2   156  GLY156     -0.2714
     50  N        -23.7170    5.0680  -16.1310 N.am  157  PHE157     -0.1973
     51  CA       -23.9320    3.6750  -16.4460 C.3   157  PHE157      0.1639
     52  C        -25.3280    3.2270  -16.0210 C.2   157  PHE157      0.2290
     53  O        -25.7870    3.5360  -14.9390 O.2   157  PHE157     -0.2864
     54  CB       -22.8140    2.7470  -15.9190 C.3   157  PHE157      0.0560
     55  CG       -22.7360    2.6100  -14.3890 C.ar  157  PHE157     -0.0200
     56  CD1      -23.4480    1.5970  -13.7090 C.ar  157  PHE157     -0.0042
     57  CD2      -21.9590    3.4950  -13.6230 C.ar  157  PHE157     -0.0042
     58  CE1      -23.3400    1.4430  -12.3080 C.ar  157  PHE157     -0.0003
     59  CE2      -21.8740    3.3610  -12.1960 C.ar  157  PHE157     -0.0003
     60  CZ       -22.5380    2.3220  -11.5380 C.ar  157  PHE157     -0.0000
     61  N        -22.2560   10.2240  -12.2110 N.3   212  PHE212     -0.1241
     62  CA       -21.3570   10.6470  -11.1340 C.3   212  PHE212      0.1605
     63  C        -20.1210   11.3480  -11.6730 C.2   212  PHE212      0.2264
     64  O        -19.7870   11.2030  -12.8540 O.2   212  PHE212     -0.2867
     65  CB       -20.9340    9.4280  -10.2930 C.3   212  PHE212      0.0534
     66  CG       -20.0570    8.4280  -11.0550 C.ar  212  PHE212     -0.0203
     67  CD1      -20.6190    7.5190  -11.9310 C.ar  212  PHE212     -0.0042
     68  CD2      -18.6650    8.3860  -10.8260 C.ar  212  PHE212     -0.0042
     69  CE1      -19.8390    6.6010  -12.6420 C.ar  212  PHE212     -0.0003
     70  CE2      -17.8920    7.4780  -11.5340 C.ar  212  PHE212     -0.0003
     71  CZ       -18.4700    6.5800  -12.4100 C.ar  212  PHE212     -0.0000
     72  N        -13.3610    5.7880   -7.0610 N.3   218  HIS218     -0.1241
     73  CA       -14.5010    4.9000   -6.8470 C.3   218  HIS218      0.1621
     74  C        -14.1000    3.4800   -7.1560 C.2   218  HIS218      0.2264
     75  O        -13.0590    3.2420   -7.7880 O.2   218  HIS218     -0.2867
     76  CB       -15.7000    5.2960   -7.7250 C.3   218  HIS218      0.0745
     77  CG       -15.3670    5.4180   -9.1840 C.ar  218  HIS218      0.0817
     78  ND1      -14.7520    6.5040   -9.6970 N.ar  218  HIS218     -0.2268
     79  CD2      -15.6010    4.5710  -10.2390 C.ar  218  HIS218      0.1154
     80  CE1      -14.5870    6.3480  -11.0300 C.ar  218  HIS218      0.1986
     81  NE2      -15.0900    5.1530  -11.3620 N.ar  218  HIS218     -0.2212
     82  N        -15.9180   -0.7270   -7.8410 N.3   220  ILE220     -0.1245
     83  CA       -17.1130   -1.5720   -7.8690 C.3   220  ILE220      0.1561
     84  C        -16.8820   -2.8190   -6.9950 C.2   220  ILE220      0.2260
     85  O        -15.7930   -3.3890   -7.0360 O.2   220  ILE220     -0.2867
     86  CB       -17.5330   -1.9010   -9.3180 C.3   220  ILE220      0.0252
     87  CG1      -18.4600   -0.7650   -9.8210 C.3   220  ILE220      0.0019
     88  CG2      -18.3230   -3.2180   -9.3720 C.3   220  ILE220      0.0019
     89  CD1      -17.8760    0.1010  -10.9060 C.3   220  ILE220      0.0001
     90  N        -23.0220   -9.6990  -13.4800 N.3   227  ARG227     -0.1245
     91  CA       -23.5650   -8.3300  -13.4200 C.3   227  ARG227      0.1563
     92  C        -23.3660   -7.7300  -14.8080 C.2   227  ARG227      0.2260
     93  O        -22.2970   -7.9050  -15.4220 O.2   227  ARG227     -0.2867
     94  CB       -22.8370   -7.4920  -12.3440 C.3   227  ARG227      0.0307
     95  CG       -23.4340   -6.0860  -12.1180 C.3   227  ARG227      0.0489
     96  CD       -22.6920   -5.1870  -11.1230 C.3   227  ARG227      0.2205
     97  NE       -21.5380   -4.5270  -11.7280 N.pl3 227  ARG227     -0.0865
     98  CZ       -21.3100   -3.2100  -11.7760 C.cat 227  ARG227      0.5346
     99  NH1      -22.1330   -2.3200  -11.2030 N.pl3 227  ARG227      0.1354
    100  NH2      -20.2030   -2.7830  -12.3820 N.pl3 227  ARG227      0.1354
    101  N        -23.8470   -4.1430  -17.2090 N.3   229  THR229     -0.1218
    102  CA       -24.0650   -2.6810  -17.3280 C.3   229  THR229      0.1862
    103  C        -23.6880   -2.1770  -18.7170 C.2   229  THR229      0.2287
    104  O        -23.0350   -2.8900  -19.4910 O.2   229  THR229     -0.2866
    105  CB       -23.2180   -1.8520  -16.3220 C.3   229  THR229      0.1770
    106  OG1      -21.8340   -2.0150  -16.6230 O.3   229  THR229     -0.2211
    107  CG2      -23.5030   -2.2450  -14.8430 C.3   229  THR229      0.0375
    108  N        -20.8880    5.0430  -20.4550 N.3   231  LEU231     -0.1231
    109  CA       -20.0640    5.9440  -21.2260 C.3   231  LEU231      0.1693
    110  C        -19.6640    7.1020  -20.2880 C.2   231  LEU231      0.2592
    111  O        -20.0350    7.0780  -19.1310 O.2   231  LEU231     -0.2718
    112  CB       -20.8460    6.4020  -22.4560 C.3   231  LEU231      0.0284
    113  CG       -21.9120    7.5210  -22.5410 C.3   231  LEU231      0.0019
    114  CD1      -22.9760    7.3270  -23.6570 C.3   231  LEU231      0.0001
    115  CD2      -22.4920    8.1140  -21.2830 C.3   231  LEU231      0.0001
    116  N        -18.8680    8.0490  -20.7950 N.am  232  PHE232     -0.1976
    117  CA       -18.5020    9.2100  -20.0390 C.3   232  PHE232      0.1639
    118  C        -18.8730   10.4780  -20.8030 C.2   232  PHE232      0.2290
    119  O        -18.9490   10.4810  -22.0180 O.2   232  PHE232     -0.2864
    120  CB       -16.9670    9.1870  -19.8160 C.3   232  PHE232      0.0560
    121  CG       -16.4970    8.0570  -18.9230 C.ar  232  PHE232     -0.0200
    122  CD1      -16.3360    8.2770  -17.5450 C.ar  232  PHE232     -0.0042
    123  CD2      -16.1790    6.8150  -19.4540 C.ar  232  PHE232     -0.0042
    124  CE1      -15.8720    7.3010  -16.7200 C.ar  232  PHE232     -0.0003
    125  CE2      -15.6910    5.7890  -18.6140 C.ar  232  PHE232     -0.0003
    126  CZ       -15.5450    6.0380  -17.2400 C.ar  232  PHE232     -0.0000
@<TRIPOS>BOND
     1   114   113    1
     2   113   112    1
     3   113   115    1
     4   112   109    1
     5   119   118    2
     6   109   108    1
     7   109   110    1
     8   118   117    1
     9   116   110   am
    10   116   117    1
    11     1     2    1
    12   110   111    2
    13   117   120    1
    14   120   121    1
    15     2     3    1
    16     2     5    1
    17     6     7    1
    18     6     5    1
    19   104   103    2
    20   123   121   ar
    21   123   125   ar
    22    10     9    1
    23     3     4    2
    24     7     8    1
    25   121   122   ar
    26   103   102    1
    27   125   126   ar
    28     9     8    2
    29     9    11    1
    30    49    48    2
    31   122   124   ar
    32   102   101    1
    33   102   105    1
    34   126   124   ar
    35    48    47    1
    36    48    50   am
    37    46    47    1
    38    46    44   am
    39   106   105    1
    40    51    50    1
    41    51    52    1
    42    51    54    1
    43   105   107    1
    44    52    53    2
    45    54    55    1
    46    12    13    1
    47    43    44    1
    48    43    42    1
    49    44    45    2
    50    40    39   ar
    51    38    39    1
    52    38    35    1
    53    93    92    2
    54    36    35    1
    55    36    37    2
    56    21    19   ar
    57    21    22   ar
    58    39    41   ar
    59    23    22    1
    60    92    91    1
    61    35    34    1
    62    13    14    1
    63    13    16    1
    64    19    17   ar
    65    22    20   ar
    66    55    56   ar
    67    55    57   ar
    68    14    15    2
    69    17    18   ar
    70    17    16    1
    71    20    18   ar
    72    56    58   ar
    73    57    59   ar
    74    90    91    1
    75    91    94    1
    76    64    63    2
    77    33    31   ar
    78    33    32   ar
    79    31    29   ar
    80    69    71   ar
    81    69    67   ar
    82    71    70   ar
    83   100    98    1
    84    94    95    1
    85    58    60   ar
    86    61    62    1
    87    59    60   ar
    88    95    96    1
    89    67    66   ar
    90    32    30   ar
    91    98    97    2
    92    98    99    1
    93    97    96    1
    94    63    62    1
    95    29    30   ar
    96    29    28    1
    97    70    68   ar
    98    81    80   ar
    99    81    79   ar
   100    62    65    1
   101    66    68   ar
   102    66    65    1
   103    28    25    1
   104    80    78   ar
   105    89    87    1
   106    79    77   ar
   107    26    25    1
   108    26    27    2
   109    87    86    1
   110    25    24    1
   111    78    77   ar
   112    88    86    1
   113    86    83    1
   114    77    76    1
   115    83    82    1
   116    83    84    1
   117    75    74    2
   118    76    73    1
   119    74    73    1
   120    72    73    1
   121    85    84    2
