@<TRIPOS>MOLECULE
tmp/3w22B00.pdb
 121 111 0 0 0
SMALL
GASTEIGER

@<TRIPOS>ATOM
      1  N        -15.6600  -16.7440   15.9900 N.3    44  LYS44      -0.1231
      2  CA       -14.2880  -16.7260   15.4970 C.3    44  LYS44       0.1693
      3  C        -14.2200  -16.6580   13.9550 C.2    44  LYS44       0.2592
      4  O        -14.9000  -17.3910   13.2780 O.2    44  LYS44      -0.2718
      5  CB       -13.6040  -18.0010   15.9580 C.3    44  LYS44       0.0285
      6  CG       -12.2360  -18.2720   15.3230 C.3    44  LYS44       0.0035
      7  CD       -11.2000  -17.3410   15.9080 C.3    44  LYS44       0.0206
      8  CE        -9.8990  -17.3910   15.1480 C.3    44  LYS44       0.1093
      9  NZ        -8.9680  -16.3570   15.5860 N.3    44  LYS44      -0.1314
     10  N        -13.3520  -15.8290   13.4090 N.am   45  SER45      -0.1952
     11  CA       -13.2230  -15.7620   11.9530 C.3    45  SER45       0.1924
     12  C        -12.9660  -17.1940   11.4510 C.2    45  SER45       0.2314
     13  O        -12.0720  -17.9160   11.9860 O.2    45  SER45      -0.2863
     14  CB       -12.0750  -14.8490   11.5670 C.3    45  SER45       0.2116
     15  OG       -12.4260  -13.5110   11.7640 O.3    45  SER45      -0.2180
     16  N         -9.0330  -25.4670   10.9920 N.3    51  ARG51      -0.1245
     17  CA        -7.6330  -25.2230   11.0950 C.3    51  ARG51       0.1563
     18  C         -7.2400  -25.3650   12.5540 C.2    51  ARG51       0.2260
     19  O         -7.9210  -24.8670   13.4600 O.2    51  ARG51      -0.2867
     20  CB        -7.2440  -23.8060   10.6650 C.3    51  ARG51       0.0307
     21  CG        -7.5950  -23.3780    9.2720 C.3    51  ARG51       0.0489
     22  CD        -7.2380  -21.9110    9.0280 C.3    51  ARG51       0.2205
     23  NE        -5.8710  -21.5140    9.4200 N.pl3  51  ARG51      -0.0865
     24  CZ        -4.8020  -21.5790    8.6400 C.cat  51  ARG51       0.5346
     25  NH1       -4.9000  -22.0520    7.4190 N.pl3  51  ARG51       0.1354
     26  NH2       -3.6220  -21.1790    9.0770 N.pl3  51  ARG51       0.1354
     27  N         -1.5830  -21.9440   14.7080 N.3    54  ASN54      -0.1240
     28  CA        -0.1170  -21.9930   14.9140 C.3    54  ASN54       0.1653
     29  C          0.2920  -22.7430   16.1540 C.2    54  ASN54       0.2266
     30  O         -0.5370  -22.9530   17.0570 O.2    54  ASN54      -0.2867
     31  CB         0.4290  -20.5430   14.9800 C.3    54  ASN54       0.1155
     32  CG         0.4250  -19.8680   13.6250 C.2    54  ASN54       0.2627
     33  OD1        0.4390  -20.5340   12.5810 O.2    54  ASN54      -0.2716
     34  ND2        0.3780  -18.5610   13.6230 N.am   54  ASN54      -0.0877
     35  N         -0.6940  -11.7340   19.8620 N.3    68  ASN68      -0.1225
     36  CA        -1.1710  -13.0150   19.3950 C.3    68  ASN68       0.1785
     37  C         -0.7880  -13.2280   17.9360 C.2    68  ASN68       0.2598
     38  O         -0.8000  -12.3040   17.1390 O.2    68  ASN68      -0.2718
     39  CB        -2.7110  -13.1710   19.5500 C.3    68  ASN68       0.1169
     40  CG        -3.4820  -12.6780   18.3320 C.2    68  ASN68       0.2627
     41  OD1       -3.5890  -13.3670   17.3250 O.2    68  ASN68      -0.2716
     42  ND2       -3.9680  -11.4640   18.4010 N.am   68  ASN68      -0.0877
     43  N         -0.4730  -14.4800   17.6180 N.am   69  SER69      -0.1938
     44  CA        -0.3850  -14.9120   16.2410 C.3    69  SER69       0.2055
     45  C         -1.0270  -16.2760   16.2750 C.2    69  SER69       0.2643
     46  O         -0.3610  -17.3440   16.1770 O.2    69  SER69      -0.2714
     47  CB         1.0700  -14.8780   15.7900 C.3    69  SER69       0.2130
     48  OG         1.2780  -15.6580   14.6140 O.3    69  SER69      -0.2179
     49  N         -2.3520  -16.2330   16.3940 N.am   70  MET70      -0.1962
     50  CA        -3.0840  -17.4700   16.6140 C.3    70  MET70       0.1736
     51  C         -2.9770  -18.3480   15.3590 C.2    70  MET70       0.2617
     52  O         -2.9740  -19.5570   15.4740 O.2    70  MET70      -0.2715
     53  CB        -4.5610  -17.2270   16.9570 C.3    70  MET70       0.0427
     54  CG        -4.8330  -16.2580   18.1100 C.3    70  MET70       0.0599
     55  SD        -4.2010  -17.0130   19.5980 S.3    70  MET70      -0.1393
     56  CE        -5.3170  -18.3200   19.9730 C.3    70  MET70       0.0692
     57  N         -2.9930  -17.7530   14.1690 N.am   71  GLY71      -0.1940
     58  CA        -3.0720  -18.5520   12.9170 C.3    71  GLY71       0.2014
     59  C         -4.4280  -19.0320   12.4290 C.2    71  GLY71       0.2638
     60  O         -4.5610  -20.0950   11.7510 O.2    71  GLY71      -0.2714
     61  N         -5.4650  -18.3120   12.8260 N.am   72  LEU72      -0.1977
     62  CA        -6.8440  -18.5960   12.4390 C.3    72  LEU72       0.1596
     63  C         -7.2790  -20.0330   12.7710 C.2    72  LEU72       0.2287
     64  O         -7.8430  -20.7740   11.9270 O.2    72  LEU72      -0.2864
     65  CB        -6.9400  -18.2890   10.9400 C.3    72  LEU72       0.0297
     66  CG        -8.2590  -17.9230   10.2800 C.3    72  LEU72       0.0022
     67  CD1       -9.0640  -16.9060   11.0510 C.3    72  LEU72       0.0001
     68  CD2       -7.9530  -17.4070    8.8480 C.3    72  LEU72       0.0001
     69  N        -13.0340  -15.2640    7.2380 N.3   100  SER100     -0.1217
     70  CA       -11.6990  -14.8280    6.8550 C.3   100  SER100      0.1889
     71  C        -11.1170  -15.8840    5.9320 C.2   100  SER100      0.2288
     72  O        -10.1130  -16.5140    6.2530 O.2   100  SER100     -0.2866
     73  CB       -10.7960  -14.6950    8.0840 C.3   100  SER100      0.2089
     74  OG        -9.4860  -14.2950    7.6900 O.3   100  SER100     -0.2183
     75  N         -9.0990  -17.6910    2.8820 N.3   102  LEU102     -0.1245
     76  CA        -7.7220  -17.4170    2.5080 C.3   102  LEU102      0.1561
     77  C         -7.6060  -16.8680    1.0560 C.2   102  LEU102      0.2260
     78  O         -6.5330  -16.4520    0.6440 O.2   102  LEU102     -0.2867
     79  CB        -6.8660  -18.6440    2.7600 C.3   102  LEU102      0.0270
     80  CG        -6.8420  -19.0280    4.2680 C.3   102  LEU102      0.0019
     81  CD1       -6.0400  -20.2990    4.4770 C.3   102  LEU102      0.0001
     82  CD2       -6.3500  -17.9300    5.2130 C.3   102  LEU102      0.0001
     83  N        -13.7950  -10.2390    7.6100 N.3   128  ASN128     -0.1240
     84  CA       -12.5080   -9.8770    8.1180 C.3   128  ASN128      0.1653
     85  C        -11.5180   -9.4990    6.9910 C.2   128  ASN128      0.2266
     86  O        -11.0260  -10.3580    6.2840 O.2   128  ASN128     -0.2867
     87  CB       -11.9780  -10.9880    8.9650 C.3   128  ASN128      0.1155
     88  CG       -10.6540  -10.6610    9.6280 C.2   128  ASN128      0.2627
     89  OD1      -10.0180   -9.6720    9.3540 O.2   128  ASN128     -0.2716
     90  ND2      -10.2070  -11.5670   10.4650 N.am  128  ASN128     -0.0877
     91  N         -8.5470   -8.2580    7.2910 N.3   130  SER130     -0.1217
     92  CA        -7.1610   -8.7350    7.5540 C.3   130  SER130      0.1889
     93  C         -6.8730  -10.1520    6.9950 C.2   130  SER130      0.2288
     94  O         -5.7840  -10.6850    7.1460 O.2   130  SER130     -0.2866
     95  CB        -6.8210   -8.6160    9.0370 C.3   130  SER130      0.2089
     96  OG        -6.9860   -7.2460    9.4150 O.3   130  SER130     -0.2183
     97  N         -5.6960  -12.8920    4.3070 N.3   132  PRO132     -0.2116
     98  CA        -4.4790  -12.6390    3.5290 C.3   132  PRO132      0.1372
     99  C         -4.6380  -12.3090    2.0790 C.2   132  PRO132      0.2244
    100  O         -5.4800  -12.8500    1.4200 O.2   132  PRO132     -0.2868
    101  CB        -3.7730  -13.9750    3.5890 C.3   132  PRO132      0.0268
    102  CG        -4.8790  -14.9370    3.4890 C.3   132  PRO132      0.0207
    103  CD        -5.6860  -14.4110    4.6000 C.3   132  PRO132      0.0892
    104  N         -9.0140   -4.0740   14.1850 N.3   195  ASN195     -0.1225
    105  CA        -8.3310   -5.3030   14.4630 C.3   195  ASN195      0.1785
    106  C         -7.0590   -5.0110   15.2120 C.2   195  ASN195      0.2597
    107  O         -6.7020   -3.8500   15.4050 O.2   195  ASN195     -0.2718
    108  CB        -8.0150   -6.0530   13.1350 C.3   195  ASN195      0.1169
    109  CG        -7.9830   -7.5440   13.2870 C.2   195  ASN195      0.2627
    110  OD1       -7.3820   -8.0990   14.2390 O.2   195  ASN195     -0.2716
    111  ND2       -8.5780   -8.2450   12.3040 N.am  195  ASN195     -0.0877
    112  N         -6.3630   -6.0370   15.6390 N.am  196  SER196     -0.1952
    113  CA        -5.0640   -5.8560   16.3180 C.3   196  SER196      0.1924
    114  C         -4.0130   -5.0130   15.5650 C.2   196  SER196      0.2314
    115  O         -3.9800   -4.9440   14.3030 O.2   196  SER196     -0.2863
    116  CB        -4.5300   -7.2080   16.8160 C.3   196  SER196      0.2116
    117  OG        -4.2270   -8.0520   15.7820 O.3   196  SER196     -0.2180
    118  N         -0.0340   -9.6060   16.5810 N.3   220  GLY220     -0.1225
    119  CA        -0.8750   -8.4640   16.6770 C.3   220  GLY220      0.1811
    120  C         -1.0810   -8.0390   18.1440 C.2   220  GLY220      0.2280
    121  O         -1.2320   -8.8580   19.0360 O.2   220  GLY220     -0.2866
@<TRIPOS>BOND
     1    78    77    2
     2    77    76    1
     3   100    99    2
     4    99    98    1
     5    76    79    1
     6    76    75    1
     7    79    80    1
     8   102   101    1
     9   102   103    1
    10    98   101    1
    11    98    97    1
    12    80    81    1
    13    80    82    1
    14    97   103    1
    15    71    72    2
    16    71    70    1
    17    86    85    2
    18    70    69    1
    19    70    73    1
    20    85    84    1
    21    93    94    2
    22    93    92    1
    23    91    92    1
    24    25    24    1
    25    92    95    1
    26    83    84    1
    27    74    73    1
    28    84    87    1
    29    24    26    1
    30    24    23    2
    31    68    66    1
    32    87    88    1
    33    22    21    1
    34    22    23    1
    35    95    96    1
    36    21    20    1
    37    89    88    2
    38    88    90   am
    39    66    65    1
    40    66    67    1
    41    20    17    1
    42    65    62    1
    43    16    17    1
    44    17    18    1
    45    12    11    1
    46    12    13    2
    47    14    15    1
    48    14    11    1
    49    60    59    2
    50    64    63    2
    51    11    10    1
    52   111   109   am
    53    59    61   am
    54    59    58    1
    55    62    63    1
    56    62    61    1
    57    18    19    2
    58    33    32    2
    59    58    57    1
    60   108   109    1
    61   108   105    1
    62     4     3    2
    63   109   110    2
    64    10     3   am
    65    34    32   am
    66    32    31    1
    67     3     2    1
    68    57    51   am
    69   104   105    1
    70   115   114    2
    71   105   106    1
    72    48    47    1
    73    27    28    1
    74    28    31    1
    75    28    29    1
    76     8     9    1
    77     8     7    1
    78   106   107    2
    79   106   112   am
    80     6     7    1
    81     6     5    1
    82    51    52    2
    83    51    50    1
    84     2     5    1
    85     2     1    1
    86   114   113    1
    87   112   113    1
    88   117   116    1
    89    47    44    1
    90    29    30    2
    91    46    45    2
    92    44    45    1
    93    44    43    1
    94    45    49   am
    95   113   116    1
    96    49    50    1
    97   118   119    1
    98    50    53    1
    99   119   120    1
   100    53    54    1
   101    38    37    2
   102    41    40    2
   103    43    37   am
   104    37    36    1
   105    54    55    1
   106   120   121    2
   107    40    42   am
   108    40    39    1
   109    36    39    1
   110    36    35    1
   111    55    56    1
