@<TRIPOS>MOLECULE
tmp/3w23A00.pdb
 136 126 0 0 0
SMALL
GASTEIGER

@<TRIPOS>ATOM
      1  N         16.8160   19.2670   16.8750 N.3    44  LYS44      -0.1227
      2  CA        15.4610   19.3120   16.3600 C.3    44  LYS44       0.1736
      3  C         15.4450   19.2180   14.8250 C.2    44  LYS44       0.2596
      4  O         16.1500   20.0190   14.1990 O.2    44  LYS44      -0.2718
      5  CB        14.7780   20.6200   16.8050 C.3    44  LYS44       0.0541
      6  CG        13.3970   20.8310   16.2270 C.2    44  LYS44      -0.0272
      7  CD        12.2410   19.8220   16.6330 C.2    44  LYS44      -0.0103
      8  CE        10.9840   19.8620   15.7210 C.3    44  LYS44       0.1350
      9  NZ         9.7600   18.9420   16.0070 N.3    44  LYS44      -0.1262
     10  N         14.5540   18.3800   14.2970 N.am   45  SER45      -0.1952
     11  CA        14.4150   18.2760   12.7980 C.3    45  SER45       0.1924
     12  C         14.1240   19.6780   12.3140 C.2    45  SER45       0.2314
     13  O         13.3160   20.4040   12.8300 O.2    45  SER45      -0.2863
     14  CB        13.2790   17.4080   12.3760 C.3    45  SER45       0.2116
     15  OG        13.5950   16.0800   12.7490 O.3    45  SER45      -0.2180
     16  N         10.2360   27.8670   11.4370 N.3    51  ARG51      -0.1245
     17  CA         8.8100   27.6050   11.5240 C.3    51  ARG51       0.1563
     18  C          8.3120   27.8080   12.9430 C.2    51  ARG51       0.2260
     19  O          8.9290   27.3940   13.8380 O.2    51  ARG51      -0.2867
     20  CB         8.4920   26.1470   11.1710 C.3    51  ARG51       0.0307
     21  CG         8.6950   25.8040    9.7260 C.3    51  ARG51       0.0489
     22  CD         8.4400   24.3260    9.4060 C.3    51  ARG51       0.2205
     23  NE         7.1310   23.8380    9.7890 N.pl3  51  ARG51      -0.0865
     24  CZ         6.0870   23.8490    8.9890 C.cat  51  ARG51       0.5346
     25  NH1        6.1810   24.3730    7.8050 N.pl3  51  ARG51       0.1354
     26  NH2        4.9470   23.3810    9.3860 N.pl3  51  ARG51       0.1354
     27  N          2.4930   24.4220   14.7210 N.3    54  ASN54      -0.1240
     28  CA         1.0750   24.4470   14.8890 C.3    54  ASN54       0.1653
     29  C          0.6250   25.1800   16.1560 C.2    54  ASN54       0.2266
     30  O          1.3180   25.3840   17.0680 O.2    54  ASN54      -0.2867
     31  CB         0.5210   23.0120   14.9130 C.3    54  ASN54       0.1155
     32  CG         0.5330   22.3360   13.5770 C.2    54  ASN54       0.2627
     33  OD1        0.5840   22.9490   12.5530 O.2    54  ASN54      -0.2716
     34  ND2        0.5160   21.0360   13.6120 N.am   54  ASN54      -0.0877
     35  N          1.2560   14.1910   19.9240 N.3    68  ASN68      -0.1225
     36  CA         1.7560   15.4910   19.4380 C.3    68  ASN68       0.1785
     37  C          1.3680   15.7080   17.9870 C.2    68  ASN68       0.2598
     38  O          1.4310   14.8290   17.1610 O.2    68  ASN68      -0.2718
     39  CB         3.2750   15.7110   19.6400 C.3    68  ASN68       0.1169
     40  CG         4.1020   15.1480   18.5300 C.2    68  ASN68       0.2627
     41  OD1        4.2830   15.8160   17.4980 O.2    68  ASN68      -0.2716
     42  ND2        4.6010   13.9610   18.6870 N.am   68  ASN68      -0.0877
     43  N          1.0840   16.9380   17.6450 N.am   69  SER69      -0.1938
     44  CA         1.0770   17.4370   16.2750 C.3    69  SER69       0.2055
     45  C          1.7640   18.7770   16.3310 C.2    69  SER69       0.2643
     46  O          1.1280   19.8240   16.1930 O.2    69  SER69      -0.2714
     47  CB        -0.3520   17.4950   15.7760 C.3    69  SER69       0.2130
     48  OG        -0.8740   16.1960   15.5390 O.3    69  SER69      -0.2179
     49  N          3.0860   18.7880   16.5290 N.am   70  MET70      -0.1962
     50  CA         3.8390   19.9970   16.7320 C.3    70  MET70       0.1736
     51  C          3.8550   20.8790   15.4700 C.2    70  MET70       0.2617
     52  O          3.8520   22.0980   15.5270 O.2    70  MET70      -0.2715
     53  CB         5.2600   19.6630   17.0650 C.3    70  MET70       0.0427
     54  CG         5.4740   18.8690   18.3280 C.3    70  MET70       0.0599
     55  SD         4.7770   19.5400   19.8100 S.3    70  MET70      -0.1393
     56  CE         5.8100   20.9340   20.0750 C.3    70  MET70       0.0692
     57  N          3.9080   20.2710   14.2870 N.am   71  GLY71      -0.1940
     58  CA         4.0010   20.9830   13.0010 C.3    71  GLY71       0.2014
     59  C          5.3540   21.4730   12.7100 C.2    71  GLY71       0.2638
     60  O          5.5630   22.4980   12.0720 O.2    71  GLY71      -0.2714
     61  N          6.3490   20.7770   13.1750 N.am   72  LEU72      -0.1977
     62  CA         7.7370   21.0130   12.9040 C.3    72  LEU72       0.1596
     63  C          8.1910   22.4480   13.2770 C.2    72  LEU72       0.2287
     64  O          8.9090   23.1430   12.5000 O.2    72  LEU72      -0.2864
     65  CB         8.0910   20.6040   11.4580 C.3    72  LEU72       0.0297
     66  CG         9.4960   20.3710   10.9110 C.3    72  LEU72       0.0022
     67  CD1       10.2320   19.5130   11.8640 C.3    72  LEU72       0.0001
     68  CD2        9.3560   19.7230    9.5430 C.3    72  LEU72       0.0001
     69  N         14.4380   17.6760    8.1730 N.3   100  SER100     -0.1217
     70  CA        13.1590   17.1640    7.7540 C.3   100  SER100      0.1889
     71  C         12.5220   18.1590    6.7970 C.2   100  SER100      0.2288
     72  O         11.4590   18.7480    7.0410 O.2   100  SER100     -0.2866
     73  CB        12.3380   16.9250    9.0290 C.3   100  SER100      0.2089
     74  OG        11.0660   16.3380    8.7730 O.3   100  SER100     -0.2183
     75  N         10.4900   19.6320    3.5950 N.3   102  LEU102     -0.1245
     76  CA         9.1430   19.3820    3.2050 C.3   102  LEU102      0.1561
     77  C          8.9940   18.9520    1.7340 C.2   102  LEU102      0.2260
     78  O          7.8730   18.6610    1.2580 O.2   102  LEU102     -0.2867
     79  CB         8.2130   20.5340    3.6180 C.3   102  LEU102      0.0270
     80  CG         8.0800   20.5660    5.2280 C.3   102  LEU102      0.0019
     81  CD1        7.3160   21.7410    5.7500 C.3   102  LEU102      0.0001
     82  CD2        7.3430   19.3600    5.8230 C.3   102  LEU102      0.0001
     83  N         14.9910   12.6700    8.5010 N.3   128  ASN128     -0.1240
     84  CA        13.6470   12.2520    8.8800 C.3   128  ASN128      0.1653
     85  C         12.8250   11.9300    7.7120 C.2   128  ASN128      0.2266
     86  O         12.4480   12.8200    6.9700 O.2   128  ASN128     -0.2867
     87  CB        13.0230   13.3110    9.7580 C.3   128  ASN128      0.1155
     88  CG        11.6780   12.9010   10.2670 C.2   128  ASN128      0.2627
     89  OD1       11.3260   11.7650   10.3150 O.2   128  ASN128     -0.2716
     90  ND2       11.0670   13.8460   10.9150 N.am  128  ASN128     -0.0877
     91  N          9.8630   10.1430    8.1880 N.3   130  SER130     -0.1202
     92  CA         8.4820   10.0890    8.6870 C.3   130  SER130      0.2020
     93  C          8.0190   11.4900    8.7380 C.2   130  SER130      0.2619
     94  O          7.9750   12.0970    9.7530 O.2   130  SER130     -0.2717
     95  CB         8.3620    9.4460   10.0440 C.3   130  SER130      0.2103
     96  OG         7.0670    9.5240   10.5650 O.3   130  SER130     -0.2182
     97  N          7.7260   12.0060    7.5680 N.am  131  CYS131     -0.1956
     98  CA         7.5500   13.3630    7.3000 C.3   131  CYS131      0.1828
     99  C          6.5500   13.5590    6.0910 C.2   131  CYS131      0.2467
    100  O          6.5920   12.8740    5.1300 O.2   131  CYS131     -0.2730
    101  CB         8.9130   13.8860    6.8320 C.3   131  CYS131      0.0996
    102  SG         9.0110   15.6760    6.6450 S.3   131  CYS131     -0.0797
    103  N          5.7260   14.6900    6.1970 N.am  132  PRO132     -0.2726
    104  CA         4.8880   14.9680    5.0110 C.3   132  PRO132      0.1402
    105  C          5.6260   15.2930    3.7200 C.2   132  PRO132      0.2269
    106  O          6.6670   15.8000    3.7300 O.2   132  PRO132     -0.2865
    107  CB         4.0900   16.2330    5.4090 C.3   132  PRO132      0.0296
    108  CG         4.0850   16.2710    6.8600 C.3   132  PRO132      0.0237
    109  CD         5.4150   15.7860    7.2560 C.3   132  PRO132      0.0939
    110  N          9.8960    6.5820   14.7070 N.3   195  ASN195     -0.1225
    111  CA         9.1540    7.8100   14.9240 C.3   195  ASN195      0.1785
    112  C          7.8010    7.4390   15.5890 C.2   195  ASN195      0.2597
    113  O          7.5460    6.3340   15.8110 O.2   195  ASN195     -0.2718
    114  CB         8.9770    8.5970   13.5920 C.3   195  ASN195      0.1169
    115  CG         8.9940   10.1160   13.7850 C.2   195  ASN195      0.2627
    116  OD1        8.3140   10.6080   14.6040 O.2   195  ASN195     -0.2716
    117  ND2        9.8210   10.7930   13.0410 N.am  195  ASN195     -0.0877
    118  N          7.0250    8.4530   15.9110 N.am  196  SER196     -0.1952
    119  CA         5.7730    8.2230   16.5810 C.3   196  SER196      0.1924
    120  C          4.7920    7.3740   15.7670 C.2   196  SER196      0.2314
    121  O          4.8670    7.3000   14.6170 O.2   196  SER196     -0.2863
    122  CB         5.1410    9.5750   16.9930 C.3   196  SER196      0.2116
    123  OG         5.1530   10.4680   15.9980 O.3   196  SER196     -0.2180
    124  N         -5.3430   19.2810   13.7160 N.3   215  LYS215     -0.1245
    125  CA        -5.7500   18.0360   13.0930 C.3   215  LYS215      0.1561
    126  C         -6.8960   17.3800   13.8320 C.2   215  LYS215      0.2260
    127  O         -7.0330   16.1450   13.8840 O.2   215  LYS215     -0.2867
    128  CB        -4.5640   17.0760   12.9610 C.3   215  LYS215      0.0271
    129  CG        -3.4820   17.5970   12.0370 C.3   215  LYS215      0.0035
    130  CD        -2.3170   16.5820   11.9910 C.3   215  LYS215      0.0206
    131  CE        -2.6840   15.1340   11.7230 C.3   215  LYS215      0.1093
    132  NZ        -1.4640   14.3400   11.3680 N.3   215  LYS215     -0.1314
    133  N          0.7150   12.1330   16.6060 N.3   220  GLY220     -0.1225
    134  CA         1.6050   10.9570   16.7360 C.3   220  GLY220      0.1811
    135  C          1.7590   10.5450   18.1920 C.2   220  GLY220      0.2280
    136  O          1.8890   11.3620   19.0880 O.2   220  GLY220     -0.2866
@<TRIPOS>BOND
     1    78    77    2
     2    77    76    1
     3    76    75    1
     4    76    79    1
     5    79    80    1
     6   105   106    2
     7   105   104    1
     8   104   107    1
     9   104   103    1
    10   100    99    2
    11    80    81    1
    12    80    82    1
    13   107   108    1
    14    99   103   am
    15    99    98    1
    16   103   109    1
    17   102   101    1
    18    71    72    2
    19    71    70    1
    20   101    98    1
    21   108   109    1
    22    86    85    2
    23    98    97    1
    24    97    93   am
    25    85    84    1
    26    70    69    1
    27    70    73    1
    28    25    24    1
    29    91    92    1
    30    83    84    1
    31    92    93    1
    32    92    95    1
    33    93    94    2
    34    74    73    1
    35    84    87    1
    36    24    26    1
    37    24    23    2
    38    22    21    1
    39    22    23    1
    40    68    66    1
    41    21    20    1
    42    87    88    1
    43    95    96    1
    44    88    89    2
    45    88    90   am
    46    66    65    1
    47    66    67    1
    48    20    17    1
    49   132   131    1
    50    16    17    1
    51    65    62    1
    52    17    18    1
    53   131   130    1
    54   130   129    1
    55   129   128    1
    56    60    59    2
    57    12    11    1
    58    12    13    2
    59    14    15    1
    60    14    11    1
    61    64    63    2
    62    33    32    2
    63    59    58    1
    64    59    61   am
    65    11    10    1
    66    62    61    1
    67    62    63    1
    68    18    19    2
    69   128   125    1
    70    58    57    1
    71   117   115   am
    72   125   124    1
    73   125   126    1
    74    32    34   am
    75    32    31    1
    76   114   115    1
    77   114   111    1
    78   115   116    2
    79   126   127    2
    80     4     3    2
    81    57    51   am
    82    10     3   am
    83   121   120    2
    84   110   111    1
    85    27    28    1
    86     3     2    1
    87    28    31    1
    88    28    29    1
    89   111   112    1
    90    51    52    2
    91    51    50    1
    92    48    47    1
    93   112   113    2
    94   112   118   am
    95     8     9    1
    96     8     7    1
    97   120   119    1
    98    47    44    1
    99   118   119    1
   100   123   122    1
   101    29    30    2
   102    46    45    2
   103     6     7    2
   104     6     5    1
   105    44    45    1
   106    44    43    1
   107    45    49   am
   108     2     5    1
   109     2     1    1
   110    49    50    1
   111   119   122    1
   112   133   134    1
   113    50    53    1
   114   134   135    1
   115    53    54    1
   116    38    37    2
   117    41    40    2
   118    43    37   am
   119    37    36    1
   120   135   136    2
   121    54    55    1
   122    40    42   am
   123    40    39    1
   124    36    39    1
   125    36    35    1
   126    55    56    1
