@<TRIPOS>MOLECULE
tmp/3w25A00.pdb
 140 137 0 0 0
SMALL
GASTEIGER

@<TRIPOS>ATOM
      1  N         -2.5640   28.2460   -4.2250 N.3    48  GLU48      -0.1231
      2  CA        -3.8850   28.8430   -4.1030 C.3    48  GLU48       0.1699
      3  C         -3.8930   29.9000   -3.0010 C.2    48  GLU48       0.2592
      4  O         -4.6020   30.9070   -3.1450 O.2    48  GLU48      -0.2718
      5  CB        -4.8850   27.7180   -3.8030 C.3    48  GLU48       0.0402
      6  CG        -6.3440   28.1980   -3.9170 C.3    48  GLU48       0.1161
      7  CD        -7.3890   27.0980   -3.6240 C.2    48  GLU48       0.3649
      8  OE1       -6.9810   25.9960   -3.2160 O.co2  48  GLU48      -0.2457
      9  OE2       -8.5770   27.4040   -3.7660 O.co2  48  GLU48      -0.2457
     10  N         -3.1610   29.6590   -1.9190 N.am   49  ASN49      -0.1974
     11  CA        -3.1300   30.5750   -0.7770 C.3    49  ASN49       0.1688
     12  C         -1.7850   30.7620   -0.1240 C.2    49  ASN49       0.2292
     13  O         -1.5720   31.8000    0.4910 O.2    49  ASN49      -0.2864
     14  CB        -4.0830   30.0940    0.3460 C.3    49  ASN49       0.1181
     15  CG        -5.5210   30.2030   -0.0690 C.2    49  ASN49       0.2629
     16  OD1       -6.0390   31.3310   -0.2600 O.2    49  ASN49      -0.2716
     17  ND2       -6.1930   29.0690   -0.2550 N.am   49  ASN49      -0.0877
     18  N          0.1900   34.2100   -0.5640 N.3    52  LYS52      -0.1245
     19  CA        -0.4670   35.4730   -0.3060 C.3    52  LYS52       0.1561
     20  C          0.2480   36.2280    0.8320 C.2    52  LYS52       0.2260
     21  O          0.9210   35.6200    1.6640 O.2    52  LYS52      -0.2867
     22  CB        -1.9540   35.2550   -0.0460 C.3    52  LYS52       0.0271
     23  CG        -2.6460   34.8490   -1.3080 C.3    52  LYS52       0.0035
     24  CD        -4.0770   34.3740   -1.0670 C.3    52  LYS52       0.0206
     25  CE        -4.7670   34.1120   -2.4030 C.3    52  LYS52       0.1093
     26  NZ        -6.1140   33.4020   -2.2250 N.3    52  LYS52      -0.1314
     27  N          1.6990   33.8130   -6.6990 N.3    85  HIS85      -0.1241
     28  CA         0.4150   34.5270   -6.4170 C.3    85  HIS85       0.1621
     29  C          0.3910   34.7810   -4.9440 C.2    85  HIS85       0.2264
     30  O          0.3650   33.8220   -4.1680 O.2    85  HIS85      -0.2867
     31  CB        -0.7230   33.6150   -6.8670 C.3    85  HIS85       0.0745
     32  CG        -2.0960   34.2390   -6.6390 C.ar   85  HIS85       0.0817
     33  ND1       -2.5870   35.2390   -7.4550 N.ar   85  HIS85      -0.2268
     34  CD2       -3.0260   34.0250   -5.6710 C.ar   85  HIS85       0.1154
     35  CE1       -3.8150   35.5920   -6.9980 C.ar   85  HIS85       0.1986
     36  NE2       -4.0830   34.8890   -5.9270 N.ar   85  HIS85      -0.2212
     37  N         -2.6510   42.4950   -2.6090 N.3    89  TRP89      -0.1241
     38  CA        -4.0920   42.2770   -2.8090 C.3    89  TRP89       0.1605
     39  C         -4.7630   43.0110   -1.6350 C.2    89  TRP89       0.2264
     40  O         -4.0820   43.4000   -0.6810 O.2    89  TRP89      -0.2867
     41  CB        -4.3540   40.7300   -2.7320 C.3    89  TRP89       0.0550
     42  CG        -5.7320   40.2940   -3.1850 C.ar   89  TRP89       0.0003
     43  CD1       -6.5910   40.9120   -4.0410 C.ar   89  TRP89       0.0946
     44  CD2       -6.3410   39.0580   -2.7900 C.ar   89  TRP89       0.0152
     45  NE1       -7.7270   40.1010   -4.2070 N.ar   89  TRP89      -0.2442
     46  CE2       -7.5910   38.9780   -3.4300 C.ar   89  TRP89       0.0810
     47  CE3       -5.9420   37.9930   -1.9320 C.ar   89  TRP89       0.0012
     48  CZ2       -8.4790   37.9100   -3.2480 C.ar   89  TRP89       0.0191
     49  CZ3       -6.8190   36.9110   -1.7570 C.ar   89  TRP89       0.0001
     50  CH2       -8.0670   36.8980   -2.4260 C.ar   89  TRP89       0.0015
     51  N         -6.6330   38.8190    2.3180 N.3    92  GLN92      -0.1245
     52  CA        -5.5600   37.9740    2.8200 C.3    92  GLN92       0.1566
     53  C         -4.2480   38.7350    2.9300 C.2    92  GLN92       0.2260
     54  O         -3.1590   38.2310    2.5730 O.2    92  GLN92      -0.2867
     55  CB        -5.4320   36.6870    1.9930 C.3    92  GLN92       0.0367
     56  CG        -6.7120   35.7830    2.2420 C.3    92  GLN92       0.0905
     57  CD        -6.6590   34.5770    1.3340 C.2    92  GLN92       0.2608
     58  OE1       -7.2760   34.5820    0.2720 O.2    92  GLN92      -0.2717
     59  NE2       -5.9830   33.5100    1.7760 N.am   92  GLN92      -0.0878
     60  N         -2.9270   42.3330   -7.5330 N.3   145  ASN145     -0.1225
     61  CA        -4.1170   41.4770   -7.8050 C.3   145  ASN145      0.1785
     62  C         -5.3900   42.2670   -7.5580 C.2   145  ASN145      0.2597
     63  O         -5.5260   42.9090   -6.4980 O.2   145  ASN145     -0.2718
     64  CB        -4.0600   40.2810   -6.8050 C.3   145  ASN145      0.1169
     65  CG        -4.9430   39.1680   -7.2330 C.2   145  ASN145      0.2627
     66  OD1       -5.0150   38.8160   -8.4040 O.2   145  ASN145     -0.2716
     67  ND2       -5.6110   38.5170   -6.2620 N.am  145  ASN145     -0.0877
     68  N         -6.2780   42.2470   -8.5080 N.am  146  ALA146     -0.1979
     69  CA        -7.6390   42.8380   -8.3440 C.3   146  ALA146      0.1597
     70  C         -7.6500   44.2600   -7.9370 C.2   146  ALA146      0.2287
     71  O         -8.4280   44.6630   -7.0350 O.2   146  ALA146     -0.2864
     72  CB        -8.4890   41.9140   -7.3840 C.3   146  ALA146      0.0319
     73  N        -10.0400   39.7700  -12.4010 N.3   189  TYR189     -0.1241
     74  CA       -11.2440   39.0430  -12.8720 C.3   189  TYR189      0.1605
     75  C        -12.1740   39.9860  -13.5450 C.2   189  TYR189      0.2264
     76  O        -12.1020   41.1950  -13.4060 O.2   189  TYR189     -0.2867
     77  CB       -11.9350   38.3610  -11.6740 C.3   189  TYR189      0.0534
     78  CG       -12.4360   39.2790  -10.5880 C.ar  189  TYR189     -0.0201
     79  CD1      -13.7600   39.7230  -10.5520 C.ar  189  TYR189     -0.0009
     80  CD2      -11.5750   39.7100   -9.5330 C.ar  189  TYR189     -0.0009
     81  CE1      -14.2460   40.5200   -9.5190 C.ar  189  TYR189      0.0417
     82  CE2      -12.0610   40.5530   -8.5270 C.ar  189  TYR189      0.0417
     83  CZ       -13.3920   40.9060   -8.5460 C.ar  189  TYR189      0.1957
     84  OH       -13.8010   41.6880   -7.4880 O.3   189  TYR189     -0.2866
     85  N         -7.8930   36.2910  -14.7480 N.3   221  GLN221     -0.1245
     86  CA        -8.3150   35.2250  -13.8250 C.3   221  GLN221      0.1566
     87  C         -9.2670   34.2030  -14.4760 C.2   221  GLN221      0.2260
     88  O         -9.1260   32.9960  -14.2630 O.2   221  GLN221     -0.2867
     89  CB        -8.9510   35.8240  -12.5490 C.3   221  GLN221      0.0367
     90  CG        -7.9330   36.5210  -11.6910 C.3   221  GLN221      0.0905
     91  CD        -8.4910   37.0680  -10.4120 C.2   221  GLN221      0.2608
     92  OE1       -7.7290   37.8880   -9.6950 O.2   221  GLN221     -0.2717
     93  NE2       -9.6380   36.6890  -10.0240 N.am  221  GLN221     -0.0878
     94  N        -12.4640   33.6340  -13.9910 N.3   223  HIS223     -0.1241
     95  CA       -13.5010   32.9390  -13.1980 C.3   223  HIS223      0.1621
     96  C        -14.7880   33.1670  -13.9880 C.2   223  HIS223      0.2264
     97  O        -15.5570   34.0790  -13.7010 O.2   223  HIS223     -0.2867
     98  CB       -13.5540   33.6040  -11.8400 C.3   223  HIS223      0.0745
     99  CG       -12.4010   33.2460  -10.9700 C.ar  223  HIS223      0.0817
    100  ND1      -12.1680   31.9530  -10.5910 N.ar  223  HIS223     -0.2268
    101  CD2      -11.3760   33.9880  -10.4340 C.ar  223  HIS223      0.1154
    102  CE1      -11.0510   31.8670   -9.8840 C.ar  223  HIS223      0.1986
    103  NE2      -10.5710   33.0920   -9.7650 N.ar  223  HIS223     -0.2212
    104  N         -6.6770   31.7200  -13.3860 N.3   251  GLU251     -0.1245
    105  CA        -7.4920   31.1290  -12.3130 C.3   251  GLU251      0.1567
    106  C         -8.7960   30.5600  -12.8810 C.2   251  GLU251      0.2260
    107  O         -9.8950   30.7550  -12.3520 O.2   251  GLU251     -0.2867
    108  CB        -7.8350   32.1870  -11.2260 C.3   251  GLU251      0.0388
    109  CG        -6.6310   33.0190  -10.7250 C.3   251  GLU251      0.1160
    110  CD        -6.9700   33.9170   -9.5720 C.2   251  GLU251      0.3649
    111  OE1       -8.0760   33.8140   -8.9970 O.co2 251  GLU251     -0.2457
    112  OE2       -6.0940   34.7400   -9.2220 O.co2 251  GLU251     -0.2457
    113  N         -8.0690   26.9840  -11.4110 N.3   292  TRP292     -0.1241
    114  CA        -8.0880   27.3430   -9.9780 C.3   292  TRP292      0.1605
    115  C         -8.6290   26.2080   -9.1360 C.2   292  TRP292      0.2264
    116  O         -9.7560   26.2460   -8.5930 O.2   292  TRP292     -0.2867
    117  CB        -8.8790   28.6490   -9.7890 C.3   292  TRP292      0.0550
    118  CG        -8.4190   29.3560   -8.5380 C.ar  292  TRP292      0.0003
    119  CD1       -9.1520   29.5940   -7.3900 C.ar  292  TRP292      0.0946
    120  CD2       -7.1160   29.9410   -8.3130 C.ar  292  TRP292      0.0152
    121  NE1       -8.3470   30.3110   -6.4600 N.ar  292  TRP292     -0.2442
    122  CE2       -7.1200   30.5050   -7.0230 C.ar  292  TRP292      0.0810
    123  CE3       -5.9430   30.0220   -9.0880 C.ar  292  TRP292      0.0012
    124  CZ2       -5.9380   31.1480   -6.4960 C.ar  292  TRP292      0.0191
    125  CZ3       -4.8180   30.6590   -8.5730 C.ar  292  TRP292      0.0001
    126  CH2       -4.8300   31.1960   -7.3010 C.ar  292  TRP292      0.0015
    127  N        -12.8830   26.4430   -4.5810 N.3   300  TRP300     -0.1241
    128  CA       -13.2400   27.4970   -3.6460 C.3   300  TRP300      0.1605
    129  C        -14.6580   27.9590   -3.8070 C.2   300  TRP300      0.2264
    130  O        -15.1510   28.6660   -2.9130 O.2   300  TRP300     -0.2867
    131  CB       -12.3030   28.7390   -3.8550 C.3   300  TRP300      0.0550
    132  CG       -12.5380   29.5130   -5.1330 C.ar  300  TRP300      0.0003
    133  CD1      -12.4810   29.0560   -6.4210 C.ar  300  TRP300      0.0946
    134  CD2      -12.9110   30.8900   -5.2230 C.ar  300  TRP300      0.0152
    135  NE1      -12.7980   30.0510   -7.2920 N.ar  300  TRP300     -0.2442
    136  CE2      -13.0620   31.1960   -6.5700 C.ar  300  TRP300      0.0810
    137  CE3      -13.1360   31.8980   -4.2480 C.ar  300  TRP300      0.0012
    138  CZ2      -13.4030   32.4630   -7.0270 C.ar  300  TRP300      0.0191
    139  CZ3      -13.5090   33.1470   -4.6640 C.ar  300  TRP300      0.0001
    140  CH2      -13.6410   33.4330   -6.0350 C.ar  300  TRP300      0.0015
@<TRIPOS>BOND
     1    85    86    1
     2    87    88    2
     3    87    86    1
     4    94    95    1
     5    96    97    2
     6    96    95    1
     7    86    89    1
     8    75    76    2
     9    75    74    1
    10   104   105    1
    11    95    98    1
    12   106   107    2
    13   106   105    1
    14    74    73    1
    15    74    77    1
    16    89    90    1
    17   105   108    1
    18    98    99    1
    19    90    91    1
    20    77    78    1
    21   113   114    1
    22   108   109    1
    23    99   100   ar
    24    99   101   ar
    25   109   110    1
    26   100   102   ar
    27    78    79   ar
    28    78    80   ar
    29    79    81   ar
    30   101   103   ar
    31    91    93   am
    32    91    92    2
    33   114   117    1
    34   114   115    1
    35   102   103   ar
    36   117   118    1
    37   110   112   ar
    38   110   111   ar
    39    80    82   ar
    40    81    83   ar
    41   115   116    2
    42   123   125   ar
    43   123   120   ar
    44   125   126   ar
    45    83    82   ar
    46    83    84    1
    47   118   120   ar
    48   118   119   ar
    49    68    69    1
    50    68    62   am
    51    66    65    2
    52    69    70    1
    53    69    72    1
    54   120   122   ar
    55    70    71    2
    56    61    62    1
    57    61    60    1
    58    61    64    1
    59    62    63    2
    60    33    35   ar
    61    33    32   ar
    62   119   121   ar
    63   126   124   ar
    64   135   136   ar
    65   135   133   ar
    66    65    64    1
    67    65    67   am
    68   138   136   ar
    69   138   140   ar
    70   122   124   ar
    71   122   121   ar
    72    35    36   ar
    73    31    32    1
    74    31    28    1
    75    27    28    1
    76    32    34   ar
    77   136   134   ar
    78   133   132   ar
    79    28    29    1
    80   140   139   ar
    81    36    34   ar
    82   134   132   ar
    83   134   137   ar
    84   132   131    1
    85    29    30    2
    86   139   137   ar
    87   127   128    1
    88     1     2    1
    89    45    43   ar
    90    45    46   ar
    91     2     5    1
    92     2     3    1
    93    43    42   ar
    94     6     5    1
    95     6     7    1
    96   131   128    1
    97   129   128    1
    98   129   130    2
    99     9     7   ar
   100     7     8   ar
   101    46    48   ar
   102    46    44   ar
   103    48    50   ar
   104    42    44   ar
   105    42    41    1
   106     4     3    2
   107     3    10   am
   108    38    41    1
   109    38    37    1
   110    38    39    1
   111    44    47   ar
   112    50    49   ar
   113    25    26    1
   114    25    24    1
   115    47    49   ar
   116    10    11    1
   117    39    40    2
   118    23    24    1
   119    23    22    1
   120    11    12    1
   121    11    14    1
   122    18    19    1
   123    19    22    1
   124    19    20    1
   125    16    15    2
   126    17    15   am
   127    12    13    2
   128    15    14    1
   129    58    57    2
   130    20    21    2
   131    57    59   am
   132    57    56    1
   133    55    56    1
   134    55    52    1
   135    51    52    1
   136    54    53    2
   137    52    53    1
