@<TRIPOS>MOLECULE
tmp/3w28A00.pdb
 145 140 0 0 0
SMALL
GASTEIGER

@<TRIPOS>ATOM
      1  N         -2.8420   28.4470   -4.1960 N.3    48  GLU48      -0.1231
      2  CA        -4.1720   29.0240   -4.0780 C.3    48  GLU48       0.1699
      3  C         -4.2130   30.0960   -2.9870 C.2    48  GLU48       0.2592
      4  O         -4.9330   31.1000   -3.1310 O.2    48  GLU48      -0.2718
      5  CB        -5.1760   27.9040   -3.7550 C.3    48  GLU48       0.0402
      6  CG        -6.6420   28.3700   -3.8010 C.3    48  GLU48       0.1161
      7  CD        -7.6370   27.2680   -3.5670 C.2    48  GLU48       0.3649
      8  OE1       -7.2350   26.1480   -3.1850 O.co2  48  GLU48      -0.2457
      9  OE2       -8.8350   27.5580   -3.7650 O.co2  48  GLU48      -0.2457
     10  N         -3.4430   29.8750   -1.9260 N.am   49  ASN49      -0.1974
     11  CA        -3.4180   30.7960   -0.7910 C.3    49  ASN49       0.1688
     12  C         -2.0510   31.0060   -0.1460 C.2    49  ASN49       0.2292
     13  O         -1.8120   32.0610    0.4530 O.2    49  ASN49      -0.2864
     14  CB        -4.3380   30.2850    0.3140 C.3    49  ASN49       0.1181
     15  CG        -5.7920   30.4080   -0.0570 C.2    49  ASN49       0.2629
     16  OD1       -6.3050   31.5260   -0.2500 O.2    49  ASN49      -0.2716
     17  ND2       -6.4680   29.2700   -0.2130 N.am   49  ASN49      -0.0877
     18  N         -0.0200   34.4370   -0.5970 N.3    52  LYS52      -0.1245
     19  CA        -0.6900   35.7160   -0.3690 C.3    52  LYS52       0.1561
     20  C          0.0030   36.4710    0.7680 C.2    52  LYS52       0.2260
     21  O          0.6940   35.8900    1.5850 O.2    52  LYS52      -0.2867
     22  CB        -2.1790   35.4980   -0.0750 C.3    52  LYS52       0.0271
     23  CG        -2.9050   35.1230   -1.3610 C.3    52  LYS52       0.0035
     24  CD        -4.3230   34.5910   -1.1210 C.3    52  LYS52       0.0206
     25  CE        -5.0260   34.2530   -2.4500 C.3    52  LYS52       0.1093
     26  NZ        -6.3500   33.5640   -2.2380 N.3    52  LYS52      -0.1314
     27  N         -0.9270   37.6860    3.7430 N.3    54  GLU54      -0.1245
     28  CA        -1.1280   37.2050    5.1200 C.3    54  GLU54       0.1567
     29  C         -0.4690   35.8410    5.3370 C.2    54  GLU54       0.2260
     30  O         -0.1240   35.4850    6.4740 O.2    54  GLU54      -0.2867
     31  CB        -2.6400   37.0880    5.4410 C.3    54  GLU54       0.0388
     32  CG        -3.3040   35.8330    4.7980 C.3    54  GLU54       0.1160
     33  CD        -4.8160   35.6900    5.0550 C.2    54  GLU54       0.3649
     34  OE1       -5.4150   36.6030    5.6430 O.co2  54  GLU54      -0.2457
     35  OE2       -5.3850   34.6490    4.6440 O.co2  54  GLU54      -0.2457
     36  N          1.4330   33.9980   -6.7170 N.3    85  HIS85      -0.1241
     37  CA         0.1880   34.7420   -6.4600 C.3    85  HIS85       0.1621
     38  C          0.1360   35.0100   -4.9540 C.2    85  HIS85       0.2264
     39  O          0.0520   34.0500   -4.1870 O.2    85  HIS85      -0.2867
     40  CB        -0.9910   33.8640   -6.8980 C.3    85  HIS85       0.0745
     41  CG        -2.3300   34.4920   -6.6530 C.ar   85  HIS85       0.0817
     42  ND1       -2.8390   35.4860   -7.4550 N.ar   85  HIS85      -0.2268
     43  CD2       -3.2420   34.2780   -5.6760 C.ar   85  HIS85       0.1154
     44  CE1       -4.0260   35.8590   -6.9810 C.ar   85  HIS85       0.1986
     45  NE2       -4.2920   35.1400   -5.9070 N.ar   85  HIS85      -0.2212
     46  N         -2.7230   42.7570   -2.5780 N.3    89  TRP89      -0.1241
     47  CA        -4.1620   42.5440   -2.7280 C.3    89  TRP89       0.1605
     48  C         -4.8110   43.2770   -1.5490 C.2    89  TRP89       0.2264
     49  O         -4.1170   43.6530   -0.5920 O.2    89  TRP89      -0.2867
     50  CB        -4.4640   41.0210   -2.6680 C.3    89  TRP89       0.0550
     51  CG        -5.8260   40.6260   -3.1260 C.ar   89  TRP89       0.0003
     52  CD1       -6.6560   41.3300   -3.9510 C.ar   89  TRP89       0.0946
     53  CD2       -6.4890   39.3800   -2.8560 C.ar   89  TRP89       0.0152
     54  NE1       -7.8000   40.5940   -4.2220 N.ar   89  TRP89      -0.2442
     55  CE2       -7.7160   39.3950   -3.5560 C.ar   89  TRP89       0.0810
     56  CE3       -6.1630   38.2540   -2.0870 C.ar   89  TRP89       0.0012
     57  CZ2       -8.6170   38.3270   -3.5230 C.ar   89  TRP89       0.0191
     58  CZ3       -7.0660   37.1940   -2.0480 C.ar   89  TRP89       0.0001
     59  CH2       -8.2800   37.2350   -2.7670 C.ar   89  TRP89       0.0015
     60  N         -6.8740   39.0950    2.2460 N.3    92  GLN92      -0.1245
     61  CA        -5.8230   38.2200    2.7310 C.3    92  GLN92       0.1566
     62  C         -4.5030   38.9570    2.8560 C.2    92  GLN92       0.2260
     63  O         -3.4290   38.4550    2.5060 O.2    92  GLN92      -0.2867
     64  CB        -5.7350   36.9570    1.8470 C.3    92  GLN92       0.0367
     65  CG        -6.9300   36.0360    2.1260 C.3    92  GLN92       0.0905
     66  CD        -6.9470   34.8280    1.2430 C.2    92  GLN92       0.2608
     67  OE1       -7.5350   34.8480    0.1590 O.2    92  GLN92      -0.2717
     68  NE2       -6.2830   33.7540    1.6960 N.am   92  GLN92      -0.0878
     69  N         -3.1120   42.5110   -7.5300 N.3   145  ASN145     -0.1225
     70  CA        -4.3280   41.7400   -7.7850 C.3   145  ASN145      0.1785
     71  C         -5.5680   42.5870   -7.5180 C.2   145  ASN145      0.2597
     72  O         -5.6650   43.2350   -6.4610 O.2   145  ASN145     -0.2718
     73  CB        -4.3210   40.5350   -6.8290 C.3   145  ASN145      0.1169
     74  CG        -5.2690   39.4340   -7.2540 C.2   145  ASN145      0.2627
     75  OD1       -5.3950   39.1460   -8.4430 O.2   145  ASN145     -0.2716
     76  ND2       -5.9250   38.7860   -6.2940 N.am  145  ASN145     -0.0877
     77  N         -6.4880   42.6290   -8.4760 N.am  146  GLU146     -0.1979
     78  CA        -7.7910   43.2860   -8.2980 C.3   146  GLU146      0.1602
     79  C         -7.7280   44.7440   -7.8930 C.2   146  GLU146      0.2287
     80  O         -8.4410   45.1930   -6.9700 O.2   146  GLU146     -0.2864
     81  CB        -8.6140   42.4780   -7.2820 C.3   146  GLU146      0.0415
     82  CG        -8.8200   41.0060   -7.7600 C.3   146  GLU146      0.1163
     83  CD        -9.6910   40.1700   -6.8550 C.2   146  GLU146      0.3649
     84  OE1      -10.1510   40.6880   -5.8200 O.co2 146  GLU146     -0.2457
     85  OE2       -9.9120   38.9830   -7.1890 O.co2 146  GLU146     -0.2457
     86  N         -3.2480   41.4150  -12.3170 N.3   187  ASN187     -0.1240
     87  CA        -4.2930   40.3760  -12.4320 C.3   187  ASN187      0.1653
     88  C         -5.6750   40.8710  -12.0380 C.2   187  ASN187      0.2266
     89  O         -5.7840   41.6460  -11.0740 O.2   187  ASN187     -0.2867
     90  CB        -3.8780   39.2290  -11.4850 C.3   187  ASN187      0.1155
     91  CG        -4.6120   37.9010  -11.7310 C.2   187  ASN187      0.2627
     92  OD1       -4.6940   37.4290  -12.8620 O.2   187  ASN187     -0.2716
     93  ND2       -5.1100   37.2810  -10.6560 N.am  187  ASN187     -0.0877
     94  N         -8.1990   36.5450  -14.6690 N.3   221  GLN221     -0.1245
     95  CA        -8.6640   35.4510  -13.8010 C.3   221  GLN221      0.1566
     96  C         -9.6000   34.4200  -14.4880 C.2   221  GLN221      0.2260
     97  O         -9.4700   33.2160  -14.3040 O.2   221  GLN221     -0.2867
     98  CB        -9.3340   36.0270  -12.5380 C.3   221  GLN221      0.0367
     99  CG        -8.3400   36.6660  -11.5820 C.3   221  GLN221      0.0905
    100  CD        -9.0060   37.2980  -10.3620 C.2   221  GLN221      0.2608
    101  OE1       -8.3760   38.0730   -9.6020 O.2   221  GLN221     -0.2717
    102  NE2      -10.2650   36.9770  -10.1550 N.am  221  GLN221     -0.0878
    103  N        -13.0010   33.8560  -14.0930 N.3   223  HIS223     -0.1241
    104  CA       -14.0170   33.1640  -13.2940 C.3   223  HIS223      0.1621
    105  C        -15.2880   33.3930  -14.1010 C.2   223  HIS223      0.2264
    106  O        -16.0550   34.3070  -13.8570 O.2   223  HIS223     -0.2867
    107  CB       -14.1260   33.7890  -11.9100 C.3   223  HIS223      0.0745
    108  CG       -12.9210   33.5400  -11.0520 C.ar  223  HIS223      0.0817
    109  ND1      -12.5600   32.2840  -10.6120 N.ar  223  HIS223     -0.2268
    110  CD2      -11.9720   34.3930  -10.5790 C.ar  223  HIS223      0.1154
    111  CE1      -11.4440   32.3670   -9.9050 C.ar  223  HIS223      0.1986
    112  NE2      -11.0710   33.6340   -9.8750 N.ar  223  HIS223     -0.2212
    113  N         -7.0110   32.0160  -13.4350 N.3   251  ALA251     -0.1245
    114  CA        -7.8410   31.3840  -12.3920 C.3   251  ALA251      0.1562
    115  C         -9.1680   30.8380  -12.9260 C.2   251  ALA251      0.2260
    116  O        -10.2570   30.9960  -12.3280 O.2   251  ALA251     -0.2867
    117  CB        -8.1260   32.4100  -11.3180 C.3   251  ALA251      0.0290
    118  N         -8.4820   27.2650  -11.4410 N.3   292  TRP292     -0.1241
    119  CA        -8.4770   27.6240  -10.0230 C.3   292  TRP292      0.1605
    120  C         -9.0270   26.5150   -9.1350 C.2   292  TRP292      0.2264
    121  O        -10.1290   26.5950   -8.5940 O.2   292  TRP292     -0.2867
    122  CB        -9.2150   28.9450   -9.8000 C.3   292  TRP292      0.0550
    123  CG        -8.6990   29.6510   -8.5670 C.ar  292  TRP292      0.0003
    124  CD1       -9.3320   29.7580   -7.3600 C.ar  292  TRP292      0.0946
    125  CD2       -7.3950   30.2310   -8.3900 C.ar  292  TRP292      0.0152
    126  NE1       -8.5040   30.3540   -6.4380 N.ar  292  TRP292     -0.2442
    127  CE2       -7.3070   30.6500   -7.0450 C.ar  292  TRP292      0.0810
    128  CE3       -6.2870   30.4240   -9.2390 C.ar  292  TRP292      0.0012
    129  CZ2       -6.1470   31.2460   -6.5210 C.ar  292  TRP292      0.0191
    130  CZ3       -5.1400   31.0130   -8.7230 C.ar  292  TRP292      0.0001
    131  CH2       -5.0770   31.4120   -7.3720 C.ar  292  TRP292      0.0015
    132  N        -13.1810   26.7440   -4.6330 N.3   300  TRP300     -0.1241
    133  CA       -13.5030   27.8140   -3.6980 C.3   300  TRP300      0.1605
    134  C        -14.9510   28.2910   -3.8140 C.2   300  TRP300      0.2264
    135  O        -15.4230   29.0030   -2.9280 O.2   300  TRP300     -0.2867
    136  CB       -12.5590   29.0100   -3.9380 C.3   300  TRP300      0.0550
    137  CG       -12.8300   29.7850   -5.2020 C.ar  300  TRP300      0.0003
    138  CD1      -12.8080   29.3190   -6.4860 C.ar  300  TRP300      0.0946
    139  CD2      -13.1180   31.1930   -5.2910 C.ar  300  TRP300      0.0152
    140  NE1      -13.0600   30.3500   -7.3680 N.ar  300  TRP300     -0.2442
    141  CE2      -13.2540   31.5100   -6.6560 C.ar  300  TRP300      0.0810
    142  CE3      -13.2730   32.2160   -4.3370 C.ar  300  TRP300      0.0012
    143  CZ2      -13.5360   32.8010   -7.1010 C.ar  300  TRP300      0.0191
    144  CZ3      -13.5580   33.4960   -4.7740 C.ar  300  TRP300      0.0001
    145  CH2      -13.6870   33.7810   -6.1430 C.ar  300  TRP300      0.0015
@<TRIPOS>BOND
     1    94    95    1
     2    96    97    2
     3    96    95    1
     4   105   106    2
     5   105   104    1
     6   103   104    1
     7    95    98    1
     8   113   114    1
     9   104   107    1
    10   115   114    1
    11   115   116    2
    12    92    91    2
    13    98    99    1
    14    87    86    1
    15    87    88    1
    16    87    90    1
    17   114   117    1
    18    88    89    2
    19   107   108    1
    20    91    90    1
    21    91    93   am
    22    99   100    1
    23   118   119    1
    24   108   109   ar
    25   108   110   ar
    26   109   111   ar
    27   110   112   ar
    28   100   102   am
    29   100   101    2
    30   119   122    1
    31   119   120    1
    32   111   112   ar
    33   122   123    1
    34   128   130   ar
    35   128   125   ar
    36   120   121    2
    37   130   131   ar
    38   123   125   ar
    39   123   124   ar
    40    77    78    1
    41    77    71   am
    42    75    74    2
    43   125   127   ar
    44    78    79    1
    45    78    81    1
    46    79    80    2
    47    70    69    1
    48    70    71    1
    49    70    73    1
    50    82    81    1
    51    82    83    1
    52    71    72    2
    53    42    44   ar
    54    42    41   ar
    55   131   129   ar
    56   140   141   ar
    57   140   138   ar
    58   124   126   ar
    59    74    73    1
    60    74    76   am
    61    85    83   ar
    62   143   141   ar
    63   143   145   ar
    64   127   129   ar
    65   127   126   ar
    66    44    45   ar
    67    40    41    1
    68    40    37    1
    69    83    84   ar
    70    36    37    1
    71   141   139   ar
    72    41    43   ar
    73   138   137   ar
    74    37    38    1
    75   145   144   ar
    76    45    43   ar
    77   139   137   ar
    78   139   142   ar
    79   137   136    1
    80    38    39    2
    81   144   142   ar
    82   132   133    1
    83    54    52   ar
    84    54    55   ar
    85     1     2    1
    86     2     5    1
    87     2     3    1
    88    52    51   ar
    89   136   133    1
    90   134   133    1
    91   134   135    2
    92     6     5    1
    93     6     7    1
    94     9     7   ar
    95     7     8   ar
    96    55    57   ar
    97    55    53   ar
    98    57    59   ar
    99     4     3    2
   100    51    53   ar
   101    51    50    1
   102     3    10   am
   103    53    56   ar
   104    59    58   ar
   105    47    50    1
   106    47    46    1
   107    47    48    1
   108    25    26    1
   109    25    24    1
   110    56    58   ar
   111    10    11    1
   112    48    49    2
   113    23    24    1
   114    23    22    1
   115    11    12    1
   116    11    14    1
   117    18    19    1
   118    19    22    1
   119    19    20    1
   120    16    15    2
   121    17    15   am
   122    12    13    2
   123    15    14    1
   124    67    66    2
   125    20    21    2
   126    66    68   am
   127    66    65    1
   128    64    65    1
   129    64    61    1
   130    60    61    1
   131    63    62    2
   132    61    62    1
   133    27    28    1
   134    35    33   ar
   135    32    33    1
   136    32    31    1
   137    33    34   ar
   138    28    29    1
   139    28    31    1
   140    29    30    2
