@<TRIPOS>MOLECULE
tmp/3w29A00.pdb
 145 140 0 0 0
SMALL
GASTEIGER

@<TRIPOS>ATOM
      1  N         -2.8200   28.5500   -4.2620 N.3    48  GLU48      -0.1231
      2  CA        -4.1420   29.1400   -4.1040 C.3    48  GLU48       0.1699
      3  C         -4.1860   30.2170   -3.0280 C.2    48  GLU48       0.2592
      4  O         -4.9180   31.2050   -3.2040 O.2    48  GLU48      -0.2718
      5  CB        -5.1230   28.0020   -3.7880 C.3    48  GLU48       0.0402
      6  CG        -6.6150   28.4220   -3.8420 C.3    48  GLU48       0.1161
      7  CD        -7.5880   27.3280   -3.5830 C.2    48  GLU48       0.3649
      8  OE1       -7.1540   26.2140   -3.2110 O.co2  48  GLU48      -0.2457
      9  OE2       -8.7810   27.6440   -3.7750 O.co2  48  GLU48      -0.2457
     10  N         -3.4240   29.9850   -1.9650 N.am   49  ASN49      -0.1974
     11  CA        -3.3930   30.9050   -0.7980 C.3    49  ASN49       0.1688
     12  C         -2.0190   31.1030   -0.1810 C.2    49  ASN49       0.2292
     13  O         -1.7930   32.1710    0.4300 O.2    49  ASN49      -0.2864
     14  CB        -4.2960   30.3690    0.3030 C.3    49  ASN49       0.1181
     15  CG        -5.7570   30.4960   -0.0680 C.2    49  ASN49       0.2629
     16  OD1       -6.2700   31.6420   -0.2760 O.2    49  ASN49      -0.2716
     17  ND2       -6.4420   29.3570   -0.2560 N.am   49  ASN49      -0.0877
     18  N          0.0170   34.5360   -0.6370 N.3    52  LYS52      -0.1245
     19  CA        -0.6390   35.8410   -0.4090 C.3    52  LYS52       0.1561
     20  C          0.0530   36.5910    0.7320 C.2    52  LYS52       0.2260
     21  O          0.7290   36.0060    1.5600 O.2    52  LYS52      -0.2867
     22  CB        -2.1230   35.6140   -0.1040 C.3    52  LYS52       0.0271
     23  CG        -2.8640   35.2300   -1.4040 C.3    52  LYS52       0.0035
     24  CD        -4.2890   34.6890   -1.1300 C.3    52  LYS52       0.0206
     25  CE        -4.9850   34.3460   -2.4850 C.3    52  LYS52       0.1093
     26  NZ        -6.3470   33.6860   -2.2530 N.3    52  LYS52      -0.1314
     27  N         -0.8500   37.8410    3.7100 N.3    54  GLU54      -0.1245
     28  CA        -1.0270   37.3590    5.0780 C.3    54  GLU54       0.1567
     29  C         -0.3930   35.9750    5.2760 C.2    54  GLU54       0.2260
     30  O         -0.0360   35.6310    6.3990 O.2    54  GLU54      -0.2867
     31  CB        -2.5570   37.2720    5.4010 C.3    54  GLU54       0.0388
     32  CG        -3.2430   35.9920    4.7300 C.3    54  GLU54       0.1160
     33  CD        -4.7610   35.8460    5.0440 C.2    54  GLU54       0.3649
     34  OE1       -5.2750   36.7720    5.6870 O.co2  54  GLU54      -0.2457
     35  OE2       -5.3560   34.8040    4.6190 O.co2  54  GLU54      -0.2457
     36  N          1.4780   34.0980   -6.7600 N.3    85  HIS85      -0.1241
     37  CA         0.2140   34.8280   -6.4990 C.3    85  HIS85       0.1621
     38  C          0.1840   35.1150   -4.9820 C.2    85  HIS85       0.2264
     39  O          0.1000   34.1870   -4.2170 O.2    85  HIS85      -0.2867
     40  CB        -0.9540   33.9190   -6.9050 C.3    85  HIS85       0.0745
     41  CG        -2.2980   34.5790   -6.6730 C.ar   85  HIS85       0.0817
     42  ND1       -2.7850   35.5640   -7.4970 N.ar   85  HIS85      -0.2268
     43  CD2       -3.2300   34.3780   -5.7070 C.ar   85  HIS85       0.1154
     44  CE1       -3.9950   35.9470   -7.0480 C.ar   85  HIS85       0.1986
     45  NE2       -4.2760   35.2490   -5.9680 N.ar   85  HIS85      -0.2212
     46  N         -2.6920   42.8340   -2.6130 N.3    89  TRP89      -0.1241
     47  CA        -4.1310   42.6390   -2.7700 C.3    89  TRP89       0.1605
     48  C         -4.7750   43.3960   -1.5940 C.2    89  TRP89       0.2264
     49  O         -4.0790   43.7650   -0.6250 O.2    89  TRP89      -0.2867
     50  CB        -4.4100   41.1080   -2.6940 C.3    89  TRP89       0.0550
     51  CG        -5.7750   40.7180   -3.1440 C.ar   89  TRP89       0.0003
     52  CD1       -6.6130   41.4210   -3.9580 C.ar   89  TRP89       0.0946
     53  CD2       -6.4350   39.4640   -2.8800 C.ar   89  TRP89       0.0152
     54  NE1       -7.7740   40.6750   -4.2130 N.ar   89  TRP89      -0.2442
     55  CE2       -7.6700   39.4770   -3.5630 C.ar   89  TRP89       0.0810
     56  CE3       -6.0940   38.3380   -2.1110 C.ar   89  TRP89       0.0012
     57  CZ2       -8.5780   38.3980   -3.5230 C.ar   89  TRP89       0.0191
     58  CZ3       -6.9950   37.2680   -2.0680 C.ar   89  TRP89       0.0001
     59  CH2       -8.2290   37.2990   -2.7770 C.ar   89  TRP89       0.0015
     60  N         -6.8140   39.1810    2.2210 N.3    92  GLN92      -0.1245
     61  CA        -5.7590   38.3010    2.6920 C.3    92  GLN92       0.1566
     62  C         -4.4610   39.0500    2.8010 C.2    92  GLN92       0.2260
     63  O         -3.3650   38.5630    2.4440 O.2    92  GLN92      -0.2867
     64  CB        -5.6380   37.0330    1.8230 C.3    92  GLN92       0.0367
     65  CG        -6.8580   36.1080    2.1190 C.3    92  GLN92       0.0905
     66  CD        -6.8830   34.9200    1.2250 C.2    92  GLN92       0.2608
     67  OE1       -7.4900   34.9540    0.1660 O.2    92  GLN92      -0.2717
     68  NE2       -6.2330   33.8340    1.6760 N.am   92  GLN92      -0.0878
     69  N         -3.0630   42.6080   -7.5640 N.3   145  ASN145     -0.1225
     70  CA        -4.2900   41.8440   -7.8210 C.3   145  ASN145      0.1785
     71  C         -5.5220   42.6740   -7.5520 C.2   145  ASN145      0.2597
     72  O         -5.6210   43.3190   -6.4830 O.2   145  ASN145     -0.2718
     73  CB        -4.2860   40.6230   -6.8530 C.3   145  ASN145      0.1169
     74  CG        -5.2420   39.5210   -7.2790 C.2   145  ASN145      0.2627
     75  OD1       -5.3440   39.2160   -8.4600 O.2   145  ASN145     -0.2716
     76  ND2       -5.9090   38.8510   -6.3300 N.am  145  ASN145     -0.0877
     77  N         -6.4520   42.7200   -8.4950 N.am  146  GLU146     -0.1979
     78  CA        -7.7710   43.3640   -8.3010 C.3   146  GLU146      0.1602
     79  C         -7.6940   44.8250   -7.9210 C.2   146  GLU146      0.2287
     80  O         -8.4240   45.2660   -7.0000 O.2   146  GLU146     -0.2864
     81  CB        -8.6140   42.5860   -7.3000 C.3   146  GLU146      0.0415
     82  CG        -8.7660   41.0760   -7.7440 C.3   146  GLU146      0.1163
     83  CD        -9.6540   40.2390   -6.8720 C.2   146  GLU146      0.3649
     84  OE1      -10.1110   40.7680   -5.8210 O.co2 146  GLU146     -0.2457
     85  OE2       -9.8640   39.0580   -7.2100 O.co2 146  GLU146     -0.2457
     86  N         -3.2500   41.5130  -12.3400 N.3   187  ASN187     -0.1240
     87  CA        -4.2770   40.4540  -12.4800 C.3   187  ASN187      0.1653
     88  C         -5.6660   40.9490  -12.0860 C.2   187  ASN187      0.2266
     89  O         -5.7550   41.7260  -11.0890 O.2   187  ASN187     -0.2867
     90  CB        -3.8500   39.3220  -11.5260 C.3   187  ASN187      0.1155
     91  CG        -4.5890   38.0000  -11.7410 C.2   187  ASN187      0.2627
     92  OD1       -4.6740   37.5270  -12.8640 O.2   187  ASN187     -0.2716
     93  ND2       -5.1020   37.4070  -10.6670 N.am  187  ASN187     -0.0877
     94  N         -8.1750   36.6490  -14.7050 N.3   221  GLN221     -0.1245
     95  CA        -8.6390   35.5360  -13.8330 C.3   221  GLN221      0.1566
     96  C         -9.5660   34.4750  -14.5150 C.2   221  GLN221      0.2260
     97  O         -9.4310   33.2800  -14.3310 O.2   221  GLN221     -0.2867
     98  CB        -9.3250   36.1200  -12.5580 C.3   221  GLN221      0.0367
     99  CG        -8.3470   36.7200  -11.6070 C.3   221  GLN221      0.0905
    100  CD        -9.0080   37.3510  -10.3940 C.2   221  GLN221      0.2608
    101  OE1       -8.3540   38.1450   -9.6510 O.2   221  GLN221     -0.2717
    102  NE2      -10.2430   37.0690  -10.1890 N.am  221  GLN221     -0.0878
    103  N        -12.9620   33.9330  -14.0790 N.3   223  HIS223     -0.1241
    104  CA       -14.0010   33.2470  -13.2950 C.3   223  HIS223      0.1621
    105  C        -15.2640   33.4710  -14.0940 C.2   223  HIS223      0.2264
    106  O        -16.0150   34.3760  -13.8630 O.2   223  HIS223     -0.2867
    107  CB       -14.0980   33.8760  -11.9190 C.3   223  HIS223      0.0745
    108  CG       -12.8790   33.6280  -11.0780 C.ar  223  HIS223      0.0817
    109  ND1      -12.5340   32.3690  -10.6250 N.ar  223  HIS223     -0.2268
    110  CD2      -11.9030   34.4750  -10.6220 C.ar  223  HIS223      0.1154
    111  CE1      -11.4120   32.4400   -9.9160 C.ar  223  HIS223      0.1986
    112  NE2      -11.0280   33.6970   -9.9070 N.ar  223  HIS223     -0.2212
    113  N         -6.9600   32.1210  -13.5070 N.3   251  ALA251     -0.1245
    114  CA        -7.7800   31.4990  -12.4640 C.3   251  ALA251      0.1562
    115  C         -9.1380   30.9390  -12.9650 C.2   251  ALA251      0.2260
    116  O        -10.2230   31.0770  -12.3360 O.2   251  ALA251     -0.2867
    117  CB        -8.0310   32.5340  -11.3490 C.3   251  ALA251      0.0290
    118  N         -8.4500   27.3530  -11.4740 N.3   292  TRP292     -0.1241
    119  CA        -8.4280   27.7310  -10.0720 C.3   292  TRP292      0.1605
    120  C         -8.9520   26.6140   -9.1570 C.2   292  TRP292      0.2264
    121  O        -10.0620   26.6930   -8.6080 O.2   292  TRP292     -0.2867
    122  CB        -9.1640   29.0500   -9.8430 C.3   292  TRP292      0.0550
    123  CG        -8.6350   29.7390   -8.5960 C.ar  292  TRP292      0.0003
    124  CD1       -9.2940   29.8390   -7.3960 C.ar  292  TRP292      0.0946
    125  CD2       -7.3370   30.3260   -8.4110 C.ar  292  TRP292      0.0152
    126  NE1       -8.4580   30.4490   -6.4530 N.ar  292  TRP292     -0.2442
    127  CE2       -7.2610   30.7320   -7.0590 C.ar  292  TRP292      0.0810
    128  CE3       -6.2240   30.5290   -9.2510 C.ar  292  TRP292      0.0012
    129  CZ2       -6.0970   31.3070   -6.5160 C.ar  292  TRP292      0.0191
    130  CZ3       -5.0900   31.1080   -8.7160 C.ar  292  TRP292      0.0001
    131  CH2       -5.0300   31.4690   -7.3580 C.ar  292  TRP292      0.0015
    132  N        -13.1310   26.8580   -4.6490 N.3   300  TRP300     -0.1241
    133  CA       -13.4890   27.9130   -3.7280 C.3   300  TRP300      0.1605
    134  C        -14.9380   28.3950   -3.8660 C.2   300  TRP300      0.2264
    135  O        -15.4140   29.1060   -2.9770 O.2   300  TRP300     -0.2867
    136  CB       -12.5320   29.1100   -3.9600 C.3   300  TRP300      0.0550
    137  CG       -12.7920   29.8610   -5.2130 C.ar  300  TRP300      0.0003
    138  CD1      -12.7540   29.3890   -6.5060 C.ar  300  TRP300      0.0946
    139  CD2      -13.0660   31.2730   -5.3070 C.ar  300  TRP300      0.0152
    140  NE1      -12.9860   30.4220   -7.3930 N.ar  300  TRP300     -0.2442
    141  CE2      -13.1970   31.5890   -6.6850 C.ar  300  TRP300      0.0810
    142  CE3      -13.2260   32.3060   -4.3340 C.ar  300  TRP300      0.0012
    143  CZ2      -13.4760   32.8720   -7.1270 C.ar  300  TRP300      0.0191
    144  CZ3      -13.5040   33.5910   -4.7880 C.ar  300  TRP300      0.0001
    145  CH2      -13.6300   33.8600   -6.1720 C.ar  300  TRP300      0.0015
@<TRIPOS>BOND
     1    94    95    1
     2    96    97    2
     3    96    95    1
     4   105   106    2
     5   105   104    1
     6   103   104    1
     7    95    98    1
     8   113   114    1
     9   104   107    1
    10   115   114    1
    11   115   116    2
    12    92    91    2
    13    98    99    1
    14    87    86    1
    15    87    88    1
    16    87    90    1
    17   114   117    1
    18    88    89    2
    19   107   108    1
    20    91    90    1
    21    91    93   am
    22    99   100    1
    23   118   119    1
    24   108   109   ar
    25   108   110   ar
    26   109   111   ar
    27   110   112   ar
    28   100   102   am
    29   100   101    2
    30   119   122    1
    31   119   120    1
    32   111   112   ar
    33   122   123    1
    34   128   130   ar
    35   128   125   ar
    36   120   121    2
    37   130   131   ar
    38   123   125   ar
    39   123   124   ar
    40    77    78    1
    41    77    71   am
    42    75    74    2
    43   125   127   ar
    44    78    79    1
    45    78    81    1
    46    79    80    2
    47    70    69    1
    48    70    71    1
    49    70    73    1
    50    82    81    1
    51    82    83    1
    52    71    72    2
    53    42    44   ar
    54    42    41   ar
    55   124   126   ar
    56   140   141   ar
    57   140   138   ar
    58   131   129   ar
    59    74    73    1
    60    74    76   am
    61    85    83   ar
    62   143   141   ar
    63   143   145   ar
    64   127   129   ar
    65   127   126   ar
    66    44    45   ar
    67    40    41    1
    68    40    37    1
    69    83    84   ar
    70    36    37    1
    71   141   139   ar
    72    41    43   ar
    73   138   137   ar
    74    37    38    1
    75   145   144   ar
    76    45    43   ar
    77   139   137   ar
    78   139   142   ar
    79   137   136    1
    80    38    39    2
    81   144   142   ar
    82   132   133    1
    83     1     2    1
    84    54    52   ar
    85    54    55   ar
    86     2     5    1
    87     2     3    1
    88   136   133    1
    89    52    51   ar
    90   134   133    1
    91   134   135    2
    92     6     5    1
    93     6     7    1
    94     9     7   ar
    95     7     8   ar
    96    55    57   ar
    97    55    53   ar
    98    57    59   ar
    99     4     3    2
   100    51    53   ar
   101    51    50    1
   102     3    10   am
   103    53    56   ar
   104    59    58   ar
   105    47    50    1
   106    47    46    1
   107    47    48    1
   108    25    26    1
   109    25    24    1
   110    56    58   ar
   111    10    11    1
   112    48    49    2
   113    23    24    1
   114    23    22    1
   115    11    12    1
   116    11    14    1
   117    18    19    1
   118    19    22    1
   119    19    20    1
   120    16    15    2
   121    17    15   am
   122    12    13    2
   123    15    14    1
   124    67    66    2
   125    20    21    2
   126    66    68   am
   127    66    65    1
   128    64    65    1
   129    64    61    1
   130    60    61    1
   131    63    62    2
   132    61    62    1
   133    27    28    1
   134    35    33   ar
   135    32    33    1
   136    32    31    1
   137    33    34   ar
   138    28    29    1
   139    28    31    1
   140    29    30    2
