@<TRIPOS>MOLECULE
tmp/3w2cA00.pdb
 185 174 0 0 0
SMALL
GASTEIGER

@<TRIPOS>ATOM
      1  N          0.0530   19.8740    8.9120 N.3    10  ARG10      -0.1245
      2  CA        -0.9570   18.8470    8.9870 C.3    10  ARG10       0.1563
      3  C         -0.4790   17.4670    9.4590 C.2    10  ARG10       0.2260
      4  O          0.7070   17.0850    9.2700 O.2    10  ARG10      -0.2867
      5  CB        -1.6240   18.7000    7.6240 C.3    10  ARG10       0.0307
      6  CG        -0.7470   18.1050    6.5890 C.3    10  ARG10       0.0489
      7  CD        -1.5810   17.6320    5.4290 C.3    10  ARG10       0.2205
      8  NE        -0.9210   16.5430    4.7140 N.pl3  10  ARG10      -0.0865
      9  CZ         0.0540   16.6950    3.8030 C.cat  10  ARG10       0.5346
     10  NH1        0.5900   15.6190    3.2110 N.pl3  10  ARG10       0.1354
     11  NH2        0.4970   17.9140    3.4950 N.pl3  10  ARG10       0.1354
     12  N         -0.0180   13.6980    8.9170 N.3    12  LEU12      -0.1231
     13  CA         0.3660   13.0710    7.6900 C.3    12  LEU12       0.1693
     14  C         -0.3390   11.7270    7.4230 C.2    12  LEU12       0.2592
     15  O         -0.5880   11.3730    6.2670 O.2    12  LEU12      -0.2718
     16  CB         1.9070   12.8670    7.6920 C.3    12  LEU12       0.0284
     17  CG         2.8370   14.0580    7.4560 C.3    12  LEU12       0.0019
     18  CD1        4.2780   13.6030    7.5830 C.3    12  LEU12       0.0001
     19  CD2        2.6420   14.6710    6.0650 C.3    12  LEU12       0.0001
     20  N         -0.6190   10.9490    8.4620 N.am   13  GLY13      -0.1957
     21  CA        -0.9680    9.5460    8.2170 C.3    13  GLY13       0.1869
     22  C         -2.1860    8.8930    8.8380 C.2    13  GLY13       0.2309
     23  O         -2.2480    7.6500    8.9150 O.2    13  GLY13      -0.2863
     24  N         -0.3830    6.0230   11.5640 N.3    17  PHE17      -0.1241
     25  CA         0.6350    7.0670   11.4390 C.3    17  PHE17       0.1605
     26  C         -0.0660    8.3800   11.7770 C.2    17  PHE17       0.2264
     27  O          0.3530    9.4610   11.3360 O.2    17  PHE17      -0.2867
     28  CB         1.2230    7.1540   10.0220 C.3    17  PHE17       0.0534
     29  CG         2.1010    5.9930    9.6460 C.ar   17  PHE17      -0.0203
     30  CD1        2.8460    5.3080   10.6140 C.ar   17  PHE17      -0.0042
     31  CD2        2.2070    5.5990    8.3210 C.ar   17  PHE17      -0.0042
     32  CE1        3.6690    4.2250   10.2640 C.ar   17  PHE17      -0.0003
     33  CE2        3.0250    4.5220    7.9660 C.ar   17  PHE17      -0.0003
     34  CZ         3.7640    3.8390    8.9500 C.ar   17  PHE17      -0.0000
     35  N          2.0820   11.4550   13.3680 N.3    20  VAL20      -0.1245
     36  CA         3.2030   12.1120   12.6890 C.3    20  VAL20       0.1561
     37  C          2.7380   13.3100   11.8760 C.2    20  VAL20       0.2260
     38  O          1.7300   13.2650   11.1650 O.2    20  VAL20      -0.2867
     39  CB         4.2250   11.1250   11.9590 C.3    20  VAL20       0.0252
     40  CG1        3.7750    9.6570   11.9930 C.3    20  VAL20       0.0019
     41  CG2        4.6690   11.6070   10.5900 C.3    20  VAL20       0.0019
     42  N          9.4880   15.4670    9.3020 N.3    33  ALA33      -0.1245
     43  CA         8.2720   14.8910    9.9310 C.3    33  ALA33       0.1562
     44  C          8.4920   14.7360   11.4350 C.2    33  ALA33       0.2260
     45  O          9.6300   14.4610   11.8590 O.2    33  ALA33      -0.2867
     46  CB         7.8780   13.5430    9.2800 C.3    33  ALA33       0.0290
     47  N          6.9750   12.8350   14.8410 N.3    35  LYS35      -0.1245
     48  CA         6.1590   11.8670   15.5210 C.3    35  LYS35       0.1561
     49  C          6.1850   12.2330   16.9780 C.2    35  LYS35       0.2260
     50  O          7.2830   12.4790   17.5370 O.2    35  LYS35      -0.2867
     51  CB         6.7780   10.4880   15.3820 C.3    35  LYS35       0.0271
     52  CG         5.9810    9.3700   16.0310 C.3    35  LYS35       0.0035
     53  CD         6.1860    8.1590   15.1720 C.3    35  LYS35       0.0206
     54  CE         5.6460    6.8940   15.7740 C.3    35  LYS35       0.1093
     55  NZ         4.9310    6.1470   14.6950 N.3    35  LYS35      -0.1314
     56  N         14.8350    0.3580   18.3690 N.3    42  GLU42      -0.1231
     57  CA        14.7110    1.6110   19.1070 C.3    42  GLU42       0.1699
     58  C         15.5270    2.8040   18.5720 C.2    42  GLU42       0.2592
     59  O         16.2900    2.7020   17.6090 O.2    42  GLU42      -0.2718
     60  CB        15.0270    1.3990   20.5890 C.3    42  GLU42       0.0402
     61  CG        13.8240    1.1200   21.4690 C.3    42  GLU42       0.1161
     62  CD        14.2150    1.0230   22.9340 C.2    42  GLU42       0.3649
     63  OE1       13.5330    1.6520   23.7770 O.co2  42  GLU42      -0.2457
     64  OE2       15.2190    0.3290   23.2390 O.co2  42  GLU42      -0.2457
     65  N         15.3710    3.9150   19.2850 N.am   43  VAL43      -0.1980
     66  CA        15.7020    5.2710   18.8390 C.3    43  VAL43       0.1595
     67  C         17.2000    5.5800   18.6840 C.2    43  VAL43       0.2287
     68  O         17.5860    6.5140   17.9780 O.2    43  VAL43      -0.2864
     69  CB        15.0330    6.2940   19.7940 C.3    43  VAL43       0.0276
     70  CG1       15.6320    6.1930   21.2180 C.3    43  VAL43       0.0022
     71  CG2       15.1120    7.7000   19.2380 C.3    43  VAL43       0.0022
     72  N         18.6180    3.4250   15.0400 N.3    46  GLN46      -0.1245
     73  CA        18.1150    3.9870   13.7740 C.3    46  GLN46       0.1566
     74  C         18.7600    5.3190   13.3700 C.2    46  GLN46       0.2260
     75  O         18.5790    5.8090   12.2480 O.2    46  GLN46      -0.2867
     76  CB        16.5910    4.1360   13.8140 C.3    46  GLN46       0.0367
     77  CG        15.8290    2.9200   13.2940 C.3    46  GLN46       0.0905
     78  CD        14.6600    3.2980   12.3600 C.2    46  GLN46       0.2608
     79  OE1       13.6630    3.8970   12.7850 O.2    46  GLN46      -0.2717
     80  NE2       14.7890    2.9420   11.0810 N.am   46  GLN46      -0.0878
     81  N         13.9670    5.2470    5.7560 N.3    55  LEU55      -0.1245
     82  CA        13.7190    6.5750    6.2570 C.3    55  LEU55       0.1561
     83  C         14.7600    6.8670    7.3180 C.2    55  LEU55       0.2260
     84  O         15.0530    6.0060    8.1400 O.2    55  LEU55      -0.2867
     85  CB        12.3550    6.6030    6.9010 C.3    55  LEU55       0.0270
     86  CG        11.4950    7.8270    6.6880 C.3    55  LEU55       0.0019
     87  CD1       11.0660    7.8950    5.2430 C.3    55  LEU55       0.0001
     88  CD2       10.2900    7.7120    7.6090 C.3    55  LEU55       0.0001
     89  N         15.8390    8.3070   10.7830 N.3    57  LEU57      -0.1245
     90  CA        15.5130    8.9570   12.0230 C.3    57  LEU57       0.1561
     91  C         16.6170   10.0210   12.1830 C.2    57  LEU57       0.2260
     92  O         17.7870    9.6690   12.1350 O.2    57  LEU57      -0.2867
     93  CB        15.4830    7.9530   13.1690 C.3    57  LEU57       0.0270
     94  CG        15.1790    8.5760   14.5290 C.3    57  LEU57       0.0019
     95  CD1       13.8230    9.2300   14.5370 C.3    57  LEU57       0.0001
     96  CD2       15.2600    7.5460   15.6040 C.3    57  LEU57       0.0001
     97  N          9.9070   12.4220   17.8190 N.3    69  LEU69      -0.1245
     98  CA        10.7830   11.7140   16.9040 C.3    69  LEU69       0.1561
     99  C         10.9070   12.5340   15.6290 C.2    69  LEU69       0.2260
    100  O          9.9070   12.8290   14.9630 O.2    69  LEU69      -0.2867
    101  CB        10.2190   10.3240   16.6250 C.3    69  LEU69       0.0270
    102  CG        10.1600    9.4850   17.9180 C.3    69  LEU69       0.0019
    103  CD1        9.2360    8.2570   17.8390 C.3    69  LEU69       0.0001
    104  CD2       11.5760    9.0570   18.3750 C.3    69  LEU69       0.0001
    105  N         11.8310   12.9600   11.9240 N.3    71  LEU71      -0.1231
    106  CA        11.9010   11.9620   10.8550 C.3    71  LEU71       0.1693
    107  C         11.9920   12.6200    9.4990 C.2    71  LEU71       0.2592
    108  O         11.4990   13.7450    9.3300 O.2    71  LEU71      -0.2718
    109  CB        10.6210   11.0700   10.8650 C.3    71  LEU71       0.0284
    110  CG        10.5440   10.0510   11.9920 C.3    71  LEU71       0.0019
    111  CD1        9.1030    9.7150   12.3960 C.3    71  LEU71       0.0001
    112  CD2       11.3540    8.7850   11.6340 C.3    71  LEU71       0.0001
    113  N         12.5740   11.8950    8.5260 N.am   72  GLU72      -0.1966
    114  CA        12.5280   12.3290    7.1040 C.3    72  GLU72       0.1733
    115  C         11.0710   12.3940    6.6240 C.2    72  GLU72       0.2616
    116  O         10.2410   11.5250    6.9640 O.2    72  GLU72      -0.2715
    117  CB        13.3480   11.3920    6.1860 C.3    72  GLU72       0.0429
    118  CG        13.4060   11.7440    4.6640 C.3    72  GLU72       0.1163
    119  CD        14.1170   10.6350    3.8040 C.2    72  GLU72       0.3649
    120  OE1       14.7130    9.6960    4.3690 O.co2  72  GLU72      -0.2457
    121  OE2       14.0650   10.6810    2.5500 O.co2  72  GLU72      -0.2457
    122  N         10.7940   13.4220    5.8420 N.am   73  TYR73      -0.1960
    123  CA         9.5290   13.5850    5.1520 C.3    73  TYR73       0.1771
    124  C          9.6260   12.9610    3.7760 C.2    73  TYR73       0.2619
    125  O         10.5740   13.2420    3.0500 O.2    73  TYR73      -0.2715
    126  CB         9.1970   15.0730    5.0140 C.3    73  TYR73       0.0574
    127  CG         8.0650   15.3630    4.0800 C.ar   73  TYR73      -0.0198
    128  CD1        6.7800   14.8770    4.3380 C.ar   73  TYR73      -0.0009
    129  CD2        8.2540   16.1530    2.9400 C.ar   73  TYR73      -0.0009
    130  CE1        5.7230   15.1710    3.4880 C.ar   73  TYR73       0.0417
    131  CE2        7.1660   16.4440    2.0790 C.ar   73  TYR73       0.0417
    132  CZ         5.9270   15.9440    2.3620 C.ar   73  TYR73       0.1957
    133  OH         4.8710   16.1980    1.4980 O.3    73  TYR73      -0.2866
    134  N          8.6530   12.1030    3.4420 N.am   74  ALA74      -0.1964
    135  CA         8.5610   11.4820    2.1340 C.3    74  ALA74       0.1713
    136  C          7.4720   12.1920    1.3040 C.2    74  ALA74       0.2458
    137  O          6.2700   11.9880    1.5000 O.2    74  ALA74      -0.2730
    138  CB         8.2910    9.9640    2.2550 C.3    74  ALA74       0.0333
    139  N          7.9070   13.0240    0.3570 N.am   75  PRO75      -0.2716
    140  CA         7.0020   13.9240   -0.3540 C.3    75  PRO75       0.1536
    141  C          5.8860   13.2250   -1.1080 C.2    75  PRO75       0.2598
    142  O          4.7770   13.7610   -1.1850 O.2    75  PRO75      -0.2715
    143  CB         7.9240   14.6830   -1.3220 C.3    75  PRO75       0.0310
    144  CG         9.3230   14.4790   -0.8070 C.3    75  PRO75       0.0237
    145  CD         9.3000   13.1230   -0.1230 C.3    75  PRO75       0.0939
    146  N          6.1470   12.0300   -1.6270 N.am   76  LEU76      -0.1964
    147  CA         5.1860   11.3970   -2.5250 C.3    76  LEU76       0.1728
    148  C          4.1790   10.4710   -1.8510 C.2    76  LEU76       0.2617
    149  O          3.3410    9.8790   -2.5340 O.2    76  LEU76      -0.2715
    150  CB         5.8840   10.7440   -3.7290 C.3    76  LEU76       0.0311
    151  CG         6.5140   11.7910   -4.6650 C.3    76  LEU76       0.0022
    152  CD1        7.1500   11.1340   -5.9290 C.3    76  LEU76       0.0001
    153  CD2        5.5200   12.8980   -5.0800 C.3    76  LEU76       0.0001
    154  N          4.2550   10.3490   -0.5280 N.am   77  GLY77      -0.1940
    155  CA         3.2600    9.5850    0.2020 C.3    77  GLY77       0.2014
    156  C          3.5670    8.1120    0.3750 C.2    77  GLY77       0.2639
    157  O          4.7030    7.6970    0.3170 O.2    77  GLY77      -0.2714
    158  N          2.5330    7.3210    0.6070 N.am   78  THR78      -0.1950
    159  CA         2.6860    5.9030    0.8120 C.3    78  THR78       0.1897
    160  C          2.5070    5.1540   -0.5100 C.2    78  THR78       0.2313
    161  O          1.7280    5.5820   -1.3700 O.2    78  THR78      -0.2863
    162  CB         1.6570    5.3790    1.8230 C.3    78  THR78       0.1794
    163  OG1        0.3530    5.5060    1.2610 O.3    78  THR78      -0.2208
    164  CG2        1.7140    6.1940    3.1200 C.3    78  THR78       0.0378
    165  N          6.9580    4.1680    2.1090 N.3   115  LEU115     -0.1245
    166  CA         6.8870    5.5570    1.6870 C.3   115  LEU115      0.1561
    167  C          7.6350    5.8280    0.4070 C.2   115  LEU115      0.2260
    168  O          8.4800    5.0380   -0.0050 O.2   115  LEU115     -0.2867
    169  CB         7.3760    6.4330    2.8090 C.3   115  LEU115      0.0270
    170  CG         6.5430    6.3410    4.0900 C.3   115  LEU115      0.0019
    171  CD1        7.3440    6.9190    5.3110 C.3   115  LEU115      0.0001
    172  CD2        5.2020    7.0630    3.9260 C.3   115  LEU115      0.0001
    173  N          9.5030    2.3000    6.6540 N.3   125  ALA125     -0.1231
    174  CA         9.2760    2.8160    8.0100 C.3   125  ALA125      0.1694
    175  C          8.8900    1.6430    8.9230 C.2   125  ALA125      0.2592
    176  O          8.4000    0.5980    8.4450 O.2   125  ALA125     -0.2718
    177  CB         8.1940    3.8390    7.9940 C.3   125  ALA125      0.0304
    178  N          9.0840    1.8250   10.2310 N.am  126  ASP126     -0.1974
    179  CA         8.9250    0.7550   11.2420 C.3   126  ASP126      0.1709
    180  C         10.0630   -0.2590   11.1560 C.2   126  ASP126      0.2293
    181  O         10.3990   -0.9240   12.1420 O.2   126  ASP126     -0.2864
    182  CB         7.5600    0.0450   11.1410 C.3   126  ASP126      0.1436
    183  CG         6.3790    0.9260   11.6110 C.2   126  ASP126      0.3671
    184  OD1        6.6130    1.9930   12.2390 O.co2 126  ASP126     -0.2456
    185  OD2        5.2090    0.5250   11.3610 O.co2 126  ASP126     -0.2456
@<TRIPOS>BOND
     1   152   151    1
     2   153   151    1
     3   151   150    1
     4   150   147    1
     5   149   148    2
     6   147   148    1
     7   147   146    1
     8   148   154   am
     9   146   141   am
    10   161   160    2
    11   143   144    1
    12   143   140    1
    13   142   141    2
    14   141   140    1
    15   144   145    1
    16   154   155    1
    17   160   159    1
    18   140   139    1
    19   145   139    1
    20   168   167    2
    21   155   156    1
    22   157   156    2
    23   139   136   am
    24   156   158   am
    25   167   166    1
    26   158   159    1
    27   159   162    1
    28   163   162    1
    29   136   137    2
    30   136   135    1
    31   133   132    1
    32   166   165    1
    33   166   169    1
    34   162   164    1
    35   131   132   ar
    36   131   129   ar
    37   135   138    1
    38   135   134    1
    39   132   130   ar
    40   121   119   ar
    41   169   170    1
    42   129   127   ar
    43   125   124    2
    44    10     9    1
    45   134   124   am
    46   130   128   ar
    47    11     9    1
    48   124   123    1
    49     9     8    2
    50   119   120   ar
    51   119   118    1
    52   172   170    1
    53   127   128   ar
    54   127   126    1
    55   170   171    1
    56   118   117    1
    57     8     7    1
    58   126   123    1
    59   123   122    1
    60    87    86    1
    61     7     6    1
    62    81    82    1
    63   122   115   am
    64    19    17    1
    65   117   114    1
    66    82    85    1
    67    82    83    1
    68    15    14    2
    69     6     5    1
    70   115   116    2
    71   115   114    1
    72   173   174    1
    73    86    85    1
    74    86    88    1
    75   114   113    1
    76    83    84    2
    77    14    13    1
    78    14    20   am
    79    17    18    1
    80    17    16    1
    81     5     2    1
    82    13    16    1
    83    13    12    1
    84    33    31   ar
    85    33    34   ar
    86   177   174    1
    87   174   175    1
    88    21    20    1
    89    21    22    1
    90    31    29   ar
    91   176   175    2
    92   113   107   am
    93    22    23    2
    94     1     2    1
    95   175   178   am
    96    34    32   ar
    97     2     3    1
    98     4     3    2
    99    46    43    1
   100    42    43    1
   101   108   107    2
   102   107   106    1
   103    29    28    1
   104    29    30   ar
   105    43    44    1
   106    28    25    1
   107   178   179    1
   108    32    30   ar
   109    41    39    1
   110    89    90    1
   111   106   109    1
   112   106   105    1
   113   109   110    1
   114    80    78   am
   115   182   179    1
   116   182   183    1
   117   180   179    1
   118   180   181    2
   119    38    37    2
   120    27    26    2
   121   185   183   ar
   122    44    45    2
   123    25    24    1
   124    25    26    1
   125   183   184   ar
   126   112   110    1
   127    37    36    1
   128    39    40    1
   129    39    36    1
   130   110   111    1
   131    90    91    1
   132    90    93    1
   133    92    91    2
   134    75    74    2
   135    78    79    2
   136    78    77    1
   137    36    35    1
   138    93    94    1
   139    77    76    1
   140    74    73    1
   141    73    76    1
   142    73    72    1
   143    94    95    1
   144    94    96    1
   145    55    54    1
   146    47    48    1
   147   100    99    2
   148    53    54    1
   149    53    52    1
   150    51    48    1
   151    51    52    1
   152    48    49    1
   153    99    98    1
   154   101    98    1
   155   101   102    1
   156    98    97    1
   157    49    50    2
   158    59    58    2
   159   103   102    1
   160   102   104    1
   161    68    67    2
   162    56    57    1
   163    58    57    1
   164    58    65   am
   165    67    66    1
   166    66    65    1
   167    66    69    1
   168    57    60    1
   169    71    69    1
   170    69    70    1
   171    60    61    1
   172    61    62    1
   173    62    64   ar
   174    62    63   ar
