@<TRIPOS>MOLECULE
tmp/3w2iA01.pdb
 167 164 0 0 0
SMALL
GASTEIGER

@<TRIPOS>ATOM
      1  N        -21.1900   -2.9010  -12.8640 N.3    81  LYS81      -0.1245
      2  CA       -21.0420   -4.3480  -12.9030 C.3    81  LYS81       0.1561
      3  C        -21.5800   -4.9420  -11.6030 C.2    81  LYS81       0.2260
      4  O        -21.1750   -4.5400  -10.5050 O.2    81  LYS81      -0.2867
      5  CB       -19.5770   -4.7440  -13.0880 C.3    81  LYS81       0.0271
      6  CG       -19.3420   -6.2660  -13.0710 C.3    81  LYS81       0.0035
      7  CD       -17.8820   -6.6080  -13.3400 C.3    81  LYS81       0.0206
      8  CE       -17.4630   -6.1980  -14.7590 C.3    81  LYS81       0.1093
      9  NZ       -16.0800   -6.6430  -15.0940 N.3    81  LYS81      -0.1314
     10  N        -21.8270   -7.8190   -8.9530 N.3    83  TYR83      -0.1241
     11  CA       -21.1000   -8.9740   -8.4630 C.3    83  TYR83       0.1605
     12  C        -22.0830   -9.8810   -7.7480 C.2    83  TYR83       0.2264
     13  O        -22.3770   -9.6910   -6.5720 O.2    83  TYR83      -0.2867
     14  CB       -19.9920   -8.5440   -7.5080 C.3    83  TYR83       0.0534
     15  CG       -18.8950   -7.7690   -8.2000 C.ar   83  TYR83      -0.0201
     16  CD1      -18.0340   -8.3960   -9.0900 C.ar   83  TYR83      -0.0009
     17  CD2      -18.7250   -6.4140   -7.9660 C.ar   83  TYR83      -0.0009
     18  CE1      -17.0230   -7.6980   -9.7290 C.ar   83  TYR83       0.0417
     19  CE2      -17.7210   -5.7020   -8.6060 C.ar   83  TYR83       0.0417
     20  CZ       -16.8740   -6.3470   -9.4780 C.ar   83  TYR83       0.1957
     21  OH       -15.8760   -5.6350  -10.1070 O.3    83  TYR83      -0.2866
     22  N         -9.0860   -1.5710  -16.5430 N.3   150  GLY150     -0.1210
     23  CA        -9.5350   -2.9510  -16.4730 C.3   150  GLY150      0.1956
     24  C        -10.9800   -2.9790  -16.0140 C.2   150  GLY150      0.2612
     25  O        -11.3280   -2.3700  -14.9930 O.2   150  GLY150     -0.2717
     26  N        -11.8290   -3.6560  -16.7780 N.am  151  GLY151     -0.1942
     27  CA       -13.2250   -3.8130  -16.4040 C.3   151  GLY151      0.2014
     28  C        -13.9190   -2.4720  -16.2290 C.2   151  GLY151      0.2640
     29  O        -13.8320   -1.6010  -17.0980 O.2   151  GLY151     -0.2714
     30  N        -14.5960   -2.2980  -15.0990 N.am  152  THR152     -0.1936
     31  CA       -15.3280   -1.0610  -14.8360 C.3   152  THR152      0.2028
     32  C        -14.4060    0.1480  -14.6790 C.2   152  THR152      0.2642
     33  O        -14.8770    1.2830  -14.6280 O.2   152  THR152     -0.2714
     34  CB       -16.2300   -1.1660  -13.5940 C.3   152  THR152      0.1808
     35  OG1      -15.4460   -1.5600  -12.4600 O.3   152  THR152     -0.2208
     36  CG2      -17.3280   -2.1900  -13.8250 C.3   152  THR152      0.0379
     37  N        -13.0990   -0.1020  -14.6050 N.am  153  GLY153     -0.1954
     38  CA       -12.1060    0.9600  -14.5980 C.3   153  GLY153      0.1869
     39  C        -12.1450    1.8260  -15.8540 C.2   153  GLY153      0.2309
     40  O        -11.4880    2.8610  -15.9250 O.2   153  GLY153     -0.2863
     41  N         -8.3580   -3.6240  -20.6860 N.3   179  ALA179     -0.1231
     42  CA        -8.2030   -5.0470  -20.3860 C.3   179  ALA179      0.1694
     43  C         -9.4810   -5.6030  -19.7820 C.2   179  ALA179      0.2592
     44  O        -10.0680   -4.9750  -18.8960 O.2   179  ALA179     -0.2718
     45  CB        -7.0510   -5.2430  -19.4030 C.3   179  ALA179      0.0304
     46  N         -9.9010   -6.7760  -20.2570 N.am  180  ASN180     -0.1960
     47  CA       -11.0910   -7.4650  -19.7510 C.3   180  ASN180      0.1819
     48  C        -10.9410   -8.9640  -19.8070 C.2   180  ASN180      0.2621
     49  O        -10.0280   -9.4810  -20.4430 O.2   180  ASN180     -0.2715
     50  CB       -12.3370   -7.0690  -20.5270 C.3   180  ASN180      0.1195
     51  CG       -12.7120   -5.6320  -20.2860 C.2   180  ASN180      0.2630
     52  OD1      -13.2730   -5.2990  -19.2410 O.2   180  ASN180     -0.2716
     53  ND2      -12.3830   -4.7670  -21.2350 N.am  180  ASN180     -0.0877
     54  N        -11.8440   -9.6720  -19.1340 N.am  181  GLN181     -0.1977
     55  CA       -11.6790  -11.1170  -19.0280 C.3   181  GLN181      0.1601
     56  C        -11.9220  -11.8220  -20.3530 C.2   181  GLN181      0.2287
     57  O        -11.1860  -12.7420  -20.7140 O.2   181  GLN181     -0.2864
     58  CB       -12.5840  -11.6860  -17.9370 C.3   181  GLN181      0.0394
     59  CG       -12.1620  -11.2530  -16.5500 C.3   181  GLN181      0.0908
     60  CD       -13.0300  -11.8590  -15.4670 C.2   181  GLN181      0.2608
     61  OE1      -13.1610  -13.0780  -15.3720 O.2   181  GLN181     -0.2717
     62  NE2      -13.6300  -11.0050  -14.6400 N.am  181  GLN181     -0.0878
     63  N        -16.9650   -9.1270  -22.2440 N.3   185  ASP185     -0.1239
     64  CA       -16.7760   -8.2440  -21.0940 C.3   185  ASP185      0.1674
     65  C        -16.2230   -6.8610  -21.4450 C.2   185  ASP185      0.2266
     66  O        -15.9740   -6.0470  -20.5470 O.2   185  ASP185     -0.2867
     67  CB       -15.8590   -8.9210  -20.0750 C.3   185  ASP185      0.1410
     68  CG       -16.5080  -10.1240  -19.4290 C.2   185  ASP185      0.3668
     69  OD1      -17.6680   -9.9980  -18.9860 O.co2 185  ASP185     -0.2456
     70  OD2      -15.8640  -11.1890  -19.3730 O.co2 185  ASP185     -0.2456
     71  N         -8.2180  -11.6360  -21.2190 N.3   210  ASP210     -0.1239
     72  CA        -7.5920  -12.7900  -20.5730 C.3   210  ASP210      0.1674
     73  C         -7.6690  -13.9900  -21.5010 C.2   210  ASP210      0.2266
     74  O         -6.7070  -14.7510  -21.6420 O.2   210  ASP210     -0.2867
     75  CB        -8.3390  -13.1840  -19.2950 C.3   210  ASP210      0.1410
     76  CG        -8.2570  -12.1290  -18.1950 C.2   210  ASP210      0.3668
     77  OD1       -7.8390  -10.9890  -18.4780 O.co2 210  ASP210     -0.2456
     78  OD2       -8.6400  -12.4590  -17.0480 O.co2 210  ASP210     -0.2456
     79  N         -4.1940  -11.7350  -22.7670 N.3   221  GLY221     -0.1210
     80  CA        -3.4590  -11.8920  -21.5270 C.3   221  GLY221      0.1956
     81  C         -3.5390  -10.6670  -20.6300 C.2   221  GLY221      0.2612
     82  O         -4.1190   -9.6330  -21.0030 O.2   221  GLY221     -0.2717
     83  N         -2.9480  -10.7720  -19.4440 N.am  222  PHE222     -0.1962
     84  CA        -2.8350   -9.6100  -18.5620 C.3   222  PHE222      0.1771
     85  C         -1.9630   -8.5600  -19.2370 C.2   222  PHE222      0.2619
     86  O         -1.1780   -8.8720  -20.1320 O.2   222  PHE222     -0.2715
     87  CB        -2.2110   -9.9990  -17.2220 C.3   222  PHE222      0.0574
     88  CG        -3.1170  -10.8110  -16.3410 C.ar  222  PHE222     -0.0200
     89  CD1       -4.4700  -10.9220  -16.6230 C.ar  222  PHE222     -0.0042
     90  CD2       -2.6130  -11.4530  -15.2220 C.ar  222  PHE222     -0.0042
     91  CE1       -5.3000  -11.6660  -15.8020 C.ar  222  PHE222     -0.0003
     92  CE2       -3.4400  -12.1950  -14.4030 C.ar  222  PHE222     -0.0003
     93  CZ        -4.7860  -12.2970  -14.6970 C.ar  222  PHE222     -0.0000
     94  N         -2.1020   -7.3110  -18.8070 N.am  223  VAL223     -0.1977
     95  CA        -1.2650   -6.2380  -19.3340 C.3   223  VAL223      0.1596
     96  C          0.2070   -6.5940  -19.1480 C.2   223  VAL223      0.2287
     97  O          0.6200   -7.0160  -18.0630 O.2   223  VAL223     -0.2864
     98  CB        -1.6010   -4.8940  -18.6500 C.3   223  VAL223      0.0276
     99  CG1       -0.5790   -3.8260  -19.0280 C.3   223  VAL223      0.0022
    100  CG2       -3.0050   -4.4570  -19.0490 C.3   223  VAL223      0.0022
    101  N         -6.8840    2.5790  -13.9470 N.3   244  CYS244     -0.1221
    102  CA        -7.9700    2.2030  -13.0480 C.3   244  CYS244      0.1808
    103  C         -8.3610    0.7750  -13.3590 C.2   244  CYS244      0.2602
    104  O         -8.7100    0.4470  -14.4940 O.2   244  CYS244     -0.2717
    105  CB        -9.1790    3.1370  -13.1710 C.3   244  CYS244      0.0970
    106  SG       -10.4880    2.7810  -11.9670 S.3   244  CYS244     -0.0800
    107  N         -8.2840   -0.0700  -12.3360 N.am  245  GLY245     -0.1943
    108  CA        -8.5700   -1.4790  -12.4920 C.3   245  GLY245      0.1998
    109  C         -8.3860   -2.1830  -11.1670 C.2   245  GLY245      0.2481
    110  O         -8.0990   -1.5480  -10.1440 O.2   245  GLY245     -0.2729
    111  N         -8.5550   -3.5080  -11.1710 N.am  246  PRO246     -0.2715
    112  CA        -8.3840   -4.2910   -9.9490 C.3   246  PRO246      0.1521
    113  C         -7.0050   -4.0310   -9.3560 C.2   246  PRO246      0.2440
    114  O         -6.0550   -3.8070  -10.1070 O.2   246  PRO246     -0.2731
    115  CB        -8.4860   -5.7360  -10.4520 C.3   246  PRO246      0.0310
    116  CG        -9.3630   -5.6370  -11.6680 C.3   246  PRO246      0.0237
    117  CD        -8.9670   -4.3370  -12.3190 C.3   246  PRO246      0.0939
    118  N         -6.9000   -4.0330   -8.0190 N.am  247  PRO247     -0.2717
    119  CA        -5.6170   -3.8150   -7.3420 C.3   247  PRO247      0.1521
    120  C         -4.4470   -4.6540   -7.8990 C.2   247  PRO247      0.2440
    121  O         -3.3980   -4.0690   -8.1610 O.2   247  PRO247     -0.2731
    122  CB        -5.9330   -4.1570   -5.8770 C.3   247  PRO247      0.0310
    123  CG        -7.3820   -3.7840   -5.7370 C.3   247  PRO247      0.0237
    124  CD        -8.0210   -4.1390   -7.0650 C.3   247  PRO247      0.0939
    125  N         -4.6250   -5.9760   -8.1100 N.am  248  PRO248     -0.2716
    126  CA        -3.4790   -6.7030   -8.6760 C.3   248  PRO248      0.1536
    127  C         -3.1420   -6.3140  -10.1150 C.2   248  PRO248      0.2598
    128  O         -1.9950   -6.4640  -10.5430 O.2   248  PRO248     -0.2715
    129  CB        -3.9290   -8.1670   -8.6140 C.3   248  PRO248      0.0310
    130  CG        -5.4170   -8.1030   -8.6120 C.3   248  PRO248      0.0237
    131  CD        -5.7390   -6.8920   -7.7960 C.3   248  PRO248      0.0939
    132  N         -4.1200   -5.8190  -10.8630 N.am  249  MET249     -0.1978
    133  CA        -3.8200   -5.3440  -12.2020 C.3   249  MET249      0.1605
    134  C         -2.8530   -4.1610  -12.1190 C.2   249  MET249      0.2287
    135  O         -1.8560   -4.0980  -12.8370 O.2   249  MET249     -0.2864
    136  CB        -5.0890   -4.9320  -12.9340 C.3   249  MET249      0.0413
    137  CG        -4.7940   -4.3310  -14.2960 C.3   249  MET249      0.0598
    138  SD        -6.2660   -3.7160  -15.1230 S.3   249  MET249     -0.1393
    139  CE        -5.5290   -2.9510  -16.5500 C.3   249  MET249      0.0692
    140  N          0.6770   -5.5190  -10.1480 N.3   252  TYR252     -0.1227
    141  CA         1.5240   -6.5490  -10.7540 C.3   252  TYR252      0.1736
    142  C          1.6740   -6.4390  -12.2680 C.2   252  TYR252      0.2595
    143  O          2.7030   -6.8260  -12.8200 O.2   252  TYR252     -0.2718
    144  CB         1.0210   -7.9410  -10.3790 C.3   252  TYR252      0.0548
    145  CG         0.9820   -8.1600   -8.8820 C.ar  252  TYR252     -0.0200
    146  CD1        2.1550   -8.1890   -8.1360 C.ar  252  TYR252     -0.0009
    147  CD2       -0.2230   -8.3230   -8.2150 C.ar  252  TYR252     -0.0009
    148  CE1        2.1290   -8.3840   -6.7670 C.ar  252  TYR252      0.0417
    149  CE2       -0.2590   -8.5190   -6.8390 C.ar  252  TYR252      0.0417
    150  CZ         0.9200   -8.5450   -6.1250 C.ar  252  TYR252      0.1957
    151  OH         0.8940   -8.7420   -4.7650 O.3   252  TYR252     -0.2866
    152  N          0.6520   -5.9270  -12.9380 N.am  253  ALA253     -0.1980
    153  CA         0.6830   -5.8760  -14.3940 C.3   253  ALA253      0.1597
    154  C          1.0620   -4.4990  -14.9140 C.2   253  ALA253      0.2287
    155  O          1.8180   -4.3850  -15.8730 O.2   253  ALA253     -0.2864
    156  CB        -0.6490   -6.3310  -14.9880 C.3   253  ALA253      0.0319
    157  N         -6.6020    5.9660  -10.2870 N.3   271  PHE271     -0.1241
    158  CA        -7.8800    6.4050   -9.7570 C.3   271  PHE271      0.1605
    159  C         -8.2550    5.5120   -8.5750 C.2   271  PHE271      0.2264
    160  O         -7.8120    4.3660   -8.4780 O.2   271  PHE271     -0.2867
    161  CB        -8.9730    6.3190  -10.8250 C.3   271  PHE271      0.0534
    162  CG        -8.8960    7.3900  -11.8800 C.ar  271  PHE271     -0.0203
    163  CD1       -9.4570    8.6420  -11.6610 C.ar  271  PHE271     -0.0042
    164  CD2       -8.3040    7.1350  -13.1130 C.ar  271  PHE271     -0.0042
    165  CE1       -9.4020    9.6220  -12.6390 C.ar  271  PHE271     -0.0003
    166  CE2       -8.2480    8.1070  -14.1010 C.ar  271  PHE271     -0.0003
    167  CZ        -8.7960    9.3630  -13.8690 C.ar  271  PHE271     -0.0000
@<TRIPOS>BOND
     1    79    80    1
     2    63    64    1
     3    74    73    2
     4    80    81    1
     5    73    72    1
     6    65    64    1
     7    65    66    2
     8    53    51   am
     9    71    72    1
    10    64    67    1
    11    82    81    2
    12    57    56    2
    13    41    42    1
    14    81    83   am
    15    72    75    1
    16    50    51    1
    17    50    47    1
    18    49    48    2
    19    42    43    1
    20    42    45    1
    21    56    55    1
    22    51    52    2
    23    46    43   am
    24    46    47    1
    25    86    85    2
    26    67    68    1
    27    48    47    1
    28    48    54   am
    29    43    44    2
    30    83    84    1
    31    68    70   ar
    32    68    69   ar
    33    95    96    1
    34    95    94    1
    35    95    98    1
    36    75    76    1
    37    85    94   am
    38    85    84    1
    39    96    97    2
    40    54    55    1
    41   100    98    1
    42    55    58    1
    43    99    98    1
    44    84    87    1
    45    77    76   ar
    46    76    78   ar
    47    58    59    1
    48    87    88    1
    49    29    28    2
    50    26    27    1
    51    26    24   am
    52    89    88   ar
    53    89    91   ar
    54   139   138    1
    55    59    60    1
    56    22    23    1
    57    23    24    1
    58    27    28    1
    59    88    90   ar
    60    28    30   am
    61    24    25    2
    62    40    39    2
    63   155   154    2
    64    39    38    1
    65    91    93   ar
    66    60    61    2
    67    60    62   am
    68    90    92   ar
    69   138   137    1
    70    30    31    1
    71     9     8    1
    72   156   153    1
    73   154   153    1
    74    31    32    1
    75    31    34    1
    76     8     7    1
    77    93    92   ar
    78    32    33    2
    79    32    37   am
    80    37    38    1
    81   104   103    2
    82   153   152    1
    83   137   136    1
    84   166   167   ar
    85   166   164   ar
    86   101   102    1
    87   167   165   ar
    88    36    34    1
    89    34    35    1
    90   103   102    1
    91   103   107   am
    92     7     6    1
    93   105   102    1
    94   105   106    1
    95   164   162   ar
    96     5     6    1
    97     5     2    1
    98   152   142   am
    99   136   133    1
   100     2     1    1
   101     2     3    1
   102   135   134    2
   103   143   142    2
   104   165   163   ar
   105   108   107    1
   106   108   109    1
   107   117   116    1
   108   117   111    1
   109   142   141    1
   110   133   134    1
   111   133   132    1
   112   162   163   ar
   113   162   161    1
   114   116   115    1
   115     3     4    2
   116   111   109   am
   117   111   112    1
   118   109   110    2
   119   132   127   am
   120   161   158    1
   121   141   144    1
   122   141   140    1
   123   128   127    2
   124   115   112    1
   125   144   145    1
   126   157   158    1
   127   127   126    1
   128    21    20    1
   129   114   113    2
   130   112   113    1
   131   158   159    1
   132    18    20   ar
   133    18    16   ar
   134    20    19   ar
   135   113   118   am
   136    16    15   ar
   137    10    11    1
   138   145   147   ar
   139   145   146   ar
   140   126   129    1
   141   126   125    1
   142   129   130    1
   143   130   131    1
   144    19    17   ar
   145   159   160    2
   146    11    12    1
   147    11    14    1
   148   147   149   ar
   149    15    17   ar
   150    15    14    1
   151   121   120    2
   152   146   148   ar
   153   125   120   am
   154   125   131    1
   155   118   119    1
   156   118   124    1
   157   120   119    1
   158    12    13    2
   159   119   122    1
   160   124   123    1
   161   149   150   ar
   162   148   150   ar
   163   150   151    1
   164   122   123    1
