@<TRIPOS>MOLECULE
tmp/3w2jB01.pdb
 146 136 0 0 0
SMALL
GASTEIGER

@<TRIPOS>ATOM
      1  N        -15.7370  -16.7710   15.8610 N.3    44  LYS44      -0.1231
      2  CA       -14.3450  -16.7670   15.4360 C.3    44  LYS44       0.1696
      3  C        -14.2820  -16.6510   13.8980 C.2    44  LYS44       0.2592
      4  O        -15.0170  -17.3830   13.2170 O.2    44  LYS44      -0.2718
      5  CB       -13.6630  -18.0770   15.8170 C.3    44  LYS44       0.0331
      6  CG       -12.2780  -18.3370   15.3020 C.3    44  LYS44       0.0295
      7  CD       -11.1680  -17.4020   15.7750 C.2    44  LYS44      -0.0067
      8  CE        -9.8680  -17.4330   15.0850 C.2    44  LYS44       0.1012
      9  NZ        -8.7890  -16.3990   15.4730 N.pl3  44  LYS44      -0.1270
     10  N        -13.3910  -15.8590   13.3760 N.am   45  SER45      -0.1952
     11  CA       -13.2120  -15.8020   11.8940 C.3    45  SER45       0.1924
     12  C        -12.8990  -17.1880   11.3850 C.2    45  SER45       0.2314
     13  O        -12.0450  -17.9320   11.9110 O.2    45  SER45      -0.2863
     14  CB       -12.0630  -14.9370   11.5000 C.3    45  SER45       0.2116
     15  OG       -12.3670  -13.5370   11.8080 O.3    45  SER45      -0.2180
     16  N         -1.4260  -21.9490   14.6260 N.3    54  ASN54      -0.1240
     17  CA        -0.0130  -21.9650   14.8520 C.3    54  ASN54       0.1653
     18  C          0.3890  -22.7000   16.1090 C.2    54  ASN54       0.2266
     19  O         -0.4400  -22.9200   16.9550 O.2    54  ASN54      -0.2867
     20  CB         0.5160  -20.5160   14.8880 C.3    54  ASN54       0.1155
     21  CG         0.4820  -19.8530   13.5610 C.2    54  ASN54       0.2627
     22  OD1        0.4840  -20.5020   12.5640 O.2    54  ASN54      -0.2716
     23  ND2        0.4590  -18.5700   13.5520 N.am   54  ASN54      -0.0877
     24  N         -0.6720  -11.6650   19.9270 N.3    68  ASN68      -0.1225
     25  CA        -1.1410  -12.9750   19.4080 C.3    68  ASN68       0.1785
     26  C         -0.7200  -13.1300   17.9720 C.2    68  ASN68       0.2598
     27  O         -0.7380  -12.2870   17.1290 O.2    68  ASN68      -0.2718
     28  CB        -2.6550  -13.1930   19.5090 C.3    68  ASN68       0.1169
     29  CG        -3.4070  -12.6360   18.3500 C.2    68  ASN68       0.2627
     30  OD1       -3.6020  -13.3100   17.3330 O.2    68  ASN68      -0.2716
     31  ND2       -3.9790  -11.4260   18.4820 N.am   68  ASN68      -0.0877
     32  N         -0.3720  -14.4490   17.7150 N.am   69  SER69      -0.1938
     33  CA        -0.2520  -14.9740   16.3570 C.3    69  SER69       0.2055
     34  C         -0.9760  -16.2930   16.3040 C.2    69  SER69       0.2643
     35  O         -0.3200  -17.3410   16.2160 O.2    69  SER69      -0.2714
     36  CB         1.2120  -15.0530   15.9520 C.3    69  SER69       0.2130
     37  OG         1.6860  -13.6930   15.7250 O.3    69  SER69      -0.2179
     38  N         -2.2980  -16.2820   16.4210 N.am   70  MET70      -0.1962
     39  CA        -3.0340  -17.5370   16.5420 C.3    70  MET70       0.1736
     40  C         -2.9450  -18.3530   15.3080 C.2    70  MET70       0.2617
     41  O         -2.9220  -19.5950   15.4510 O.2    70  MET70      -0.2715
     42  CB        -4.4770  -17.2410   16.8530 C.3    70  MET70       0.0427
     43  CG        -4.7710  -16.3680   18.1060 C.3    70  MET70       0.0599
     44  SD        -4.1430  -17.0320   19.6200 S.3    70  MET70      -0.1393
     45  CE        -5.2080  -18.2730   19.9690 C.3    70  MET70       0.0692
     46  N         -2.9090  -17.7690   14.1480 N.am   71  GLY71      -0.1940
     47  CA        -2.9580  -18.5100   12.9120 C.3    71  GLY71       0.2014
     48  C         -4.2810  -18.9390   12.4610 C.2    71  GLY71       0.2638
     49  O         -4.3600  -19.9500   11.7510 O.2    71  GLY71      -0.2714
     50  N         -5.3420  -18.2140   12.7760 N.am   72  LEU72      -0.1977
     51  CA        -6.6750  -18.5060   12.3250 C.3    72  LEU72       0.1596
     52  C         -7.1540  -19.9010   12.7230 C.2    72  LEU72       0.2287
     53  O         -7.7890  -20.6080   11.8620 O.2    72  LEU72      -0.2864
     54  CB        -6.8230  -18.1190   10.8360 C.3    72  LEU72       0.0297
     55  CG        -8.1140  -17.9340   10.1160 C.3    72  LEU72       0.0022
     56  CD1       -8.9950  -16.9840   10.9010 C.3    72  LEU72       0.0001
     57  CD2       -7.6890  -17.3390    8.7300 C.3    72  LEU72       0.0001
     58  N        -13.1160  -15.1690    7.2060 N.3   100  SER100     -0.1217
     59  CA       -11.7900  -14.7860    6.8140 C.3   100  SER100      0.1889
     60  C        -11.1410  -15.8040    5.8770 C.2   100  SER100      0.2288
     61  O        -10.1810  -16.3770    6.1990 O.2   100  SER100     -0.2866
     62  CB       -10.9110  -14.5590    8.0800 C.3   100  SER100      0.2089
     63  OG        -9.8000  -13.9140    7.7110 O.3   100  SER100     -0.2183
     64  N        -13.6800  -10.2600    7.6050 N.3   128  ASN128     -0.1240
     65  CA       -12.3560   -9.8950    8.1110 C.3   128  ASN128      0.1653
     66  C        -11.3550   -9.7710    6.9720 C.2   128  ASN128      0.2266
     67  O        -11.0030  -10.7000    6.4000 O.2   128  ASN128     -0.2867
     68  CB       -11.8820  -10.9650    9.1100 C.3   128  ASN128      0.1155
     69  CG       -10.5330  -10.6770    9.7480 C.2   128  ASN128      0.2627
     70  OD1       -9.9350   -9.7100    9.5240 O.2   128  ASN128     -0.2716
     71  ND2      -10.0760  -11.6230   10.4890 N.am  128  ASN128     -0.0877
     72  N         -8.0560   -9.0010    7.3760 N.3   130  SER130     -0.1202
     73  CA        -6.7240   -9.4650    7.7770 C.3   130  SER130      0.2020
     74  C         -6.4570  -10.9470    7.5400 C.2   130  SER130      0.2619
     75  O         -7.3440  -11.7120    7.5960 O.2   130  SER130     -0.2717
     76  CB        -6.5480   -9.0670    9.2720 C.3   130  SER130      0.2103
     77  OG        -6.6920   -7.6590    9.4410 O.3   130  SER130     -0.2182
     78  N         -5.2340  -11.3170    7.2520 N.am  131  CYS131     -0.1956
     79  CA        -4.8880  -12.6680    6.9030 C.3   131  CYS131      0.1828
     80  C         -3.4090  -12.9740    7.2140 C.2   131  CYS131      0.2467
     81  O         -2.6360  -12.1260    7.4610 O.2   131  CYS131     -0.2730
     82  CB        -5.1370  -12.8960    5.3910 C.3   131  CYS131      0.0996
     83  SG        -4.1580  -11.7800    4.3510 S.3   131  CYS131     -0.0797
     84  N         -3.0960  -14.3380    7.1570 N.am  132  PRO132     -0.2715
     85  CA        -1.6600  -14.6470    7.3420 C.3   132  PRO132      0.1536
     86  C         -0.7700  -14.0160    6.2610 C.2   132  PRO132      0.2598
     87  O         -1.1970  -13.8790    5.1740 O.2   132  PRO132     -0.2715
     88  CB        -1.5950  -16.1760    7.2110 C.3   132  PRO132      0.0310
     89  CG        -2.8980  -16.6850    7.6800 C.3   132  PRO132      0.0237
     90  CD        -3.8730  -15.6900    7.1250 C.3   132  PRO132      0.0939
     91  N          0.4570  -13.6580    6.6180 N.am  133  ASN133     -0.1973
     92  CA         1.3950  -13.0610    5.6800 C.3   133  ASN133      0.1688
     93  C          1.6820  -13.9860    4.5010 C.2   133  ASN133      0.2292
     94  O          1.9620  -15.1320    4.6620 O.2   133  ASN133     -0.2864
     95  CB         2.7470  -12.7960    6.4060 C.3   133  ASN133      0.1181
     96  CG         3.7850  -12.1180    5.5150 C.2   133  ASN133      0.2629
     97  OD1        3.5510  -11.0750    5.0350 O.2   133  ASN133     -0.2716
     98  ND2        4.9180  -12.7370    5.3000 N.am  133  ASN133     -0.0877
     99  N         -1.1690   -7.2080    3.4760 N.3   139  GLN139     -0.1245
    100  CA        -2.4900   -7.5640    3.8810 C.3   139  GLN139      0.1566
    101  C         -3.5470   -6.8870    2.9900 C.2   139  GLN139      0.2260
    102  O         -3.3340   -5.8010    2.5770 O.2   139  GLN139     -0.2867
    103  CB        -2.7110   -6.9550    5.2700 C.3   139  GLN139      0.0367
    104  CG        -1.7470   -7.5460    6.2440 C.3   139  GLN139      0.0905
    105  CD        -2.2170   -8.9030    6.6150 C.2   139  GLN139      0.2608
    106  OE1       -3.3380   -9.0230    7.1450 O.2   139  GLN139     -0.2717
    107  NE2       -1.4280   -9.9650    6.2830 N.am  139  GLN139     -0.0878
    108  N         -8.9660   -4.1050   14.1490 N.3   195  ASN195     -0.1225
    109  CA        -8.1890   -5.3110   14.3820 C.3   195  ASN195      0.1785
    110  C         -6.8990   -4.9320   15.1640 C.2   195  ASN195      0.2597
    111  O         -6.6260   -3.8330   15.4250 O.2   195  ASN195     -0.2718
    112  CB        -7.9130   -6.0670   13.0490 C.3   195  ASN195      0.1169
    113  CG        -7.9030   -7.5950   13.2220 C.2   195  ASN195      0.2627
    114  OD1       -7.3130   -8.1050   14.0980 O.2   195  ASN195     -0.2716
    115  ND2       -8.5640   -8.2820   12.3210 N.am  195  ASN195     -0.0877
    116  N         -6.1640   -5.9570   15.4860 N.am  196  SER196     -0.1952
    117  CA        -4.9600   -5.7750   16.2530 C.3   196  SER196      0.1924
    118  C         -3.9250   -4.9090   15.5190 C.2   196  SER196      0.2314
    119  O         -3.9230   -4.8160   14.3460 O.2   196  SER196     -0.2863
    120  CB        -4.4140   -7.1360   16.7590 C.3   196  SER196      0.2116
    121  OG        -4.2710   -8.0540   15.8240 O.3   196  SER196     -0.2180
    122  N         -0.7040   -4.5040   14.0140 N.3   198  GLY198     -0.1210
    123  CA         0.0270   -5.6230   13.4840 C.3   198  GLY198      0.1956
    124  C          1.4890   -5.6230   13.8540 C.2   198  GLY198      0.2611
    125  O          2.1740   -4.6530   13.9230 O.2   198  GLY198     -0.2717
    126  N          1.9230   -6.8450   14.0190 N.am  199  ASN199     -0.1974
    127  CA         3.3310   -7.1770   14.0680 C.3   199  ASN199      0.1688
    128  C          4.1510   -6.3470   15.0650 C.2   199  ASN199      0.2292
    129  O          5.1940   -5.8630   14.7830 O.2   199  ASN199     -0.2864
    130  CB         3.9350   -7.1630   12.6670 C.3   199  ASN199      0.1181
    131  CG         3.3360   -8.2300   11.8130 C.2   199  ASN199      0.2629
    132  OD1        3.4850   -9.3690   12.0770 O.2   199  ASN199     -0.2716
    133  ND2        2.5870   -7.8240   10.8280 N.am  199  ASN199     -0.0877
    134  N          6.2420  -16.8900   14.1210 N.3   215  LYS215     -0.1245
    135  CA         6.7100  -15.6120   13.5270 C.3   215  LYS215      0.1561
    136  C          7.8380  -14.9620   14.2790 C.2   215  LYS215      0.2260
    137  O          7.8960  -13.7360   14.3600 O.2   215  LYS215     -0.2867
    138  CB         5.5180  -14.6190   13.3460 C.3   215  LYS215      0.0271
    139  CG         4.4350  -15.1180   12.4060 C.3   215  LYS215      0.0035
    140  CD         3.1970  -14.1520   12.3400 C.3   215  LYS215      0.0206
    141  CE         3.5550  -12.6880   12.0830 C.3   215  LYS215      0.1093
    142  NZ         2.3020  -11.9510   11.7580 N.3   215  LYS215     -0.1314
    143  N          0.0490   -9.5880   16.6370 N.3   220  GLY220     -0.1225
    144  CA        -0.8440   -8.4150   16.7280 C.3   220  GLY220      0.1811
    145  C         -1.0270   -8.0440   18.1570 C.2   220  GLY220      0.2280
    146  O         -1.2360   -8.8740   19.0450 O.2   220  GLY220     -0.2866
@<TRIPOS>BOND
     1   102   101    2
     2   101   100    1
     3    99   100    1
     4   100   103    1
     5    83    82    1
     6    93    94    2
     7    93    92    1
     8    97    96    2
     9    87    86    2
    10   103   104    1
    11    98    96   am
    12    82    79    1
    13    96    95    1
    14    92    95    1
    15    92    91    1
    16    60    61    2
    17    60    59    1
    18   104   105    1
    19    86    91   am
    20    86    85    1
    21   107   105   am
    22    67    66    2
    23   105   106    2
    24    59    58    1
    25    59    62    1
    26    79    80    1
    27    79    78    1
    28    66    65    1
    29    90    84    1
    30    90    89    1
    31    84    80   am
    32    84    85    1
    33    88    85    1
    34    88    89    1
    35    80    81    2
    36    78    74   am
    37    72    73    1
    38    74    75    2
    39    74    73    1
    40    64    65    1
    41    63    62    1
    42    73    76    1
    43    65    68    1
    44    57    55    1
    45    68    69    1
    46    76    77    1
    47    70    69    2
    48    69    71   am
    49    55    54    1
    50    55    56    1
    51   133   131   am
    52    54    51    1
    53    12    11    1
    54    12    13    2
    55    14    15    1
    56    14    11    1
    57    49    48    2
    58   142   141    1
    59   131   132    2
    60   131   130    1
    61    53    52    2
    62    11    10    1
    63   141   140    1
    64   115   113   am
    65    51    52    1
    66    51    50    1
    67   140   139    1
    68   139   138    1
    69    48    50   am
    70    48    47    1
    71    22    21    2
    72   130   127    1
    73    47    46    1
    74   112   113    1
    75   112   109    1
    76     4     3    2
    77   113   114    2
    78   138   135    1
    79    10     3   am
    80   123   124    1
    81   123   122    1
    82   135   134    1
    83   135   136    1
    84    23    21   am
    85    21    20    1
    86   124   125    2
    87   124   126   am
    88     3     2    1
    89   126   127    1
    90   127   128    1
    91    46    40   am
    92   108   109    1
    93   136   137    2
    94   119   118    2
    95   109   110    1
    96    16    17    1
    97   129   128    2
    98    17    20    1
    99    17    18    1
   100     8     9    1
   101     8     7    2
   102   110   111    2
   103   110   116   am
   104     6     7    1
   105     6     5    1
   106    40    41    2
   107    40    39    1
   108     2     5    1
   109     2     1    1
   110   116   117    1
   111   118   117    1
   112    37    36    1
   113   121   120    1
   114    36    33    1
   115    18    19    2
   116    35    34    2
   117   117   120    1
   118    34    33    1
   119    34    38   am
   120    33    32    1
   121    38    39    1
   122    39    42    1
   123   143   144    1
   124   144   145    1
   125    42    43    1
   126    27    26    2
   127    30    29    2
   128    32    26   am
   129    26    25    1
   130    43    44    1
   131   145   146    2
   132    29    31   am
   133    29    28    1
   134    25    28    1
   135    25    24    1
   136    44    45    1
