@<TRIPOS>MOLECULE
tmp/3w2lA01.pdb
 136 126 0 0 0
SMALL
GASTEIGER

@<TRIPOS>ATOM
      1  N         16.6100   19.2210   16.8510 N.3    44  LYS44      -0.1231
      2  CA        15.2670   19.2810   16.2960 C.3    44  LYS44       0.1693
      3  C         15.2990   19.2070   14.7650 C.2    44  LYS44       0.2592
      4  O         16.0240   19.9070   14.1450 O.2    44  LYS44      -0.2718
      5  CB        14.5590   20.5700   16.7340 C.3    44  LYS44       0.0285
      6  CG        13.2200   20.8190   16.1240 C.3    44  LYS44       0.0035
      7  CD        12.1310   19.8090   16.4410 C.3    44  LYS44       0.0206
      8  CE        10.8850   19.9290   15.5220 C.3    44  LYS44       0.1093
      9  NZ         9.7270   18.9090   15.8720 N.3    44  LYS44      -0.1314
     10  N         14.4660   18.3420   14.2220 N.am   45  SER45      -0.1952
     11  CA        14.2850   18.2470   12.7530 C.3    45  SER45       0.1924
     12  C         14.0200   19.6350   12.2330 C.2    45  SER45       0.2314
     13  O         13.2030   20.3430   12.7390 O.2    45  SER45      -0.2863
     14  CB        13.1780   17.3540   12.3030 C.3    45  SER45       0.2116
     15  OG        13.4480   15.9910   12.5850 O.3    45  SER45      -0.2180
     16  N         10.1470   27.8730   11.4090 N.3    51  ARG51      -0.1245
     17  CA         8.7320   27.6310   11.5080 C.3    51  ARG51       0.1563
     18  C          8.2330   27.7850   12.9410 C.2    51  ARG51       0.2260
     19  O          8.8760   27.3660   13.8610 O.2    51  ARG51      -0.2867
     20  CB         8.4400   26.2060   11.1490 C.3    51  ARG51       0.0307
     21  CG         8.5770   25.9390    9.6850 C.3    51  ARG51       0.0489
     22  CD         8.4200   24.4850    9.3860 C.3    51  ARG51       0.2205
     23  NE         7.1380   23.9450    9.7640 N.pl3  51  ARG51      -0.0865
     24  CZ         6.0840   23.9530    8.9910 C.cat  51  ARG51       0.5346
     25  NH1        6.1600   24.4920    7.7850 N.pl3  51  ARG51       0.1354
     26  NH2        4.9570   23.4470    9.4400 N.pl3  51  ARG51       0.1354
     27  N          2.5130   24.3820   14.6950 N.3    54  ASN54      -0.1240
     28  CA         1.0620   24.3930   14.8470 C.3    54  ASN54       0.1653
     29  C          0.5440   25.0920   16.1050 C.2    54  ASN54       0.2266
     30  O          1.2350   25.2690   17.0240 O.2    54  ASN54      -0.2867
     31  CB         0.5260   22.9600   14.8670 C.3    54  ASN54       0.1155
     32  CG         0.5460   22.2770   13.5170 C.2    54  ASN54       0.2627
     33  OD1        0.6260   22.9170   12.5070 O.2    54  ASN54      -0.2716
     34  ND2        0.5320   20.9680   13.5250 N.am   54  ASN54      -0.0877
     35  N          1.2580   14.1770   19.9790 N.3    68  ASN68      -0.1225
     36  CA         1.7510   15.4720   19.4710 C.3    68  ASN68       0.1785
     37  C          1.4370   15.7150   18.0400 C.2    68  ASN68       0.2598
     38  O          1.4580   14.8280   17.2060 O.2    68  ASN68      -0.2718
     39  CB         3.2460   15.6720   19.7100 C.3    68  ASN68       0.1169
     40  CG         4.1160   15.1600   18.5550 C.2    68  ASN68       0.2627
     41  OD1        4.3270   15.8170   17.5130 O.2    68  ASN68      -0.2716
     42  ND2        4.6390   13.9450   18.7200 N.am   68  ASN68      -0.0877
     43  N          1.1430   16.9750   17.7490 N.am   69  SER69      -0.1938
     44  CA         1.0910   17.4480   16.3680 C.3    69  SER69       0.2055
     45  C          1.8080   18.7580   16.3980 C.2    69  SER69       0.2643
     46  O          1.1940   19.7940   16.2180 O.2    69  SER69      -0.2714
     47  CB        -0.3470   17.5750   15.8090 C.3    69  SER69       0.2130
     48  OG        -0.8980   16.2660   15.6460 O.3    69  SER69      -0.2179
     49  N          3.1070   18.7340   16.6180 N.am   70  MET70      -0.1962
     50  CA         3.8660   19.9800   16.7360 C.3    70  MET70       0.1736
     51  C          3.8570   20.8300   15.4680 C.2    70  MET70       0.2617
     52  O          3.8710   22.0670   15.5310 O.2    70  MET70      -0.2715
     53  CB         5.2930   19.6530   17.1280 C.3    70  MET70       0.0427
     54  CG         5.4770   18.8610   18.4060 C.3    70  MET70       0.0599
     55  SD         4.7730   19.5400   19.8690 S.3    70  MET70      -0.1393
     56  CE         5.8960   20.8370   20.1820 C.3    70  MET70       0.0692
     57  N          3.8830   20.1900   14.2950 N.am   71  GLY71      -0.1940
     58  CA         4.0150   20.9230   13.0100 C.3    71  GLY71       0.2014
     59  C          5.3930   21.3860   12.6700 C.2    71  GLY71       0.2638
     60  O          5.5440   22.4430   12.0670 O.2    71  GLY71      -0.2714
     61  N          6.4280   20.7250   13.1440 N.am   72  LEU72      -0.1977
     62  CA         7.7970   21.0750   12.8810 C.3    72  LEU72       0.1596
     63  C          8.2090   22.5020   13.2490 C.2    72  LEU72       0.2287
     64  O          8.8830   23.2140   12.4800 O.2    72  LEU72      -0.2864
     65  CB         8.1130   20.7820   11.4160 C.3    72  LEU72       0.0297
     66  CG         9.4450   20.2940   10.9400 C.3    72  LEU72       0.0022
     67  CD1       10.1440   19.2100   11.7070 C.3    72  LEU72       0.0001
     68  CD2        9.1220   19.7960    9.4790 C.3    72  LEU72       0.0001
     69  N         14.3620   17.6700    8.1440 N.3   100  SER100     -0.1217
     70  CA        13.0840   17.2620    7.6830 C.3   100  SER100      0.1889
     71  C         12.4740   18.2390    6.6870 C.2   100  SER100      0.2288
     72  O         11.4440   18.7690    6.9230 O.2   100  SER100     -0.2866
     73  CB        12.1830   17.0870    8.9130 C.3   100  SER100      0.2089
     74  OG        10.9230   16.8030    8.5450 O.3   100  SER100     -0.2183
     75  N         10.4910   19.6900    3.5230 N.3   102  LEU102     -0.1245
     76  CA         9.1280   19.4870    3.1020 C.3   102  LEU102      0.1561
     77  C          8.9970   19.0420    1.6220 C.2   102  LEU102      0.2260
     78  O          7.9460   18.7630    1.1280 O.2   102  LEU102     -0.2867
     79  CB         8.3300   20.7380    3.3340 C.3   102  LEU102      0.0270
     80  CG         8.2600   21.1650    4.8030 C.3   102  LEU102      0.0019
     81  CD1        7.3300   22.3320    4.9900 C.3   102  LEU102      0.0001
     82  CD2        7.9250   20.0670    5.7160 C.3   102  LEU102      0.0001
     83  N         14.9420   12.6400    8.3990 N.3   128  ASN128     -0.1240
     84  CA        13.6550   12.2090    8.8300 C.3   128  ASN128      0.1653
     85  C         12.7380   11.9290    7.6560 C.2   128  ASN128      0.2266
     86  O         12.3320   12.7950    6.9860 O.2   128  ASN128     -0.2867
     87  CB        13.0500   13.3340    9.6630 C.3   128  ASN128      0.1155
     88  CG        11.6970   12.9760   10.2750 C.2   128  ASN128      0.2627
     89  OD1       11.2200   11.9490   10.1760 O.2   128  ASN128     -0.2716
     90  ND2       11.1370   13.9280   10.9340 N.am  128  ASN128     -0.0877
     91  N          9.8660   10.3340    8.0510 N.3   130  SER130     -0.1202
     92  CA         8.5780   10.0590    8.6520 C.3   130  SER130      0.2020
     93  C          7.9870   11.3920    8.6840 C.2   130  SER130      0.2619
     94  O          7.8150   11.9510    9.6970 O.2   130  SER130     -0.2717
     95  CB         8.6700    9.4220   10.0630 C.3   130  SER130      0.2103
     96  OG         9.9980    8.8150   10.3590 O.3   130  SER130     -0.2182
     97  N          7.7350   11.9140    7.5210 N.am  131  CYS131     -0.1956
     98  CA         7.5490   13.2590    7.3110 C.3   131  CYS131      0.1828
     99  C          6.6710   13.5930    6.0160 C.2   131  CYS131      0.2467
    100  O          6.7650   13.0060    5.0080 O.2   131  CYS131     -0.2730
    101  CB         8.9450   13.7130    6.9710 C.3   131  CYS131      0.0996
    102  SG         9.0660   15.3920    6.4470 S.3   131  CYS131     -0.0797
    103  N          5.9050   14.7580    6.1440 N.am  132  PRO132     -0.2726
    104  CA         5.1220   15.1480    4.9610 C.3   132  PRO132      0.1402
    105  C          5.7860   15.3350    3.6180 C.2   132  PRO132      0.2269
    106  O          6.7910   15.9180    3.5060 O.2   132  PRO132     -0.2865
    107  CB         4.6640   16.5490    5.3360 C.3   132  PRO132      0.0296
    108  CG         4.3650   16.4560    6.7420 C.3   132  PRO132      0.0237
    109  CD         5.5030   15.7350    7.2910 C.3   132  PRO132      0.0939
    110  N          9.8740    6.5490   14.6730 N.3   195  ASN195     -0.1225
    111  CA         9.1360    7.7880   14.9470 C.3   195  ASN195      0.1785
    112  C          7.7610    7.4580   15.5960 C.2   195  ASN195      0.2597
    113  O          7.4710    6.3460   15.8180 O.2   195  ASN195     -0.2718
    114  CB         8.9700    8.5290   13.6160 C.3   195  ASN195      0.1169
    115  CG         8.9230   10.0260   13.7690 C.2   195  ASN195      0.2627
    116  OD1        8.2750   10.4980   14.5780 O.2   195  ASN195     -0.2716
    117  ND2        9.6140   10.7070   12.9320 N.am  195  ASN195     -0.0877
    118  N          6.9630    8.4770   15.8750 N.am  196  SER196     -0.1952
    119  CA         5.7400    8.2420   16.5880 C.3   196  SER196      0.1924
    120  C          4.7730    7.3570   15.8140 C.2   196  SER196      0.2314
    121  O          4.8590    7.2860   14.6300 O.2   196  SER196     -0.2863
    122  CB         5.0790    9.6010   16.9230 C.3   196  SER196      0.2116
    123  OG         5.0290   10.3870   15.8590 O.3   196  SER196     -0.2180
    124  N         -5.3530   19.3260   13.7220 N.3   215  LYS215     -0.1245
    125  CA        -5.7760   18.0870   13.0650 C.3   215  LYS215      0.1561
    126  C         -6.9390   17.3810   13.8030 C.2   215  LYS215      0.2260
    127  O         -7.0180   16.1850   13.8610 O.2   215  LYS215     -0.2867
    128  CB        -4.6080   17.1190   12.8490 C.3   215  LYS215      0.0271
    129  CG        -3.4650   17.6920   12.0360 C.3   215  LYS215      0.0035
    130  CD        -2.3450   16.6560   11.9050 C.3   215  LYS215      0.0206
    131  CE        -2.7820   15.1790   11.7460 C.3   215  LYS215      0.1093
    132  NZ        -1.6150   14.3230   11.3700 N.3   215  LYS215     -0.1314
    133  N          0.7120   12.1270   16.6150 N.3   220  GLY220     -0.1225
    134  CA         1.5570   10.9870   16.7880 C.3   220  GLY220      0.1811
    135  C          1.7170   10.5550   18.2280 C.2   220  GLY220      0.2280
    136  O          1.8730   11.3900   19.1230 O.2   220  GLY220     -0.2866
@<TRIPOS>BOND
     1    78    77    2
     2    77    76    1
     3    76    79    1
     4    76    75    1
     5    79    80    1
     6   106   105    2
     7   105   104    1
     8    80    81    1
     9    80    82    1
    10   104   107    1
    11   104   103    1
    12   100    99    2
    13   107   108    1
    14    99   103   am
    15    99    98    1
    16   103   109    1
    17   102   101    1
    18    71    72    2
    19    71    70    1
    20   108   109    1
    21   101    98    1
    22    86    85    2
    23    98    97    1
    24    97    93   am
    25    85    84    1
    26    70    69    1
    27    70    73    1
    28    25    24    1
    29    91    92    1
    30    83    84    1
    31    74    73    1
    32    92    93    1
    33    92    95    1
    34    93    94    2
    35    84    87    1
    36    24    26    1
    37    24    23    2
    38    22    21    1
    39    22    23    1
    40    68    66    1
    41    87    88    1
    42    21    20    1
    43    95    96    1
    44    89    88    2
    45    88    90   am
    46    66    65    1
    47    66    67    1
    48    20    17    1
    49   132   131    1
    50    16    17    1
    51    65    62    1
    52    17    18    1
    53   131   130    1
    54   130   129    1
    55   129   128    1
    56    60    59    2
    57    12    13    2
    58    12    11    1
    59    14    15    1
    60    14    11    1
    61    64    63    2
    62    33    32    2
    63    59    58    1
    64    59    61   am
    65    11    10    1
    66   128   125    1
    67    62    61    1
    68    62    63    1
    69   117   115   am
    70    18    19    2
    71    58    57    1
    72   125   124    1
    73   125   126    1
    74    32    34   am
    75    32    31    1
    76   114   115    1
    77   114   111    1
    78   115   116    2
    79   126   127    2
    80     4     3    2
    81    10     3   am
    82    57    51   am
    83   121   120    2
    84   110   111    1
    85    27    28    1
    86     3     2    1
    87    28    31    1
    88    28    29    1
    89   111   112    1
    90    51    52    2
    91    51    50    1
    92     8     9    1
    93     8     7    1
    94   112   113    2
    95   112   118   am
    96    48    47    1
    97    47    44    1
    98   120   119    1
    99   123   122    1
   100   118   119    1
   101    29    30    2
   102     6     7    1
   103     6     5    1
   104    46    45    2
   105     2     5    1
   106     2     1    1
   107    44    45    1
   108    44    43    1
   109    45    49   am
   110   119   122    1
   111   133   134    1
   112    49    50    1
   113    50    53    1
   114   134   135    1
   115    53    54    1
   116    38    37    2
   117    41    40    2
   118    43    37   am
   119    37    36    1
   120   135   136    2
   121    54    55    1
   122    40    42   am
   123    40    39    1
   124    36    39    1
   125    36    35    1
   126    55    56    1
