@<TRIPOS>MOLECULE
tmp/3w2mB00.pdb
 126 117 0 0 0
SMALL
GASTEIGER

@<TRIPOS>ATOM
      1  N        -15.7260  -16.7760   15.7150 N.3    44  LYS44      -0.1227
      2  CA       -14.3520  -16.7720   15.2750 C.3    44  LYS44       0.1736
      3  C        -14.2610  -16.6750   13.7660 C.2    44  LYS44       0.2596
      4  O        -15.0160  -17.3750   13.0720 O.2    44  LYS44      -0.2718
      5  CB       -13.6370  -18.1060   15.6800 C.3    44  LYS44       0.0541
      6  CG       -12.2830  -18.3490   15.1300 C.2    44  LYS44      -0.0272
      7  CD       -11.1240  -17.4540   15.6460 C.2    44  LYS44      -0.0103
      8  CE        -9.8330  -17.4540   14.8690 C.3    44  LYS44       0.1350
      9  NZ        -8.8120  -16.3890   15.3210 N.3    44  LYS44      -0.1262
     10  N        -13.3480  -15.8500   13.2540 N.am   45  SER45      -0.1952
     11  CA       -13.2230  -15.7630   11.7590 C.3    45  SER45       0.1924
     12  C        -12.9280  -17.1690   11.2570 C.2    45  SER45       0.2314
     13  O        -12.0810  -17.8520   11.7690 O.2    45  SER45      -0.2863
     14  CB       -12.1380  -14.8440   11.3390 C.3    45  SER45       0.2116
     15  OG       -12.3840  -13.4780   11.7040 O.3    45  SER45      -0.2180
     16  N        -12.4680  -20.1520    7.9900 N.3    47  THR47      -0.1218
     17  CA       -12.0450  -20.5860    6.6710 C.3    47  THR47       0.1862
     18  C        -12.9750  -21.7180    6.2040 C.2    47  THR47       0.2287
     19  O        -13.6640  -22.3300    6.9910 O.2    47  THR47      -0.2866
     20  CB       -10.5730  -21.0230    6.6340 C.3    47  THR47       0.1770
     21  OG1      -10.3050  -21.8940    7.7230 O.3    47  THR47      -0.2211
     22  CG2       -9.6110  -19.8410    6.7040 C.3    47  THR47       0.0375
     23  N         -8.9240  -25.3640   10.7270 N.3    51  ARG51      -0.1245
     24  CA        -7.5180  -25.1420   10.8660 C.3    51  ARG51       0.1563
     25  C         -7.1150  -25.3310   12.3060 C.2    51  ARG51       0.2260
     26  O         -7.8140  -24.8990   13.2520 O.2    51  ARG51      -0.2867
     27  CB        -7.1980  -23.6950   10.4620 C.3    51  ARG51       0.0307
     28  CG        -7.4040  -23.2850    9.0470 C.3    51  ARG51       0.0489
     29  CD        -7.1410  -21.8280    8.8150 C.3    51  ARG51       0.2205
     30  NE        -5.8030  -21.3450    9.2230 N.pl3  51  ARG51      -0.0865
     31  CZ        -4.7510  -21.3070    8.4530 C.cat  51  ARG51       0.5346
     32  NH1       -4.8200  -21.7650    7.2270 N.pl3  51  ARG51       0.1354
     33  NH2       -3.6280  -20.7590    8.8650 N.pl3  51  ARG51       0.1354
     34  N         -0.6860  -11.6860   19.8760 N.3    68  ASN68      -0.1225
     35  CA        -1.1130  -12.9750   19.3290 C.3    68  ASN68       0.1785
     36  C         -0.6690  -13.1510   17.8900 C.2    68  ASN68       0.2598
     37  O         -0.7090  -12.2630   17.0580 O.2    68  ASN68      -0.2718
     38  CB        -2.5880  -13.1650   19.4730 C.3    68  ASN68       0.1169
     39  CG        -3.4030  -12.6690   18.2910 C.2    68  ASN68       0.2627
     40  OD1       -3.5730  -13.2940   17.2480 O.2    68  ASN68      -0.2716
     41  ND2       -3.9120  -11.4740   18.4040 N.am   68  ASN68      -0.0877
     42  N         -0.3540  -14.4700   17.6400 N.am   69  SER69      -0.1938
     43  CA        -0.2660  -14.9720   16.2530 C.3    69  SER69       0.2055
     44  C         -0.9630  -16.2670   16.1780 C.2    69  SER69       0.2643
     45  O         -0.2760  -17.2800   16.0800 O.2    69  SER69      -0.2714
     46  CB         1.2090  -15.0930   15.8710 C.3    69  SER69       0.2130
     47  OG         1.3610  -15.5430   14.5330 O.3    69  SER69      -0.2179
     48  N         -2.2800  -16.2310   16.3720 N.am   70  MET70      -0.1962
     49  CA        -3.0280  -17.4620   16.4630 C.3    70  MET70       0.1736
     50  C         -2.9040  -18.2940   15.2100 C.2    70  MET70       0.2617
     51  O         -2.9280  -19.5450   15.3160 O.2    70  MET70      -0.2715
     52  CB        -4.4490  -17.1830   16.8170 C.3    70  MET70       0.0427
     53  CG        -4.7840  -16.3530   18.0330 C.3    70  MET70       0.0599
     54  SD        -4.0980  -17.0610   19.5360 S.3    70  MET70      -0.1393
     55  CE        -5.1280  -18.3540   19.8120 C.3    70  MET70       0.0692
     56  N         -2.8850  -17.6920   14.0420 N.am   71  GLY71      -0.1940
     57  CA        -2.9390  -18.4310   12.8010 C.3    71  GLY71       0.2014
     58  C         -4.2920  -18.9300   12.3900 C.2    71  GLY71       0.2638
     59  O         -4.3660  -19.9540   11.6510 O.2    71  GLY71      -0.2714
     60  N         -5.3540  -18.2190   12.7600 N.am   72  LEU72      -0.1977
     61  CA        -6.6760  -18.5890   12.4250 C.3    72  LEU72       0.1596
     62  C         -7.0760  -20.0130   12.7540 C.2    72  LEU72       0.2287
     63  O         -7.7320  -20.6900   11.8950 O.2    72  LEU72      -0.2864
     64  CB        -7.0250  -18.1380   10.9760 C.3    72  LEU72       0.0297
     65  CG        -8.5560  -17.8780   10.8510 C.3    72  LEU72       0.0022
     66  CD1       -9.0280  -16.5220   11.1980 C.3    72  LEU72       0.0001
     67  CD2       -9.0620  -18.1810    9.4900 C.3    72  LEU72       0.0001
     68  N        -12.9590  -15.1310    7.0920 N.3   100  SER100     -0.1217
     69  CA       -11.6480  -14.6950    6.6760 C.3   100  SER100      0.1889
     70  C        -11.0340  -15.7880    5.8460 C.2   100  SER100      0.2288
     71  O        -10.1130  -16.4160    6.2180 O.2   100  SER100     -0.2866
     72  CB       -10.7220  -14.3780    7.8950 C.3   100  SER100      0.2089
     73  OG        -9.8310  -13.4310    7.3830 O.3   100  SER100     -0.2183
     74  N         -8.9500  -17.6410    2.7490 N.3   102  LEU102     -0.1245
     75  CA        -7.5440  -17.5250    2.2420 C.3   102  LEU102      0.1561
     76  C         -7.4430  -16.8510    0.8420 C.2   102  LEU102      0.2260
     77  O         -6.3430  -16.4310    0.4340 O.2   102  LEU102     -0.2867
     78  CB        -6.9730  -18.9360    2.0730 C.3   102  LEU102      0.0270
     79  CG        -7.0720  -20.0370    3.1460 C.3   102  LEU102      0.0019
     80  CD1       -7.3650  -21.4490    2.5650 C.3   102  LEU102      0.0001
     81  CD2       -5.7630  -20.0010    3.9220 C.3   102  LEU102      0.0001
     82  N        -13.6360  -10.2340    7.5570 N.3   128  ASN128     -0.1240
     83  CA       -12.3340   -9.8410    8.0800 C.3   128  ASN128      0.1653
     84  C        -11.3430   -9.6150    6.9900 C.2   128  ASN128      0.2266
     85  O        -10.9350  -10.6340    6.4190 O.2   128  ASN128     -0.2867
     86  CB       -11.8540  -10.9160    9.0480 C.3   128  ASN128      0.1155
     87  CG       -10.5090  -10.6380    9.6850 C.2   128  ASN128      0.2627
     88  OD1       -9.8700   -9.6610    9.3840 O.2   128  ASN128     -0.2716
     89  ND2      -10.0260  -11.5840   10.4880 N.am  128  ASN128     -0.0877
     90  N         -8.2760   -8.5330    7.1450 N.3   130  SER130     -0.1202
     91  CA        -6.8790   -8.8600    7.5480 C.3   130  SER130      0.2020
     92  C         -6.5280  -10.2370    7.0970 C.2   130  SER130      0.2619
     93  O         -6.2910  -11.1360    7.8320 O.2   130  SER130     -0.2717
     94  CB        -6.6790   -8.6240    9.0690 C.3   130  SER130      0.2103
     95  OG        -6.7240   -7.2110    9.2640 O.3   130  SER130     -0.2182
     96  N         -6.5920  -10.4460    5.8070 N.am  131  CYS131     -0.1956
     97  CA        -6.5440  -11.8160    5.2690 C.3   131  CYS131      0.1828
     98  C         -5.4930  -11.8380    4.1630 C.2   131  CYS131      0.2467
     99  O         -5.0430  -10.7570    3.6220 O.2   131  CYS131     -0.2730
    100  CB        -7.9680  -12.2630    4.8350 C.3   131  CYS131      0.0996
    101  SG        -8.7170  -11.1170    3.6200 S.3   131  CYS131     -0.0797
    102  N         -5.0690  -13.0740    3.8290 N.am  132  PRO132     -0.2726
    103  CA        -3.9930  -13.3190    2.9250 C.3   132  PRO132      0.1402
    104  C         -4.2330  -12.7250    1.5530 C.2   132  PRO132      0.2269
    105  O         -5.3800  -12.7670    0.9980 O.2   132  PRO132     -0.2865
    106  CB        -3.9990  -14.8840    2.7600 C.3   132  PRO132      0.0296
    107  CG        -4.6430  -15.4380    3.9530 C.3   132  PRO132      0.0237
    108  CD        -5.4400  -14.3060    4.5780 C.3   132  PRO132      0.0939
    109  N         -8.9350   -4.1310   14.0770 N.3   195  ASN195     -0.1225
    110  CA        -8.1630   -5.3200   14.3740 C.3   195  ASN195      0.1785
    111  C         -6.8910   -5.0030   15.1530 C.2   195  ASN195      0.2597
    112  O         -6.5860   -3.8200   15.4180 O.2   195  ASN195     -0.2718
    113  CB        -7.8930   -6.0610   13.0210 C.3   195  ASN195      0.1169
    114  CG        -7.8870   -7.5870   13.1810 C.2   195  ASN195      0.2627
    115  OD1       -7.3050   -8.1320   14.1280 O.2   195  ASN195     -0.2716
    116  ND2       -8.5350   -8.2980   12.2240 N.am  195  ASN195     -0.0877
    117  N         -6.1540   -6.0220   15.5410 N.am  196  SER196     -0.1952
    118  CA        -4.9150   -5.8230   16.2720 C.3   196  SER196      0.1924
    119  C         -3.9170   -4.9730   15.4990 C.2   196  SER196      0.2314
    120  O         -3.9370   -4.8670   14.2530 O.2   196  SER196     -0.2863
    121  CB        -4.3750   -7.2190   16.7200 C.3   196  SER196      0.2116
    122  OG        -4.2000   -8.0320   15.6050 O.3   196  SER196     -0.2180
    123  N          0.0800   -9.5940   16.5390 N.3   220  GLY220     -0.1225
    124  CA        -0.8140   -8.4480   16.6660 C.3   220  GLY220      0.1811
    125  C         -0.9670   -8.0640   18.1030 C.2   220  GLY220      0.2280
    126  O         -1.2280   -8.8870   18.9670 O.2   220  GLY220     -0.2866
@<TRIPOS>BOND
     1    77    76    2
     2    76    75    1
     3   105   104    2
     4   104   103    1
     5    78    75    1
     6    78    79    1
     7    75    74    1
     8    80    79    1
     9   106   103    1
    10   106   107    1
    11   103   102    1
    12    79    81    1
    13   101   100    1
    14    99    98    2
    15   102    98   am
    16   102   108    1
    17   107   108    1
    18    98    97    1
    19   100    97    1
    20    97    96    1
    21    96    92   am
    22    70    71    2
    23    70    69    1
    24    18    17    1
    25    18    19    2
    26    85    84    2
    27    20    17    1
    28    20    22    1
    29    20    21    1
    30    17    16    1
    31    69    68    1
    32    69    72    1
    33    84    83    1
    34    92    91    1
    35    92    93    2
    36    90    91    1
    37    32    31    1
    38    73    72    1
    39    91    94    1
    40    82    83    1
    41    83    86    1
    42    31    33    1
    43    31    30    2
    44    29    28    1
    45    29    30    1
    46    28    27    1
    47    86    87    1
    48    94    95    1
    49    88    87    2
    50    67    65    1
    51    87    89   am
    52    27    24    1
    53    23    24    1
    54    65    64    1
    55    65    66    1
    56    24    25    1
    57    64    61    1
    58    12    11    1
    59    12    13    2
    60    14    15    1
    61    14    11    1
    62    59    58    2
    63    11    10    1
    64    63    62    2
    65   116   114   am
    66    25    26    2
    67    58    60   am
    68    58    57    1
    69    61    62    1
    70    61    60    1
    71    57    56    1
    72   113   114    1
    73   113   110    1
    74     4     3    2
    75   114   115    2
    76    10     3   am
    77     3     2    1
    78    56    50   am
    79   109   110    1
    80   120   119    2
    81   110   111    1
    82    47    46    1
    83     8     9    1
    84     8     7    1
    85     6     7    2
    86     6     5    1
    87   111   112    2
    88   111   117   am
    89    50    51    2
    90    50    49    1
    91     2     5    1
    92     2     1    1
    93   119   118    1
    94   117   118    1
    95   122   121    1
    96    46    43    1
    97    45    44    2
    98    44    43    1
    99    44    48   am
   100    43    42    1
   101   118   121    1
   102    48    49    1
   103    49    52    1
   104   123   124    1
   105   124   125    1
   106    52    53    1
   107    37    36    2
   108    40    39    2
   109    42    36   am
   110    36    35    1
   111    53    54    1
   112   125   126    2
   113    39    41   am
   114    39    38    1
   115    35    38    1
   116    35    34    1
   117    54    55    1
