@<TRIPOS>MOLECULE
tmp/3w2nB00.pdb
 119 111 0 0 0
SMALL
GASTEIGER

@<TRIPOS>ATOM
      1  N        -15.6870  -16.7840   15.5280 N.3    44  LYS44      -0.1231
      2  CA       -14.2710  -16.7440   15.1170 C.3    44  LYS44       0.1693
      3  C        -14.2270  -16.5900   13.5800 C.2    44  LYS44       0.2592
      4  O        -15.0140  -17.2540   12.9040 O.2    44  LYS44      -0.2718
      5  CB       -13.6060  -18.0860   15.5350 C.3    44  LYS44       0.0285
      6  CG       -12.2280  -18.3120   14.9580 C.3    44  LYS44       0.0035
      7  CD       -11.1530  -17.4330   15.6180 C.3    44  LYS44       0.0206
      8  CE        -9.9020  -17.3360   14.7350 C.3    44  LYS44       0.1093
      9  NZ        -8.7780  -16.3820   15.1560 N.3    44  LYS44      -0.1314
     10  N        -13.3490  -15.7490   13.0230 N.am   45  SER45      -0.1952
     11  CA       -13.2290  -15.6760   11.5370 C.3    45  SER45       0.1924
     12  C        -12.8800  -17.0420   10.9680 C.2    45  SER45       0.2314
     13  O        -12.0130  -17.7290   11.5080 O.2    45  SER45      -0.2863
     14  CB       -12.1500  -14.6810   11.1160 C.3    45  SER45       0.2116
     15  OG       -12.4730  -13.4160   11.6080 O.3    45  SER45      -0.2180
     16  N         -8.8690  -25.3120   10.5090 N.3    51  ARG51      -0.1245
     17  CA        -7.4490  -25.0650   10.6550 C.3    51  ARG51       0.1563
     18  C         -7.0800  -25.2970   12.1040 C.2    51  ARG51       0.2260
     19  O         -7.8260  -24.9080   13.0090 O.2    51  ARG51      -0.2867
     20  CB        -7.0830  -23.6230   10.2750 C.3    51  ARG51       0.0307
     21  CG        -7.3200  -23.2600    8.8320 C.3    51  ARG51       0.0489
     22  CD        -7.2300  -21.7710    8.6230 C.3    51  ARG51       0.2205
     23  NE        -5.9350  -21.2310    9.0360 N.pl3  51  ARG51      -0.0865
     24  CZ        -4.8740  -21.1510    8.2540 C.cat  51  ARG51       0.5346
     25  NH1       -4.9730  -21.5470    7.0020 N.pl3  51  ARG51       0.1354
     26  NH2       -3.7290  -20.6060    8.6990 N.pl3  51  ARG51       0.1354
     27  N         -0.6320  -11.7260   19.6870 N.3    68  ASN68      -0.1225
     28  CA        -1.0710  -12.9710   19.1770 C.3    68  ASN68       0.1785
     29  C         -0.6370  -13.1370   17.7330 C.2    68  ASN68       0.2598
     30  O         -0.6350  -12.1560   16.9280 O.2    68  ASN68      -0.2718
     31  CB        -2.6230  -13.2200   19.3040 C.3    68  ASN68       0.1169
     32  CG        -3.4140  -12.6610   18.1450 C.2    68  ASN68       0.2627
     33  OD1       -3.5320  -13.2960   17.0950 O.2    68  ASN68      -0.2716
     34  ND2       -3.8950  -11.4430   18.2910 N.am   68  ASN68      -0.0877
     35  N         -0.3370  -14.4350   17.4380 N.am   69  SER69      -0.1938
     36  CA        -0.1980  -14.8610   16.0630 C.3    69  SER69       0.2055
     37  C         -0.8530  -16.2540   16.0130 C.2    69  SER69       0.2643
     38  O         -0.2070  -17.3160   15.9320 O.2    69  SER69      -0.2714
     39  CB         1.2620  -14.7010   15.5870 C.3    69  SER69       0.2130
     40  OG         1.5160  -15.8030   14.7160 O.3    69  SER69      -0.2179
     41  N         -2.1850  -16.2250   16.1420 N.am   70  MET70      -0.1962
     42  CA        -2.9430  -17.4820   16.3540 C.3    70  MET70       0.1736
     43  C         -2.8720  -18.3630   15.0930 C.2    70  MET70       0.2617
     44  O         -2.8600  -19.5640   15.2080 O.2    70  MET70      -0.2715
     45  CB        -4.4160  -17.2190   16.6910 C.3    70  MET70       0.0427
     46  CG        -4.7190  -16.3390   17.8700 C.3    70  MET70       0.0599
     47  SD        -4.1020  -17.0860   19.3430 S.3    70  MET70      -0.1393
     48  CE        -5.2930  -18.3630   19.6580 C.3    70  MET70       0.0692
     49  N         -2.8490  -17.7510   13.9160 N.am   71  GLY71      -0.1940
     50  CA        -2.8860  -18.4850   12.6240 C.3    71  GLY71       0.2014
     51  C         -4.2420  -18.9560   12.1790 C.2    71  GLY71       0.2638
     52  O         -4.3600  -19.9640   11.4670 O.2    71  GLY71      -0.2714
     53  N         -5.2770  -18.2700   12.6590 N.am   72  LEU72      -0.1977
     54  CA        -6.6370  -18.5590   12.3570 C.3    72  LEU72       0.1596
     55  C         -7.0710  -20.0030   12.5950 C.2    72  LEU72       0.2287
     56  O         -7.5790  -20.6580   11.6730 O.2    72  LEU72      -0.2864
     57  CB        -6.9660  -18.1090   10.9360 C.3    72  LEU72       0.0297
     58  CG        -8.4810  -17.8990   10.7920 C.3    72  LEU72       0.0022
     59  CD1       -8.8540  -16.5080   11.1360 C.3    72  LEU72       0.0001
     60  CD2       -8.9460  -18.0350    9.3600 C.3    72  LEU72       0.0001
     61  N        -13.0760  -15.0470    6.8640 N.3   100  SER100     -0.1217
     62  CA       -11.8020  -14.6220    6.3840 C.3   100  SER100      0.1889
     63  C        -11.0820  -15.6610    5.5060 C.2   100  SER100      0.2288
     64  O        -10.1050  -16.1880    5.8900 O.2   100  SER100     -0.2866
     65  CB       -10.9230  -14.1630    7.5280 C.3   100  SER100      0.2089
     66  OG       -10.0530  -13.1840    7.1180 O.3   100  SER100     -0.2183
     67  N         -8.8650  -17.4200    2.5520 N.3   102  LEU102     -0.1245
     68  CA        -7.5470  -17.2630    1.9780 C.3   102  LEU102      0.1561
     69  C         -7.5260  -16.6420    0.5750 C.2   102  LEU102      0.2260
     70  O         -6.5170  -16.1990    0.1220 O.2   102  LEU102     -0.2867
     71  CB        -6.7530  -18.5630    2.0180 C.3   102  LEU102      0.0270
     72  CG        -6.5700  -19.2560    3.3780 C.3   102  LEU102      0.0019
     73  CD1       -5.7330  -20.5050    3.3530 C.3   102  LEU102      0.0001
     74  CD2       -6.2240  -18.3730    4.5230 C.3   102  LEU102      0.0001
     75  N        -13.6970  -10.2090    7.3330 N.3   128  ASN128     -0.1240
     76  CA       -12.3990   -9.8380    7.8870 C.3   128  ASN128      0.1653
     77  C        -11.3480   -9.5540    6.8190 C.2   128  ASN128      0.2266
     78  O        -10.7440  -10.4270    6.3320 O.2   128  ASN128     -0.2867
     79  CB       -11.8820  -10.8800    8.8680 C.3   128  ASN128      0.1155
     80  CG       -10.4810  -10.5850    9.4360 C.2   128  ASN128      0.2627
     81  OD1       -9.8460   -9.6400    9.1220 O.2   128  ASN128     -0.2716
     82  ND2      -10.0680  -11.4350   10.3190 N.am  128  ASN128     -0.0877
     83  N         -8.2890   -8.3300    7.0300 N.3   130  SER130     -0.1202
     84  CA        -6.9180   -8.5860    7.3400 C.3   130  SER130      0.2020
     85  C         -6.5090   -9.9980    6.9140 C.2   130  SER130      0.2619
     86  O         -5.9960  -10.7300    7.6480 O.2   130  SER130     -0.2717
     87  CB        -6.6980   -8.3870    8.8420 C.3   130  SER130      0.2103
     88  OG        -6.6620   -7.0500    9.0810 O.3   130  SER130     -0.2182
     89  N         -6.7820  -10.3220    5.6840 N.am  131  CYS131     -0.1956
     90  CA        -6.6170  -11.6460    5.1750 C.3   131  CYS131      0.1828
     91  C         -5.4580  -11.6960    4.1630 C.2   131  CYS131      0.2467
     92  O         -5.0630  -10.6990    3.6140 O.2   131  CYS131     -0.2730
     93  CB        -7.9130  -12.1810    4.5710 C.3   131  CYS131      0.0996
     94  SG        -8.6980  -11.1030    3.3730 S.3   131  CYS131     -0.0797
     95  N         -4.9110  -12.9750    3.9650 N.am  132  PRO132     -0.2726
     96  CA        -3.7320  -12.9790    3.0910 C.3   132  PRO132      0.1402
     97  C         -3.9770  -12.6340    1.6250 C.2   132  PRO132      0.2269
     98  O         -5.0370  -12.7770    1.1370 O.2   132  PRO132     -0.2865
     99  CB        -3.1330  -14.3750    3.2440 C.3   132  PRO132      0.0296
    100  CG        -4.2180  -15.2390    3.6540 C.3   132  PRO132      0.0237
    101  CD        -5.0580  -14.4090    4.5290 C.3   132  PRO132      0.0939
    102  N         -8.9540   -4.0580   13.9320 N.3   195  ASN195     -0.1225
    103  CA        -8.1490   -5.2690   14.2170 C.3   195  ASN195      0.1785
    104  C         -6.8820   -4.9570   15.0050 C.2   195  ASN195      0.2597
    105  O         -6.5950   -3.7680   15.2400 O.2   195  ASN195     -0.2718
    106  CB        -7.7840   -6.0130   12.9120 C.3   195  ASN195      0.1169
    107  CG        -7.8190   -7.5470   13.0650 C.2   195  ASN195      0.2627
    108  OD1       -7.2870   -8.1390   14.0450 O.2   195  ASN195     -0.2716
    109  ND2       -8.3680   -8.2110   12.0400 N.am  195  ASN195     -0.0877
    110  N         -6.1680   -6.0010   15.4020 N.am  196  SER196     -0.1952
    111  CA        -4.9190   -5.8850   16.1730 C.3   196  SER196      0.1924
    112  C         -3.8830   -5.0310   15.4260 C.2   196  SER196      0.2314
    113  O         -3.8790   -4.9170   14.1470 O.2   196  SER196     -0.2863
    114  CB        -4.3980   -7.2820   16.5920 C.3   196  SER196      0.2116
    115  OG        -4.1210   -8.0330   15.4490 O.3   196  SER196     -0.2180
    116  N          0.0600   -9.5720   16.3940 N.3   220  GLY220     -0.1225
    117  CA        -0.7910   -8.4550   16.4890 C.3   220  GLY220      0.1811
    118  C         -0.9770   -7.9970   17.9210 C.2   220  GLY220      0.2280
    119  O         -1.1410   -8.8090   18.8600 O.2   220  GLY220     -0.2866
@<TRIPOS>BOND
     1    70    69    2
     2    69    68    1
     3    98    97    2
     4    97    96    1
     5    68    71    1
     6    68    67    1
     7    71    72    1
     8    96    99    1
     9    96    95    1
    10    99   100    1
    11    73    72    1
    12    94    93    1
    13    72    74    1
    14    92    91    2
    15   100   101    1
    16    95    91   am
    17    95   101    1
    18    91    90    1
    19    93    90    1
    20    90    89    1
    21    63    64    2
    22    63    62    1
    23    89    85   am
    24    78    77    2
    25    62    61    1
    26    62    65    1
    27    77    76    1
    28    85    84    1
    29    85    86    2
    30    25    24    1
    31    83    84    1
    32    66    65    1
    33    75    76    1
    34    84    87    1
    35    76    79    1
    36    24    26    1
    37    24    23    2
    38    22    21    1
    39    22    23    1
    40    21    20    1
    41    87    88    1
    42    79    80    1
    43    81    80    2
    44    60    58    1
    45    80    82   am
    46    20    17    1
    47    16    17    1
    48    17    18    1
    49    58    57    1
    50    58    59    1
    51    57    54    1
    52    12    13    2
    53    12    11    1
    54    14    11    1
    55    14    15    1
    56    52    51    2
    57    11    10    1
    58    56    55    2
    59   109   107   am
    60    18    19    2
    61    51    50    1
    62    51    53   am
    63    54    55    1
    64    54    53    1
    65    50    49    1
    66     4     3    2
    67   106   107    1
    68   106   103    1
    69    10     3   am
    70   107   108    2
    71     3     2    1
    72    49    43   am
    73   102   103    1
    74   113   112    2
    75   103   104    1
    76    40    39    1
    77     8     9    1
    78     8     7    1
    79     6     5    1
    80     6     7    1
    81   104   105    2
    82   104   110   am
    83    43    44    2
    84    43    42    1
    85     2     1    1
    86     2     5    1
    87   110   111    1
    88   112   111    1
    89   115   114    1
    90    39    36    1
    91    38    37    2
    92    37    36    1
    93    37    41   am
    94    36    35    1
    95    41    42    1
    96   111   114    1
    97    42    45    1
    98   116   117    1
    99   117   118    1
   100    45    46    1
   101    30    29    2
   102    33    32    2
   103    35    29   am
   104    29    28    1
   105    46    47    1
   106   118   119    2
   107    32    34   am
   108    32    31    1
   109    28    31    1
   110    28    27    1
   111    47    48    1
