@<TRIPOS>MOLECULE
tmp/3w2oA00.pdb
 165 153 0 0 0
SMALL
GASTEIGER

@<TRIPOS>ATOM
      1  N        -45.1040    5.6670  -18.1730 N.3    22  LEU22      -0.1231
      2  CA       -45.8730    4.5210  -17.7050 C.3    22  LEU22       0.1693
      3  C        -45.0400    3.2580  -17.8140 C.2    22  LEU22       0.2593
      4  O        -45.0420    2.4270  -16.9140 O.2    22  LEU22      -0.2718
      5  CB       -47.1860    4.3670  -18.4870 C.3    22  LEU22       0.0284
      6  CG       -48.3690    5.2590  -18.0860 C.3    22  LEU22       0.0019
      7  CD1      -49.5070    5.0900  -19.0680 C.3    22  LEU22       0.0001
      8  CD2      -48.8570    4.9710  -16.6690 C.3    22  LEU22       0.0001
      9  N        -44.3190    3.1330  -18.9210 N.am   23  GLY23      -0.1942
     10  CA       -43.4670    1.9780  -19.1920 C.3    23  GLY23       0.2014
     11  C        -42.6760    2.2230  -20.4640 C.2    23  GLY23       0.2640
     12  O        -42.8720    3.2330  -21.1340 O.2    23  GLY23      -0.2714
     13  N        -41.7680    1.3110  -20.7920 N.am   24  SER24      -0.1935
     14  CA       -41.0230    1.3910  -22.0440 C.3    24  SER24       0.2055
     15  C        -40.8000   -0.0000  -22.6150 C.2    24  SER24       0.2643
     16  O        -40.4910   -0.9460  -21.8820 O.2    24  SER24      -0.2714
     17  CB       -39.6940    2.1360  -21.8690 C.3    24  SER24       0.2130
     18  OG       -38.7760    1.3710  -21.1180 O.3    24  SER24      -0.2179
     19  N        -40.9890   -0.1140  -23.9260 N.am   25  GLY25      -0.1954
     20  CA       -40.8030   -1.3710  -24.6320 C.3    25  GLY25       0.1869
     21  C        -39.7400   -1.2210  -25.6920 C.2    25  GLY25       0.2309
     22  O        -39.0040   -0.2260  -25.7130 O.2    25  GLY25      -0.2863
     23  N        -40.0750   -0.6870  -28.8710 N.3    27  PHE27      -0.1241
     24  CA       -40.3480    0.2740  -29.9330 C.3    27  PHE27       0.1605
     25  C        -40.4310    1.7240  -29.4720 C.2    27  PHE27       0.2264
     26  O        -40.3830    2.6380  -30.3020 O.2    27  PHE27      -0.2867
     27  CB       -41.5630   -0.1590  -30.7470 C.3    27  PHE27       0.0534
     28  CG       -41.4210   -1.5310  -31.3270 C.ar   27  PHE27      -0.0203
     29  CD1      -42.0880   -2.6120  -30.7560 C.ar   27  PHE27      -0.0042
     30  CD2      -40.5800   -1.7550  -32.4140 C.ar   27  PHE27      -0.0042
     31  CE1      -41.9400   -3.8910  -31.2800 C.ar   27  PHE27      -0.0003
     32  CE2      -40.4310   -3.0280  -32.9450 C.ar   27  PHE27      -0.0003
     33  CZ       -41.1100   -4.0980  -32.3780 C.ar   27  PHE27      -0.0000
     34  N        -43.8550    4.6880  -23.4650 N.3    30  VAL30      -0.1245
     35  CA       -45.2550    5.0660  -23.2560 C.3    30  VAL30       0.1561
     36  C        -45.3950    6.0430  -22.0830 C.2    30  VAL30       0.2260
     37  O        -44.9040    5.7710  -20.9810 O.2    30  VAL30      -0.2867
     38  CB       -46.1420    3.8450  -22.9490 C.3    30  VAL30       0.0252
     39  CG1      -47.5940    4.2790  -22.7740 C.3    30  VAL30       0.0019
     40  CG2      -46.0200    2.7840  -24.0400 C.3    30  VAL30       0.0019
     41  N        -52.7290    7.5840  -23.0240 N.3    47  ALA47      -0.1245
     42  CA       -51.4130    6.9760  -23.0580 C.3    47  ALA47       0.1562
     43  C        -50.8350    7.3540  -24.4270 C.2    47  ALA47       0.2260
     44  O        -51.5540    7.3370  -25.4330 O.2    47  ALA47      -0.2867
     45  CB       -51.5120    5.4630  -22.9010 C.3    47  ALA47       0.0290
     46  N        -47.5240    6.7120  -26.9820 N.3    49  LYS49      -0.1245
     47  CA       -46.3110    5.9830  -27.3400 C.3    49  LYS49       0.1561
     48  C        -45.4900    6.8070  -28.3280 C.2    49  LYS49       0.2260
     49  O        -46.0000    7.1990  -29.3790 O.2    49  LYS49      -0.2867
     50  CB       -46.6170    4.5820  -27.9010 C.3    49  LYS49       0.0271
     51  CG       -45.3370    3.8170  -28.2610 C.3    49  LYS49       0.0035
     52  CD       -45.4050    2.3270  -27.9650 C.3    49  LYS49       0.0206
     53  CE       -44.0270    1.7970  -27.5670 C.3    49  LYS49       0.1093
     54  NZ       -43.9780    0.3270  -27.3210 N.3    49  LYS49      -0.1314
     55  N        -42.3320    6.4630  -30.5930 N.3    51  LEU51      -0.1245
     56  CA       -41.4430    5.4820  -31.2030 C.3    51  LEU51       0.1561
     57  C        -39.9740    5.9330  -31.1490 C.2    51  LEU51       0.2260
     58  O        -39.6840    7.1230  -31.1960 O.2    51  LEU51      -0.2867
     59  CB       -41.8730    5.1870  -32.6430 C.3    51  LEU51       0.0270
     60  CG       -43.3080    4.6830  -32.8490 C.3    51  LEU51       0.0019
     61  CD1      -43.5460    4.3190  -34.3080 C.3    51  LEU51       0.0001
     62  CD2      -43.6170    3.5110  -31.9320 C.3    51  LEU51       0.0001
     63  N        -46.2060   -1.1430  -37.1970 N.3    63  ILE63      -0.1245
     64  CA       -46.8850   -0.3310  -36.1790 C.3    63  ILE63       0.1561
     65  C        -48.0690    0.4410  -36.7760 C.2    63  ILE63       0.2260
     66  O        -49.1580    0.4570  -36.1820 O.2    63  ILE63      -0.2867
     67  CB       -45.9030    0.6340  -35.5000 C.3    63  ILE63       0.0252
     68  CG1      -44.9130   -0.1690  -34.6540 C.3    63  ILE63       0.0019
     69  CG2      -46.6250    1.6820  -34.6530 C.3    63  ILE63       0.0019
     70  CD1      -43.5760    0.5240  -34.5070 C.3    63  ILE63       0.0001
     71  N        -50.9190   -1.7770  -37.3900 N.3    66  GLU66      -0.1231
     72  CA       -51.6610   -1.9830  -36.1420 C.3    66  GLU66       0.1699
     73  C        -52.5880   -0.8130  -35.7940 C.2    66  GLU66       0.2592
     74  O        -53.7110   -1.0320  -35.3290 O.2    66  GLU66      -0.2718
     75  CB       -50.7310   -2.2850  -34.9640 C.3    66  GLU66       0.0402
     76  CG       -51.4840   -2.5760  -33.6690 C.3    66  GLU66       0.1161
     77  CD       -50.6260   -3.1920  -32.5680 C.2    66  GLU66       0.3649
     78  OE1      -51.1870   -3.4980  -31.5030 O.co2  66  GLU66      -0.2457
     79  OE2      -49.4060   -3.3770  -32.7490 O.co2  66  GLU66      -0.2457
     80  N        -52.1250    0.4220  -36.0180 N.am   67  ALA67      -0.1980
     81  CA       -52.9650    1.6060  -35.7880 C.3    67  ALA67       0.1597
     82  C        -54.1720    1.6270  -36.7460 C.2    67  ALA67       0.2287
     83  O        -55.2720    2.0200  -36.3530 O.2    67  ALA67      -0.2864
     84  CB       -52.1560    2.8820  -35.9170 C.3    67  ALA67       0.0319
     85  N        -56.6730   -0.6940  -35.1230 N.3    70  MET70      -0.1245
     86  CA       -57.2460   -0.0210  -33.9550 C.3    70  MET70       0.1570
     87  C        -58.1680    1.1030  -34.3230 C.2    70  MET70       0.2261
     88  O        -59.1480    1.3160  -33.6330 O.2    70  MET70      -0.2867
     89  CB       -56.1710    0.5370  -33.0410 C.3    70  MET70       0.0387
     90  CG       -55.3080   -0.5310  -32.4160 C.3    70  MET70       0.0595
     91  SD       -54.0510    0.2520  -31.3910 S.3    70  MET70      -0.1393
     92  CE       -53.3790   -1.1940  -30.5480 C.3    70  MET70       0.0692
     93  N        -48.3070    7.5460  -31.1380 N.3    92  LEU92      -0.1245
     94  CA       -49.6690    7.0110  -31.1160 C.3    92  LEU92       0.1561
     95  C        -50.3540    7.3960  -29.8300 C.2    92  LEU92       0.2260
     96  O        -49.7770    7.2550  -28.7550 O.2    92  LEU92      -0.2867
     97  CB       -49.6570    5.4850  -31.2490 C.3    92  LEU92       0.0270
     98  CG       -49.0690    4.9630  -32.5750 C.3    92  LEU92       0.0019
     99  CD1      -47.5840    4.6650  -32.4140 C.3    92  LEU92       0.0001
    100  CD2      -49.8050    3.7090  -33.0230 C.3    92  LEU92       0.0001
    101  N        -53.6080    6.8380  -27.3580 N.3    94  MET94      -0.1230
    102  CA       -54.7110    5.9470  -27.0010 C.3    94  MET94       0.1702
    103  C        -55.3410    6.3810  -25.6890 C.2    94  MET94       0.2592
    104  O        -54.7600    7.1780  -24.9470 O.2    94  MET94      -0.2718
    105  CB       -54.2100    4.5130  -26.9010 C.3    94  MET94       0.0401
    106  CG       -53.6130    4.0330  -28.2270 C.3    94  MET94       0.0596
    107  SD       -53.3860    2.2510  -28.2560 S.3    94  MET94      -0.1393
    108  CE       -55.1010    1.7170  -28.2400 C.3    94  MET94       0.0692
    109  N        -56.5350    5.8670  -25.4200 N.am   95  GLN95      -0.1966
    110  CA       -57.2300    6.0880  -24.1530 C.3    95  GLN95       0.1733
    111  C        -56.3810    5.5520  -23.0050 C.2    95  GLN95       0.2616
    112  O        -55.8610    4.4270  -23.1010 O.2    95  GLN95      -0.2715
    113  CB       -58.5850    5.3600  -24.1880 C.3    95  GLN95       0.0408
    114  CG       -59.3370    5.3200  -22.8640 C.3    95  GLN95       0.0908
    115  CD       -60.6770    4.5990  -22.9460 C.2    95  GLN95       0.2608
    116  OE1      -60.8670    3.6490  -23.7380 O.2    95  GLN95      -0.2717
    117  NE2      -61.6130    5.0340  -22.1120 N.am   95  GLN95      -0.0878
    118  N        -56.2540    6.3360  -21.9240 N.am   96  LEU96      -0.1963
    119  CA       -55.5400    5.8860  -20.7330 C.3    96  LEU96       0.1728
    120  C        -56.3390    4.7920  -20.0230 C.2    96  LEU96       0.2616
    121  O        -57.5450    4.9290  -19.8050 O.2    96  LEU96      -0.2715
    122  CB       -55.2370    7.0520  -19.7730 C.3    96  LEU96       0.0311
    123  CG       -54.4940    6.7450  -18.4380 C.3    96  LEU96       0.0022
    124  CD1      -53.0880    6.1990  -18.6500 C.3    96  LEU96       0.0001
    125  CD2      -54.4310    7.9360  -17.4750 C.3    96  LEU96       0.0001
    126  N        -55.6660    3.7020  -19.6660 N.am   97  MET97      -0.1964
    127  CA       -56.3190    2.5990  -18.9580 C.3    97  MET97       0.1722
    128  C        -55.5540    2.4920  -17.6440 C.2    97  MET97       0.2458
    129  O        -54.5340    1.7730  -17.5410 O.2    97  MET97      -0.2730
    130  CB       -56.2720    1.3080  -19.7900 C.3    97  MET97       0.0427
    131  CG       -56.8670    1.4390  -21.2040 C.3    97  MET97       0.0599
    132  SD       -58.6680    1.5940  -21.1680 S.3    97  MET97      -0.1393
    133  CE       -59.1620   -0.1220  -21.0420 C.3    97  MET97       0.0692
    134  N        -56.0150    3.2570  -16.6380 N.am   98  PRO98      -0.2727
    135  CA       -55.1070    3.5350  -15.5170 C.3    98  PRO98       0.1402
    136  C        -54.7360    2.3110  -14.6680 C.2    98  PRO98       0.2269
    137  O        -53.7210    2.3460  -13.9690 O.2    98  PRO98      -0.2865
    138  CB       -55.8430    4.6200  -14.6950 C.3    98  PRO98       0.0296
    139  CG       -57.2280    4.7210  -15.2490 C.3    98  PRO98       0.0237
    140  CD       -57.2330    4.0930  -16.6200 C.3    98  PRO98       0.0939
    141  N        -53.7050   -0.6580  -15.7870 N.3   100  GLY100     -0.1210
    142  CA       -52.7210   -1.5180  -16.4800 C.3   100  GLY100      0.1956
    143  C        -53.3130   -2.7860  -17.1020 C.2   100  GLY100      0.2612
    144  O        -54.5290   -2.8700  -17.3080 O.2   100  GLY100     -0.2717
    145  N        -52.4660   -3.7770  -17.3970 N.am  101  CYS101     -0.1970
    146  CA       -52.9430   -5.0340  -18.0050 C.3   101  CYS101      0.1712
    147  C        -53.6180   -5.9570  -16.9730 C.2   101  CYS101      0.2296
    148  O        -53.3020   -5.9230  -15.7720 O.2   101  CYS101     -0.2864
    149  CB       -51.8290   -5.7530  -18.8060 C.3   101  CYS101      0.0983
    150  SG       -50.4640   -6.4680  -17.8600 S.3   101  CYS101     -0.0798
    151  N        -56.7220   -4.6500  -21.1650 N.3   148  LEU148     -0.1245
    152  CA       -56.4130   -3.5180  -20.2830 C.3   148  LEU148      0.1561
    153  C        -57.5850   -3.2040  -19.3900 C.2   148  LEU148      0.2260
    154  O        -58.7160   -3.5010  -19.7420 O.2   148  LEU148     -0.2867
    155  CB       -55.9860   -2.2870  -21.0900 C.3   148  LEU148      0.0270
    156  CG       -54.6570   -2.4410  -21.8510 C.3   148  LEU148      0.0019
    157  CD1      -54.4130   -1.2570  -22.7690 C.3   148  LEU148      0.0001
    158  CD2      -53.4770   -2.6220  -20.9180 C.3   148  LEU148      0.0001
    159  N        -56.9090   -5.4690  -26.2470 N.3   158  THR158     -0.1218
    160  CA       -55.9350   -4.6840  -26.9790 C.3   158  THR158      0.1862
    161  C        -54.9060   -5.5470  -27.7170 C.2   158  THR158      0.2287
    162  O        -55.0680   -6.7790  -27.8150 O.2   158  THR158     -0.2866
    163  CB       -55.2550   -3.6250  -26.0750 C.3   158  THR158      0.1770
    164  OG1      -54.6210   -2.6420  -26.9090 O.3   158  THR158     -0.2211
    165  CG2      -54.2110   -4.2650  -25.1320 C.3   158  THR158      0.0375
@<TRIPOS>BOND
     1    71    72    1
     2    63    64    1
     3    65    66    2
     4    65    64    1
     5    82    83    2
     6    82    81    1
     7    64    67    1
     8    72    73    1
     9    72    75    1
    10    80    73   am
    11    80    81    1
    12    84    81    1
    13    73    74    2
    14    67    68    1
    15    67    69    1
    16    85    86    1
    17    75    76    1
    18    68    70    1
    19    87    86    1
    20    87    88    2
    21    61    60    1
    22    86    89    1
    23    76    77    1
    24    89    90    1
    25   100    98    1
    26    32    30   ar
    27    32    33   ar
    28    60    59    1
    29    60    62    1
    30    79    77   ar
    31    59    56    1
    32    98    99    1
    33    98    97    1
    34    77    78   ar
    35    90    91    1
    36    30    28   ar
    37    33    31   ar
    38    91    92    1
    39    28    29   ar
    40    28    27    1
    41    31    29   ar
    42    97    94    1
    43    56    57    1
    44    56    55    1
    45    58    57    2
    46    93    94    1
    47    94    95    1
    48    27    24    1
    49    26    25    2
    50    24    25    1
    51    24    23    1
    52    95    96    2
    53    49    48    2
    54    48    47    1
    55    51    52    1
    56    51    50    1
    57   107   108    1
    58   107   106    1
    59   106   105    1
    60    52    53    1
    61    50    47    1
    62   162   161    2
    63   161   160    1
    64    53    54    1
    65   101   102    1
    66    47    46    1
    67   102   105    1
    68   102   103    1
    69   160   159    1
    70   160   163    1
    71   164   163    1
    72   163   165    1
    73    22    21    2
    74    21    20    1
    75   103   109   am
    76   103   104    2
    77    44    43    2
    78   109   110    1
    79    20    19    1
    80    43    42    1
    81   113   110    1
    82   113   114    1
    83   110   111    1
    84    40    38    1
    85    19    15   am
    86   116   115    2
    87    34    35    1
    88    35    38    1
    89    35    36    1
    90   112   111    2
    91    42    41    1
    92    42    45    1
    93   111   118   am
    94    38    39    1
    95   115   114    1
    96   115   117   am
    97   157   156    1
    98    15    14    1
    99    15    16    2
   100    36    37    2
   101    14    17    1
   102    14    13    1
   103   118   119    1
   104    17    18    1
   105   156   155    1
   106   156   158    1
   107   131   132    1
   108   131   130    1
   109   132   133    1
   110   151   152    1
   111    12    11    2
   112   155   152    1
   113    13    11   am
   114   119   120    1
   115   119   122    1
   116    11    10    1
   117   152   153    1
   118   120   121    2
   119   120   126   am
   120   130   127    1
   121   122   123    1
   122   154   153    2
   123   126   127    1
   124    10     9    1
   125     7     6    1
   126   127   128    1
   127     9     3   am
   128   149   146    1
   129   149   150    1
   130   124   123    1
   131     5     6    1
   132     5     2    1
   133   123   125    1
   134     1     2    1
   135     6     8    1
   136   146   145    1
   137   146   147    1
   138     3     2    1
   139     3     4    2
   140   128   129    2
   141   128   134   am
   142   145   143   am
   143   144   143    2
   144   143   142    1
   145   147   148    2
   146   134   140    1
   147   134   135    1
   148   140   139    1
   149   142   141    1
   150   135   138    1
   151   135   136    1
   152   139   138    1
   153   136   137    2
