@<TRIPOS>MOLECULE
tmp/3w2pA00.pdb
 198 183 0 0 0
SMALL
GASTEIGER

@<TRIPOS>ATOM
      1  N        150.9340   18.4370   45.2300 N.3    22  LEU22      -0.1231
      2  CA       149.7720   17.9540   45.9760 C.3    22  LEU22       0.1693
      3  C        148.4420   18.2330   45.2810 C.2    22  LEU22       0.2592
      4  O        147.4520   17.5640   45.5580 O.2    22  LEU22      -0.2718
      5  CB       149.7190   18.5650   47.3790 C.3    22  LEU22       0.0284
      6  CG       150.7890   18.2180   48.4100 C.3    22  LEU22       0.0019
      7  CD1      150.5500   19.0360   49.6680 C.3    22  LEU22       0.0001
      8  CD2      150.8130   16.7250   48.7260 C.3    22  LEU22       0.0001
      9  N        148.4170   19.2350   44.4060 N.am   23  GLY23      -0.1957
     10  CA       147.1780   19.6770   43.7610 C.3    23  GLY23       0.1869
     11  C        147.4280   20.7660   42.7330 C.2    23  GLY23       0.2309
     12  O        148.4590   21.4440   42.7770 O.2    23  GLY23      -0.2863
     13  N        144.3240   28.8820   40.0830 N.3    27  PHE27      -0.1241
     14  CA       145.2110   29.9570   40.5140 C.3    27  PHE27       0.1605
     15  C        146.6850   29.5760   40.6740 C.2    27  PHE27       0.2264
     16  O        147.5270   30.4540   40.8590 O.2    27  PHE27      -0.2867
     17  CB       144.6670   30.6160   41.7890 C.3    27  PHE27       0.0534
     18  CG       143.2810   31.1820   41.6310 C.ar   27  PHE27      -0.0203
     19  CD1      142.1810   30.5240   42.1790 C.ar   27  PHE27      -0.0042
     20  CD2      143.0700   32.3600   40.9140 C.ar   27  PHE27      -0.0042
     21  CE1      140.9010   31.0380   42.0300 C.ar   27  PHE27      -0.0003
     22  CE2      141.7920   32.8780   40.7590 C.ar   27  PHE27      -0.0003
     23  CZ       140.7070   32.2160   41.3190 C.ar   27  PHE27      -0.0000
     24  N        149.9110   23.5540   44.1650 N.3    30  VAL30      -0.1245
     25  CA       150.2500   23.3640   45.5740 C.3    30  VAL30       0.1561
     26  C        151.2610   22.2360   45.7160 C.2    30  VAL30       0.2260
     27  O        151.0340   21.1180   45.2240 O.2    30  VAL30      -0.2867
     28  CB       149.0040   23.0760   46.4420 C.3    30  VAL30       0.0252
     29  CG1      149.3990   22.8880   47.9030 C.3    30  VAL30       0.0019
     30  CG2      147.9930   24.2070   46.3230 C.3    30  VAL30       0.0019
     31  N        152.5990   23.3170   53.1370 N.3    47  ALA47      -0.1245
     32  CA       152.0870   23.2990   51.7670 C.3    47  ALA47       0.1562
     33  C        152.4200   24.6690   51.1830 C.2    47  ALA47       0.2260
     34  O        152.3330   25.6920   51.8960 O.2    47  ALA47      -0.2867
     35  CB       150.5780   23.0410   51.7590 C.3    47  ALA47       0.0290
     36  N        151.6990   27.2050   47.8990 N.3    49  LYS49      -0.1245
     37  CA       150.9730   27.5830   46.6940 C.3    49  LYS49       0.1561
     38  C        151.7700   28.6140   45.9210 C.2    49  LYS49       0.2260
     39  O        152.0660   29.6930   46.4430 O.2    49  LYS49      -0.2867
     40  CB       149.5850   28.1410   47.0200 C.3    49  LYS49       0.0271
     41  CG       148.8510   28.5740   45.7660 C.3    49  LYS49       0.0035
     42  CD       147.3950   28.1800   45.7940 C.3    49  LYS49       0.0206
     43  CE       146.8400   28.1340   44.3820 C.3    49  LYS49       0.1093
     44  NZ       145.8210   27.0600   44.2840 N.3    49  LYS49      -0.1314
     45  N        151.4760   30.9030   42.7360 N.3    51  LEU51      -0.1245
     46  CA       150.4430   31.4310   41.8360 C.3    51  LEU51       0.1561
     47  C        150.9130   31.3830   40.3750 C.2    51  LEU51       0.2260
     48  O        152.1060   31.4890   40.0980 O.2    51  LEU51      -0.2867
     49  CB       150.0550   32.8620   42.2220 C.3    51  LEU51       0.0270
     50  CG       149.5580   33.0710   43.6530 C.3    51  LEU51       0.0019
     51  CD1      149.0920   34.5140   43.8250 C.3    51  LEU51       0.0001
     52  CD2      148.4450   32.0700   43.9690 C.3    51  LEU51       0.0001
     53  N        143.6660   37.4790   46.5000 N.3    63  ILE63      -0.1245
     54  CA       144.4260   36.4640   47.1960 C.3    63  ILE63       0.1561
     55  C        145.1770   37.0860   48.3810 C.2    63  ILE63       0.2260
     56  O        145.1780   36.5230   49.4810 O.2    63  ILE63      -0.2867
     57  CB       145.3510   35.7140   46.2240 C.3    63  ILE63       0.0252
     58  CG1      144.5210   34.7290   45.3880 C.3    63  ILE63       0.0019
     59  CG2      146.4630   34.9950   46.9620 C.3    63  ILE63       0.0019
     60  CD1      145.1890   34.3430   44.0820 C.3    63  ILE63       0.0001
     61  N        142.8970   37.6960   51.1720 N.3    66  GLU66      -0.1231
     62  CA       142.7110   36.4560   51.9390 C.3    66  GLU66       0.1699
     63  C        143.9080   36.1760   52.8760 C.2    66  GLU66       0.2592
     64  O        143.7140   35.7850   54.0360 O.2    66  GLU66      -0.2718
     65  CB       142.3730   35.2470   51.0470 C.3    66  GLU66       0.0402
     66  CG       142.3170   33.9270   51.8360 C.3    66  GLU66       0.1161
     67  CD       141.6630   32.7720   51.0850 C.2    66  GLU66       0.3649
     68  OE1      141.3860   31.7350   51.7290 O.co2  66  GLU66      -0.2457
     69  OE2      141.4220   32.8930   49.8700 O.co2  66  GLU66      -0.2457
     70  N        145.1340   36.4220   52.3950 N.am   67  ALA67      -0.1980
     71  CA       146.3290   36.2570   53.2290 C.3    67  ALA67       0.1597
     72  C        146.3190   37.1710   54.4630 C.2    67  ALA67       0.2287
     73  O        146.7640   36.7600   55.5390 O.2    67  ALA67      -0.2864
     74  CB       147.5920   36.4990   52.4090 C.3    67  ALA67       0.0319
     75  N        144.0270   35.5820   56.9570 N.3    70  MET70      -0.1245
     76  CA       144.6900   34.3930   57.5380 C.3    70  MET70       0.1570
     77  C        145.8410   34.7570   58.4630 C.2    70  MET70       0.2261
     78  O        146.0490   34.0930   59.4760 O.2    70  MET70      -0.2867
     79  CB       145.2470   33.4890   56.4450 C.3    70  MET70       0.0387
     80  CG       144.2380   32.5930   55.7680 C.3    70  MET70       0.0595
     81  SD       145.0720   31.5810   54.5130 S.3    70  MET70      -0.1393
     82  CE       143.6370   30.7160   53.8480 C.3    70  MET70       0.0692
     83  N        148.5790   30.1990   58.4040 N.3    81  LEU81      -0.1245
     84  CA       149.4690   30.8420   57.4170 C.3    81  LEU81       0.1561
     85  C        150.8310   31.1600   58.0290 C.2    81  LEU81       0.2260
     86  O        150.9190   31.8900   59.0140 O.2    81  LEU81      -0.2867
     87  CB       148.8710   32.1460   56.8850 C.3    81  LEU81       0.0270
     88  CG       149.7250   32.9080   55.8430 C.3    81  LEU81       0.0019
     89  CD1      149.7740   32.2310   54.4720 C.3    81  LEU81       0.0001
     90  CD2      149.2120   34.3280   55.6960 C.3    81  LEU81       0.0001
     91  N        152.4980   31.3260   48.6340 N.3    92  LEU92      -0.1245
     92  CA       151.8940   31.2950   49.9730 C.3    92  LEU92       0.1561
     93  C        152.2960   30.0240   50.6870 C.2    92  LEU92       0.2260
     94  O        152.2670   28.9390   50.0950 O.2    92  LEU92      -0.2867
     95  CB       150.3740   31.4180   49.9030 C.3    92  LEU92       0.0270
     96  CG       149.9020   32.7380   49.2600 C.3    92  LEU92       0.0019
     97  CD1      149.4630   32.4880   47.8280 C.3    92  LEU92       0.0001
     98  CD2      148.7600   33.3290   50.0660 C.3    92  LEU92       0.0001
     99  N        151.7110   27.6450   54.0210 N.3    94  MET94      -0.1230
    100  CA       150.8330   27.3110   55.1270 C.3    94  MET94       0.1702
    101  C        151.2760   26.0120   55.7410 C.2    94  MET94       0.2592
    102  O        152.0270   25.2650   55.1250 O.2    94  MET94      -0.2718
    103  CB       149.4000   27.1760   54.6210 C.3    94  MET94       0.0401
    104  CG       148.8790   28.4730   54.0060 C.3    94  MET94       0.0596
    105  SD       147.1080   28.4890   53.7000 S.3    94  MET94      -0.1393
    106  CE       146.4530   28.4570   55.3890 C.3    94  MET94       0.0692
    107  N        150.7770   25.7350   56.9420 N.am   95  GLN95      -0.1966
    108  CA       151.0140   24.4740   57.6200 C.3    95  GLN95       0.1733
    109  C        150.4770   23.3280   56.7660 C.2    95  GLN95       0.2616
    110  O        149.3550   23.4110   56.2300 O.2    95  GLN95      -0.2715
    111  CB       150.3020   24.4950   58.9790 C.3    95  GLN95       0.0408
    112  CG       150.1680   23.1550   59.6910 C.3    95  GLN95       0.0908
    113  CD       149.4160   23.2740   61.0080 C.2    95  GLN95       0.2608
    114  OE1      148.4340   24.0210   61.1110 O.2    95  GLN95      -0.2717
    115  NE2      149.8690   22.5370   62.0230 N.am   95  GLN95      -0.0878
    116  N        151.2700   22.2620   56.6440 N.am   96  LEU96      -0.1963
    117  CA       150.8390   21.0710   55.9020 C.3    96  LEU96       0.1728
    118  C        149.7490   20.3730   56.7060 C.2    96  LEU96       0.2616
    119  O        149.8970   20.1430   57.9150 O.2    96  LEU96      -0.2715
    120  CB       152.0160   20.0990   55.6700 C.3    96  LEU96       0.0311
    121  CG       151.6850   18.8250   54.8620 C.3    96  LEU96       0.0022
    122  CD1      151.3210   19.1820   53.4140 C.3    96  LEU96       0.0001
    123  CD2      152.8140   17.7960   54.9050 C.3    96  LEU96       0.0001
    124  N        148.6550   20.0390   56.0370 N.am   97  MET97      -0.1964
    125  CA       147.5630   19.3000   56.6740 C.3    97  MET97       0.1722
    126  C        147.4210   17.9790   55.9200 C.2    97  MET97       0.2458
    127  O        146.6510   17.8690   54.9610 O.2    97  MET97      -0.2730
    128  CB       146.2840   20.1360   56.6480 C.3    97  MET97       0.0427
    129  CG       146.4540   21.5180   57.2660 C.3    97  MET97       0.0599
    130  SD       146.6980   21.4390   59.0560 S.3    97  MET97      -0.1393
    131  CE       144.9940   21.5620   59.5920 C.3    97  MET97       0.0692
    132  N        148.1910   16.9700   56.3480 N.am   98  PRO98      -0.2727
    133  CA       148.4410   15.8250   55.4620 C.3    98  PRO98       0.1402
    134  C        147.2120   14.9480   55.1650 C.2    98  PRO98       0.2269
    135  O        147.2230   14.1940   54.1950 O.2    98  PRO98      -0.2865
    136  CB       149.5440   15.0270   56.1850 C.3    98  PRO98       0.0296
    137  CG       149.6250   15.5630   57.5650 C.3    98  PRO98       0.0237
    138  CD       148.9610   16.9130   57.6060 C.3    98  PRO98       0.0939
    139  N        144.2700   16.1510   54.2640 N.3   100  GLY100     -0.1210
    140  CA       143.4370   16.8590   53.2730 C.3   100  GLY100      0.1956
    141  C        142.1900   17.5030   53.8900 C.2   100  GLY100      0.2612
    142  O        142.1720   17.8300   55.0770 O.2   100  GLY100     -0.2717
    143  N        141.1530   17.6700   53.0750 N.am  101  CYS101     -0.1970
    144  CA       139.8670   18.2450   53.5050 C.3   101  CYS101      0.1712
    145  C        138.9680   17.2190   54.1980 C.2   101  CYS101      0.2296
    146  O        138.9390   16.0310   53.8220 O.2   101  CYS101     -0.2864
    147  CB       139.1220   18.8220   52.2890 C.3   101  CYS101      0.0983
    148  SG       140.0110   20.1830   51.4650 S.3   101  CYS101     -0.0798
    149  N        135.6890   16.8880   54.2480 N.3   103  LEU103     -0.1231
    150  CA       134.6490   16.3060   53.4070 C.3   103  LEU103      0.1693
    151  C        135.1600   14.9960   52.7410 C.2   103  LEU103      0.2592
    152  O        134.5180   13.9530   52.8280 O.2   103  LEU103     -0.2718
    153  CB       134.1850   17.3150   52.3480 C.3   103  LEU103      0.0284
    154  CG       133.1360   16.7220   51.3920 C.3   103  LEU103      0.0019
    155  CD1      131.9150   16.2090   52.1600 C.3   103  LEU103      0.0001
    156  CD2      132.7480   17.6980   50.2810 C.3   103  LEU103      0.0001
    157  N        136.3290   15.0660   52.1060 N.am  104  ASP104     -0.1974
    158  CA       136.9030   13.9210   51.4140 C.3   104  ASP104      0.1709
    159  C        137.3020   12.8550   52.4160 C.2   104  ASP104      0.2293
    160  O        137.1630   11.6560   52.1320 O.2   104  ASP104     -0.2864
    161  CB       138.1240   14.3320   50.6010 C.3   104  ASP104      0.1436
    162  CG       137.8110   15.4290   49.6150 C.2   104  ASP104      0.3671
    163  OD1      138.0710   16.6120   49.9270 O.co2 104  ASP104     -0.2456
    164  OD2      137.2600   15.1140   48.5520 O.co2 104  ASP104     -0.2456
    165  N        134.0580   20.9280   53.0980 N.3   145  ARG145     -0.1231
    166  CA       135.1630   21.0700   52.1190 C.3   145  ARG145      0.1694
    167  C        136.1950   22.1000   52.6090 C.2   145  ARG145      0.2592
    168  O        137.3450   22.1120   52.1440 O.2   145  ARG145     -0.2718
    169  CB       134.6460   21.4700   50.7210 C.3   145  ARG145      0.0321
    170  CG       133.8580   22.7840   50.7090 C.3   145  ARG145      0.0489
    171  CD       133.4180   23.2890   49.3310 C.3   145  ARG145      0.2205
    172  NE       132.6530   24.5340   49.5220 N.pl3 145  ARG145     -0.0865
    173  CZ       131.3430   24.5930   49.7920 C.cat 145  ARG145      0.5346
    174  NH1      130.7640   25.7730   50.0010 N.pl3 145  ARG145      0.1354
    175  NH2      130.6000   23.4780   49.8510 N.pl3 145  ARG145      0.1354
    176  N        135.7800   22.9680   53.5310 N.am  146  ASN146     -0.1974
    177  CA       136.6310   24.0750   53.9860 C.3   146  ASN146      0.1688
    178  C        137.1520   23.8520   55.4000 C.2   146  ASN146      0.2292
    179  O        137.4110   24.7960   56.1480 O.2   146  ASN146     -0.2864
    180  CB       135.8870   25.4050   53.8510 C.3   146  ASN146      0.1181
    181  CG       135.7740   25.8530   52.4000 C.2   146  ASN146      0.2629
    182  OD1      136.5650   25.4300   51.5520 O.2   146  ASN146     -0.2716
    183  ND2      134.7940   26.6910   52.1080 N.am  146  ASN146     -0.0877
    184  N        140.2270   21.5950   57.1980 N.3   148  LEU148     -0.1245
    185  CA       141.4080   20.7600   56.9720 C.3   148  LEU148      0.1561
    186  C        141.6900   19.8090   58.1290 C.2   148  LEU148      0.2260
    187  O        141.3500   20.0960   59.2670 O.2   148  LEU148     -0.2867
    188  CB       142.6260   21.6400   56.6830 C.3   148  LEU148      0.0270
    189  CG       142.5750   22.3680   55.3190 C.3   148  LEU148      0.0019
    190  CD1      143.7960   23.2410   55.1040 C.3   148  LEU148      0.0001
    191  CD2      142.4260   21.4120   54.1460 C.3   148  LEU148      0.0001
    192  N        139.3710   26.4720   57.3590 N.3   158  THR158     -0.1218
    193  CA       140.1270   27.2050   56.3600 C.3   158  THR158      0.1862
    194  C        139.2480   27.9780   55.3450 C.2   158  THR158      0.2287
    195  O        138.0230   28.0900   55.5160 O.2   158  THR158     -0.2866
    196  CB       141.1440   26.2950   55.6100 C.3   158  THR158      0.1770
    197  OG1      142.0840   27.1200   54.9030 O.3   158  THR158     -0.2211
    198  CG2      140.4520   25.3370   54.6070 C.3   158  THR158      0.0375
@<TRIPOS>BOND
     1    13    14    1
     2    48    47    2
     3    47    46    1
     4    14    15    1
     5    14    17    1
     6    15    16    2
     7    22    20   ar
     8    22    23   ar
     9    20    18   ar
    10    23    21   ar
    11    18    17    1
    12    18    19   ar
    13    46    49    1
    14    46    45    1
    15    21    19   ar
    16    49    50    1
    17    11    12    2
    18    11    10    1
    19    50    51    1
    20    50    52    1
    21    10     9    1
    22    60    58    1
    23    24    25    1
    24    44    43    1
    25    43    42    1
    26     9     3   am
    27    27    26    2
    28     1     2    1
    29     3     4    2
    30     3     2    1
    31    58    57    1
    32    25    26    1
    33    25    28    1
    34    41    42    1
    35    41    40    1
    36    38    39    2
    37    38    37    1
    38     2     5    1
    39    57    59    1
    40    57    54    1
    41    30    28    1
    42    28    29    1
    43    53    54    1
    44    37    40    1
    45    37    36    1
    46    54    55    1
    47     5     6    1
    48    97    96    1
    49    55    56    2
    50     6     8    1
    51     6     7    1
    52   164   162   ar
    53    91    92    1
    54    96    95    1
    55    96    98    1
    56   171   172    1
    57   171   170    1
    58   172   173    2
    59   162   163   ar
    60   162   161    1
    61   173   175    1
    62   173   174    1
    63    69    67   ar
    64    95    92    1
    65    92    93    1
    66    94    93    2
    67   156   154    1
    68   161   158    1
    69   170   169    1
    70   169   166    1
    71    65    66    1
    72    65    62    1
    73    67    68   ar
    74    67    66    1
    75    61    62    1
    76    33    32    1
    77    33    34    2
    78   154   155    1
    79   154   153    1
    80   158   157    1
    81   158   159    1
    82   148   147    1
    83   182   181    2
    84    35    32    1
    85    32    31    1
    86    62    63    1
    87   157   151   am
    88   183   181   am
    89   166   167    1
    90   166   165    1
    91   160   159    2
    92   168   167    2
    93   147   144    1
    94   153   150    1
    95    70    63   am
    96    70    71    1
    97   181   180    1
    98    74    71    1
    99   167   176   am
   100   151   152    2
   101   151   150    1
   102    63    64    2
   103   143   144    1
   104   143   141   am
   105    71    72    1
   106   140   141    1
   107   140   139    1
   108   150   149    1
   109   122   121    1
   110   144   145    1
   111   176   177    1
   112   105   104    1
   113   105   106    1
   114   146   145    2
   115    82    81    1
   116   180   177    1
   117   141   142    2
   118   177   178    1
   119   104   103    1
   120    99   100    1
   121   191   189    1
   122   135   134    2
   123    72    73    2
   124    89    88    1
   125    81    80    1
   126   198   196    1
   127   103   100    1
   128   121   123    1
   129   121   120    1
   130   197   196    1
   131   127   126    2
   132   190   189    1
   133   102   101    2
   134   100   101    1
   135   134   133    1
   136   189   188    1
   137   194   195    2
   138   194   193    1
   139   178   179    2
   140   133   136    1
   141   133   132    1
   142   196   193    1
   143   120   117    1
   144    90    88    1
   145   101   107   am
   146    80    79    1
   147    88    87    1
   148   117   116    1
   149   117   118    1
   150   126   132   am
   151   126   125    1
   152   124   125    1
   153   124   118   am
   154   136   137    1
   155   110   109    2
   156   132   138    1
   157   193   192    1
   158    79    76    1
   159   116   109   am
   160   128   125    1
   161   128   129    1
   162   188   185    1
   163   118   119    2
   164   109   108    1
   165    87    84    1
   166   107   108    1
   167    75    76    1
   168   185   184    1
   169   185   186    1
   170   129   130    1
   171    84    85    1
   172    84    83    1
   173    76    77    1
   174   137   138    1
   175   108   111    1
   176    85    86    2
   177   186   187    2
   178    77    78    2
   179   111   112    1
   180   130   131    1
   181   112   113    1
   182   113   114    2
   183   113   115   am
