@<TRIPOS>MOLECULE
tmp/3w2rA00.pdb
 218 204 0 0 0
SMALL
GASTEIGER

@<TRIPOS>ATOM
      1  N          3.1020    1.7860   43.5700 N.3    21  LEU21      -0.1245
      2  CA         2.9850    1.9120   45.0380 C.3    21  LEU21       0.1561
      3  C          1.6230    2.4330   45.4810 C.2    21  LEU21       0.2260
      4  O          1.0790    1.9660   46.4790 O.2    21  LEU21      -0.2867
      5  CB         4.0740    2.8200   45.6250 C.3    21  LEU21       0.0270
      6  CG         5.5170    2.3930   45.4310 C.3    21  LEU21       0.0019
      7  CD1        6.4340    3.4620   46.0180 C.3    21  LEU21       0.0001
      8  CD2        5.7760    1.0080   46.0360 C.3    21  LEU21       0.0001
      9  N         -3.6140   13.5490   41.9600 N.3    26  PHE26      -0.1241
     10  CA        -2.9110   14.0670   40.7800 C.3    26  PHE26       0.1605
     11  C         -2.2090   13.0270   39.8980 C.2    26  PHE26       0.2264
     12  O         -1.5500   13.3900   38.9200 O.2    26  PHE26      -0.2867
     13  CB        -1.9840   15.2250   41.1980 C.3    26  PHE26       0.0534
     14  CG        -2.6870   16.2820   42.0310 C.ar   26  PHE26      -0.0203
     15  CD1       -3.8360   16.9270   41.5430 C.ar   26  PHE26      -0.0042
     16  CD2       -2.2250   16.6130   43.3060 C.ar   26  PHE26      -0.0042
     17  CE1       -4.4910   17.8890   42.3040 C.ar   26  PHE26      -0.0003
     18  CE2       -2.8770   17.5810   44.0720 C.ar   26  PHE26      -0.0003
     19  CZ        -4.0110   18.2150   43.5720 C.ar   26  PHE26      -0.0000
     20  N          2.0250    6.9360   41.7000 N.3    29  VAL29      -0.1245
     21  CA         3.3990    6.7770   42.2350 C.3    29  VAL29       0.1561
     22  C          3.9310    5.3560   42.0250 C.2    29  VAL29       0.2260
     23  O          3.2610    4.3840   42.3820 O.2    29  VAL29      -0.2867
     24  CB         3.4550    7.1160   43.7450 C.3    29  VAL29       0.0252
     25  CG1        4.8600    6.9150   44.3090 C.3    29  VAL29       0.0019
     26  CG2        3.0230    8.5620   43.9820 C.3    29  VAL29       0.0019
     27  N         11.2950    7.0660   43.6990 N.3    46  ALA46      -0.1245
     28  CA         9.8830    7.1030   43.4760 C.3    46  ALA46       0.1562
     29  C          9.6370    8.0100   42.2950 C.2    46  ALA46       0.2260
     30  O         10.2840    9.0630   42.1530 O.2    46  ALA46      -0.2867
     31  CB         9.1870    7.6650   44.7130 C.3    46  ALA46       0.0290
     32  N          6.3940    9.7520   40.3860 N.3    48  LYS48      -0.1245
     33  CA         4.9730   10.0730   40.2420 C.3    48  LYS48       0.1561
     34  C          4.6420   10.4750   38.8100 C.2    48  LYS48       0.2260
     35  O          5.1040   11.5060   38.3270 O.2    48  LYS48      -0.2867
     36  CB         4.5630   11.2030   41.1940 C.3    48  LYS48       0.0271
     37  CG         3.0620   11.4890   41.1940 C.3    48  LYS48       0.0035
     38  CD         2.6910   12.3930   42.3600 C.3    48  LYS48       0.0206
     39  CE         1.2540   12.8920   42.3170 C.3    48  LYS48       0.1093
     40  NZ         1.0010   13.8160   43.4890 N.3    48  LYS48      -0.1314
     41  N          2.0240   11.9630   36.5360 N.3    50  LEU50      -0.1245
     42  CA         0.8400   12.8560   36.6460 C.3    50  LEU50       0.1561
     43  C         -0.1780   12.5020   35.6040 C.2    50  LEU50       0.2260
     44  O          0.1780   12.1480   34.4830 O.2    50  LEU50      -0.2867
     45  CB         1.2530   14.3370   36.4590 C.3    50  LEU50       0.0270
     46  CG         2.1110   14.8060   37.6440 C.3    50  LEU50       0.0019
     47  CD1        2.7690   16.1590   37.4160 C.3    50  LEU50       0.0001
     48  CD2        1.2700   14.8070   38.9170 C.3    50  LEU50       0.0001
     49  N          0.8660   24.8560   33.9310 N.3    61  GLU61      -0.1231
     50  CA         0.9400   25.0200   35.3740 C.3    61  GLU61       0.1699
     51  C          1.5210   23.8140   36.0710 C.2    61  GLU61       0.2592
     52  O          1.9680   23.9260   37.2060 O.2    61  GLU61      -0.2718
     53  CB        -0.4120   25.3710   35.9440 C.3    61  GLU61       0.0402
     54  CG        -0.9460   26.6920   35.4220 C.3    61  GLU61       0.1161
     55  CD        -2.3360   26.9660   35.9400 C.2    61  GLU61       0.3649
     56  OE1       -2.9070   28.0140   35.5760 O.co2  61  GLU61      -0.2457
     57  OE2       -2.8440   26.1220   36.7150 O.co2  61  GLU61      -0.2457
     58  N          1.5520   22.6650   35.3920 N.am   62  ILE62      -0.1980
     59  CA         2.3630   21.5320   35.8970 C.3    62  ILE62       0.1595
     60  C          3.8150   21.9420   36.0450 C.2    62  ILE62       0.2287
     61  O          4.4770   21.5430   37.0040 O.2    62  ILE62      -0.2864
     62  CB         2.2900   20.2860   35.0050 C.3    62  ILE62       0.0276
     63  CG1        0.8830   19.6830   35.0670 C.3    62  ILE62       0.0022
     64  CG2        3.3340   19.2510   35.4280 C.3    62  ILE62       0.0022
     65  CD1        0.6150   18.6560   33.9950 C.3    62  ILE62       0.0001
     66  N          4.3780   24.2370   38.9670 N.3    65  GLU65      -0.1245
     67  CA         4.3810   23.3800   40.1520 C.3    65  GLU65       0.1567
     68  C          5.7000   22.6580   40.3140 C.2    65  GLU65       0.2260
     69  O          6.2240   22.5480   41.4370 O.2    65  GLU65      -0.2867
     70  CB         3.2020   22.3740   40.1470 C.3    65  GLU65       0.0388
     71  CG         1.8300   23.0330   40.1790 C.3    65  GLU65       0.1160
     72  CD         1.5360   23.7790   41.4860 C.2    65  GLU65       0.3649
     73  OE1        0.6440   24.6570   41.5100 O.co2  65  GLU65      -0.2457
     74  OE2        2.1980   23.4980   42.4990 O.co2  65  GLU65      -0.2457
     75  N          8.4960   22.6610   43.4110 N.3    69  MET69      -0.1245
     76  CA         9.0560   21.4450   44.0180 C.3    69  MET69       0.1570
     77  C         10.5760   21.3650   43.9760 C.2    69  MET69       0.2261
     78  O         11.2050   20.7920   44.8900 O.2    69  MET69      -0.2867
     79  CB         8.5120   20.2060   43.3380 C.3    69  MET69       0.0387
     80  CG         7.1610   19.7360   43.8250 C.3    69  MET69       0.0595
     81  SD         6.5920   18.4180   42.7390 S.3    69  MET69      -0.1393
     82  CE         5.2350   19.2620   41.9360 C.3    69  MET69       0.0692
     83  N         10.2810   16.2590   51.1530 N.3    78  CYS78      -0.1235
     84  CA        10.7960   15.5290   49.9890 C.3    78  CYS78       0.1677
     85  C         11.3980   16.5110   48.9800 C.2    78  CYS78       0.2270
     86  O         10.9870   17.6790   48.8930 O.2    78  CYS78      -0.2867
     87  CB         9.6690   14.7290   49.3370 C.3    78  CYS78       0.0956
     88  SG         8.2950   15.8030   48.8170 S.3    78  CYS78      -0.0801
     89  N          7.3910   12.9650   37.8800 N.3    91  LEU91      -0.1245
     90  CA         8.2110   13.6190   38.8930 C.3    91  LEU91       0.1561
     91  C          9.1030   12.5430   39.5350 C.2    91  LEU91       0.2260
     92  O          8.6200   11.4910   39.9510 O.2    91  LEU91      -0.2867
     93  CB         7.3300   14.2690   39.9700 C.3    91  LEU91       0.0270
     94  CG         6.1970   15.1680   39.4040 C.3    91  LEU91       0.0019
     95  CD1        5.2500   15.6370   40.4980 C.3    91  LEU91       0.0001
     96  CD2        6.8620   16.3820   38.7550 C.3    91  LEU91       0.0001
     97  N         11.6620   11.5160   42.5890 N.3    93  MET93      -0.1230
     98  CA        12.2380   11.7950   43.8860 C.3    93  MET93       0.1702
     99  C         13.0250   10.5960   44.4370 C.2    93  MET93       0.2592
    100  O         12.8620    9.4730   43.9610 O.2    93  MET93      -0.2718
    101  CB        11.1190   12.2330   44.8380 C.3    93  MET93       0.0401
    102  CG        10.3950   13.4700   44.3140 C.3    93  MET93       0.0596
    103  SD         9.3960   14.2590   45.5680 S.3    93  MET93      -0.1393
    104  CE         8.6250   15.6260   44.6950 C.3    93  MET93       0.0692
    105  N         13.8710   10.8250   45.4420 N.am   94  GLN94      -0.1966
    106  CA        14.6020    9.7180   46.0680 C.3    94  GLN94       0.1733
    107  C         13.6150    8.7920   46.8120 C.2    94  GLN94       0.2616
    108  O         12.6650    9.2690   47.4240 O.2    94  GLN94      -0.2715
    109  CB        15.6540   10.2700   47.0330 C.3    94  GLN94       0.0408
    110  CG        16.4390    9.2200   47.7890 C.3    94  GLN94       0.0908
    111  CD        17.3390    9.8160   48.8630 C.2    94  GLN94       0.2608
    112  OE1       17.2960   11.0060   49.1320 O.2    94  GLN94      -0.2717
    113  NE2       18.1520    8.9840   49.4750 N.am   94  GLN94      -0.0878
    114  N         13.8180    7.4740   46.7350 N.am   95  LEU95      -0.1963
    115  CA        12.9580    6.5330   47.4650 C.3    95  LEU95       0.1728
    116  C         13.3040    6.6050   48.9570 C.2    95  LEU95       0.2616
    117  O         14.4680    6.6360   49.3150 O.2    95  LEU95      -0.2715
    118  CB        13.1660    5.1010   46.9540 C.3    95  LEU95       0.0311
    119  CG        12.2390    3.9990   47.4480 C.3    95  LEU95       0.0022
    120  CD1       10.8250    4.1850   46.9110 C.3    95  LEU95       0.0001
    121  CD2       12.8310    2.6370   47.0670 C.3    95  LEU95       0.0001
    122  N         12.2890    6.6580   49.8120 N.am   96  MET96      -0.1977
    123  CA        12.4880    6.5730   51.2450 C.3    96  MET96       0.1605
    124  C         12.3330    5.0970   51.6110 C.2    96  MET96       0.2287
    125  O         11.2380    4.5420   51.5050 O.2    96  MET96      -0.2864
    126  CB        11.4790    7.4870   51.9460 C.3    96  MET96       0.0413
    127  CG        11.6310    8.9550   51.5540 C.3    96  MET96       0.0598
    128  SD        13.1280    9.7430   52.2090 S.3    96  MET96      -0.1393
    129  CE        14.2910    9.6470   50.8490 C.3    96  MET96       0.0692
    130  N          9.4000    3.2780   53.6880 N.3    99  GLY99      -0.1210
    131  CA         8.0000    3.4840   53.3320 C.3    99  GLY99       0.1956
    132  C          7.3670    4.5420   54.2080 C.2    99  GLY99       0.2612
    133  O          8.0660    5.4020   54.7540 O.2    99  GLY99      -0.2717
    134  N          6.0460    4.4900   54.3410 N.am  100  CYS100     -0.1970
    135  CA         5.3220    5.5690   54.9880 C.3   100  CYS100      0.1712
    136  C          5.2220    5.3170   56.5050 C.2   100  CYS100      0.2296
    137  O          5.2610    4.1790   56.9460 O.2   100  CYS100     -0.2864
    138  CB         3.9340    5.7330   54.3740 C.3   100  CYS100      0.0983
    139  SG         2.7650    4.4890   54.9710 S.3   100  CYS100     -0.0798
    140  N          0.1590    8.6510   56.5270 N.3   144  ARG144     -0.1231
    141  CA         0.4510    7.9500   55.2520 C.3   144  ARG144      0.1694
    142  C          1.2630    8.8480   54.3180 C.2   144  ARG144      0.2592
    143  O          1.9430    8.3630   53.4240 O.2   144  ARG144     -0.2718
    144  CB        -0.8430    7.5330   54.5490 C.3   144  ARG144      0.0321
    145  CG        -1.7080    8.7510   54.2230 C.3   144  ARG144      0.0489
    146  CD        -3.0320    8.4850   53.5220 C.3   144  ARG144      0.2205
    147  NE        -3.7680    9.7560   53.4010 N.pl3 144  ARG144     -0.0865
    148  CZ        -4.7490   10.1630   54.2180 C.cat 144  ARG144      0.5346
    149  NH1       -5.1810    9.3940   55.2050 N.pl3 144  ARG144      0.1354
    150  NH2       -5.3280   11.3390   54.0250 N.pl3 144  ARG144      0.1354
    151  N          1.2080   10.1540   54.5550 N.am  145  ASN145     -0.1974
    152  CA         1.9940   11.1350   53.7930 C.3   145  ASN145      0.1688
    153  C          3.2950   11.5830   54.4450 C.2   145  ASN145      0.2292
    154  O          3.9000   12.5800   54.0480 O.2   145  ASN145     -0.2864
    155  CB         1.1170   12.3450   53.4250 C.3   145  ASN145      0.1181
    156  CG         0.1600   12.0210   52.2970 C.2   145  ASN145      0.2629
    157  OD1        0.3220   10.9950   51.6000 O.2   145  ASN145     -0.2716
    158  ND2       -0.8530   12.8660   52.1110 N.am  145  ASN145     -0.0877
    159  N          7.0770   10.0170   55.3380 N.3   147  LEU147     -0.1245
    160  CA         7.8840    8.9160   54.8400 C.3   147  LEU147      0.1561
    161  C          9.0760    8.7660   55.7470 C.2   147  LEU147      0.2260
    162  O          9.5060    9.7440   56.3420 O.2   147  LEU147     -0.2867
    163  CB         8.3480    9.1980   53.4160 C.3   147  LEU147      0.0270
    164  CG         7.2830    9.2720   52.3450 C.3   147  LEU147      0.0019
    165  CD1        7.9550    9.7240   51.0590 C.3   147  LEU147      0.0001
    166  CD2        6.5290    7.9550   52.1630 C.3   147  LEU147      0.0001
    167  N          5.8140   14.4820   52.3970 N.3   157  THR157     -0.1203
    168  CA         5.7310   14.4040   50.9430 C.3   157  THR157      0.1994
    169  C          4.3120   14.6960   50.4770 C.2   157  THR157      0.2618
    170  O          3.4070   14.9090   51.3080 O.2   157  THR157     -0.2717
    171  CB         6.1640   13.0020   50.4300 C.3   157  THR157      0.1784
    172  OG1        6.4480   13.0590   49.0240 O.3   157  THR157     -0.2211
    173  CG2        5.0570   11.9660   50.6870 C.3   157  THR157      0.0376
    174  N          4.1340   14.6900   49.1540 N.am  158  ASP158     -0.1959
    175  CA         2.8170   14.8280   48.5050 C.3   158  ASP158      0.1840
    176  C          2.0630   16.0820   48.9440 C.2   158  ASP158      0.2622
    177  O          0.8390   16.0700   49.1280 O.2   158  ASP158     -0.2715
    178  CB         1.9750   13.5680   48.7090 C.3   158  ASP158      0.1450
    179  CG         1.3180   13.0860   47.4010 C.2   158  ASP158      0.3671
    180  OD1        1.4160   13.7720   46.3690 O.co2 158  ASP158     -0.2456
    181  OD2        0.6830   12.0280   47.4100 O.co2 158  ASP158     -0.2456
    182  N          2.8010   17.1750   49.1280 N.am  159  PHE159     -0.1960
    183  CA         2.1450   18.4240   49.4430 C.3   159  PHE159      0.1771
    184  C          1.2830   18.8920   48.2640 C.2   159  PHE159      0.2620
    185  O          1.5420   18.5360   47.1140 O.2   159  PHE159     -0.2715
    186  CB         3.1260   19.5010   49.8930 C.3   159  PHE159      0.0574
    187  CG         4.3470   19.6530   49.0220 C.ar  159  PHE159     -0.0200
    188  CD1        5.5480   19.0340   49.3810 C.ar  159  PHE159     -0.0042
    189  CD2        4.3140   20.4230   47.8650 C.ar  159  PHE159     -0.0042
    190  CE1        6.6880   19.1700   48.5970 C.ar  159  PHE159     -0.0003
    191  CE2        5.4600   20.5670   47.0750 C.ar  159  PHE159     -0.0003
    192  CZ         6.6490   19.9400   47.4440 C.ar  159  PHE159     -0.0000
    193  N          0.2740   19.7060   48.5600 N.am  160  GLY160     -0.1940
    194  CA        -0.6340   20.2300   47.5470 C.3   160  GLY160      0.2014
    195  C         -0.1110   21.1840   46.4700 C.2   160  GLY160      0.2638
    196  O          1.0350   21.6500   46.5120 O.2   160  GLY160     -0.2714
    197  N         -1.0000   21.5060   45.5250 N.am  161  ARG161     -0.1977
    198  CA        -0.8030   22.5760   44.5480 C.3   161  ARG161      0.1597
    199  C         -0.2300   23.8480   45.1990 C.2   161  ARG161      0.2287
    200  O         -0.7590   24.3100   46.2270 O.2   161  ARG161     -0.2864
    201  CB        -2.1650   22.9140   43.9260 C.3   161  ARG161      0.0334
    202  CG        -2.3680   22.4270   42.5090 C.3   161  ARG161      0.0492
    203  CD        -3.5670   23.1010   41.8640 C.3   161  ARG161      0.2205
    204  NE        -4.8160   22.4250   42.2030 N.pl3 161  ARG161     -0.0865
    205  CZ        -5.4300   21.5310   41.4290 C.cat 161  ARG161      0.5346
    206  NH1       -4.9190   21.1920   40.2510 N.pl3 161  ARG161      0.1354
    207  NH2       -6.5660   20.9740   41.8350 N.pl3 161  ARG161      0.1354
    208  N          8.1810   -2.8030   54.0680 N.3   277  PHE277     -0.1241
    209  CA         8.6010   -2.0580   52.8740 C.3   277  PHE277      0.1605
    210  C         10.0980   -2.2200   52.6160 C.2   277  PHE277      0.2264
    211  O         10.5010   -2.5190   51.4980 O.2   277  PHE277     -0.2867
    212  CB         8.2440   -0.5770   53.0410 C.3   277  PHE277      0.0534
    213  CG         8.3620    0.2210   51.7760 C.ar  277  PHE277     -0.0203
    214  CD1        7.2560    0.4080   50.9590 C.ar  277  PHE277     -0.0042
    215  CD2        9.5750    0.8120   51.4140 C.ar  277  PHE277     -0.0042
    216  CE1        7.3660    1.1370   49.7920 C.ar  277  PHE277     -0.0003
    217  CE2        9.6910    1.5390   50.2470 C.ar  277  PHE277     -0.0003
    218  CZ         8.5840    1.6980   49.4370 C.ar  277  PHE277     -0.0000
@<TRIPOS>BOND
     1    49    50    1
     2    65    63    1
     3    44    43    2
     4    62    63    1
     5    62    64    1
     6    62    59    1
     7    50    53    1
     8    50    51    1
     9    58    59    1
    10    58    51   am
    11    54    55    1
    12    54    53    1
    13    56    55   ar
    14    43    42    1
    15    59    60    1
    16    55    57   ar
    17    60    61    2
    18    51    52    2
    19    45    42    1
    20    45    46    1
    21    41    42    1
    22    47    46    1
    23    46    48    1
    24    89    90    1
    25    35    34    2
    26    96    94    1
    27    34    33    1
    28    90    91    1
    29    90    93    1
    30    12    11    2
    31    66    67    1
    32    94    93    1
    33    94    95    1
    34    91    92    2
    35    11    10    1
    36    70    67    1
    37    70    71    1
    38    67    68    1
    39    71    72    1
    40    33    32    1
    41    33    36    1
    42   206   205    1
    43    68    69    2
    44    10    13    1
    45    10     9    1
    46    37    36    1
    47    37    38    1
    48    13    14    1
    49   205   207    1
    50   205   204    2
    51    72    73   ar
    52    72    74   ar
    53    15    14   ar
    54    15    17   ar
    55    20    21    1
    56   203   204    1
    57   203   202    1
    58    82    81    1
    59    22    21    1
    60    22    23    2
    61    14    16   ar
    62    30    29    2
    63    21    24    1
    64    29    28    1
    65    17    19   ar
    66    39    38    1
    67    39    40    1
    68   202   201    1
    69    97    98    1
    70    81    80    1
    71    16    18   ar
    72    79    80    1
    73    79    76    1
    74    75    76    1
    75    28    27    1
    76    28    31    1
    77     1     2    1
    78    19    18   ar
    79    24    26    1
    80    24    25    1
    81    98    99    1
    82    98   101    1
    83   201   198    1
    84   100    99    2
    85    77    76    1
    86    77    78    2
    87   102   101    1
    88   102   103    1
    89    99   105   am
    90   198   199    1
    91   198   197    1
    92   104   103    1
    93     2     3    1
    94     2     5    1
    95   199   200    2
    96     6     5    1
    97     6     7    1
    98     6     8    1
    99   105   106    1
   100     3     4    2
   101   197   195   am
   102   106   107    1
   103   106   109    1
   104   180   179   ar
   105   195   196    2
   106   195   194    1
   107   114   107   am
   108   114   115    1
   109   107   108    2
   110   120   119    1
   111   118   119    1
   112   118   115    1
   113   109   110    1
   114   121   119    1
   115   191   192   ar
   116   191   189   ar
   117   185   184    2
   118   179   181   ar
   119   179   178    1
   120   192   190   ar
   121   115   116    1
   122   194   193    1
   123   110   111    1
   124   189   187   ar
   125   184   193   am
   126   184   183    1
   127   175   178    1
   128   175   176    1
   129   175   174    1
   130   190   188   ar
   131    88    87    1
   132   111   112    2
   133   111   113   am
   134    86    85    2
   135   176   182   am
   136   176   177    2
   137   116   117    2
   138   116   122   am
   139    85    84    1
   140   187   188   ar
   141   187   186    1
   142   172   171    1
   143   182   183    1
   144   174   169   am
   145    87    84    1
   146   218   216   ar
   147   218   217   ar
   148   183   186    1
   149   216   214   ar
   150   122   123    1
   151    84    83    1
   152   217   215   ar
   153   171   173    1
   154   171   168    1
   155   169   168    1
   156   169   170    2
   157   129   128    1
   158   168   167    1
   159   214   213   ar
   160   165   164    1
   161   123   124    1
   162   123   126    1
   163   215   213   ar
   164   211   210    2
   165   125   124    2
   166   127   126    1
   167   127   128    1
   168   157   156    2
   169   213   212    1
   170   158   156   am
   171   166   164    1
   172   156   155    1
   173   164   163    1
   174   210   209    1
   175   209   212    1
   176   209   208    1
   177   131   130    1
   178   131   132    1
   179   147   146    1
   180   147   148    2
   181   163   160    1
   182   143   142    2
   183   155   152    1
   184   146   145    1
   185   152   153    1
   186   152   151    1
   187   150   148    1
   188   154   153    2
   189   132   134   am
   190   132   133    2
   191   148   149    1
   192   145   144    1
   193   142   151   am
   194   142   141    1
   195   134   135    1
   196   138   139    1
   197   138   135    1
   198   144   141    1
   199   160   159    1
   200   160   161    1
   201   135   136    1
   202   141   140    1
   203   161   162    2
   204   136   137    2
