@<TRIPOS>MOLECULE
tmp/3w2tA00.pdb
 178 174 0 0 0
SMALL
GASTEIGER

@<TRIPOS>ATOM
      1  N         57.9930   58.5490   27.2370 N.3    88  ARG88      -0.1231
      2  CA        56.7700   57.9900   27.8220 C.3    88  ARG88       0.1694
      3  C         55.7420   57.5160   26.7780 C.2    88  ARG88       0.2592
      4  O         55.1390   56.4490   26.9360 O.2    88  ARG88      -0.2718
      5  CB        56.1320   58.9480   28.8230 C.3    88  ARG88       0.0321
      6  CG        55.0230   58.3120   29.6200 C.3    88  ARG88       0.0489
      7  CD        54.2880   59.3340   30.4830 C.3    88  ARG88       0.2205
      8  NE        55.1610   59.9490   31.4780 N.pl3  88  ARG88      -0.0865
      9  CZ        55.3560   59.4790   32.7040 C.cat  88  ARG88       0.5346
     10  NH1       56.1520   60.1310   33.5400 N.pl3  88  ARG88       0.1354
     11  NH2       54.7600   58.3510   33.0940 N.pl3  88  ARG88       0.1354
     12  N         55.5850   58.2780   25.7020 N.am   89  HIS89      -0.1976
     13  CA        54.6120   57.9490   24.6640 C.3    89  HIS89       0.1656
     14  C         55.2460   57.6680   23.2860 C.2    89  HIS89       0.2291
     15  O         54.6810   56.9180   22.4860 O.2    89  HIS89      -0.2864
     16  CB        53.5890   59.0740   24.5470 C.3    89  HIS89       0.0771
     17  CG        52.9780   59.4690   25.8550 C.ar   89  HIS89       0.0820
     18  ND1       52.0910   58.6610   26.5400 N.ar   89  HIS89      -0.2267
     19  CD2       53.1360   60.5820   26.6120 C.ar   89  HIS89       0.1154
     20  CE1       51.7320   59.2600   27.6620 C.ar   89  HIS89       0.1986
     21  NE2       52.3490   60.4270   27.7290 N.ar   89  HIS89      -0.2212
     22  N         55.9140   64.9630   27.2020 N.3   168  GLU168     -0.1231
     23  CA        55.7430   64.5890   28.6030 C.3   168  GLU168      0.1699
     24  C         54.7060   65.4460   29.3290 C.2   168  GLU168      0.2592
     25  O         53.8300   64.8990   29.9940 O.2   168  GLU168     -0.2718
     26  CB        57.0910   64.6570   29.3480 C.3   168  GLU168      0.0402
     27  CG        57.0360   64.4730   30.8610 C.3   168  GLU168      0.1161
     28  CD        56.7510   63.0350   31.3180 C.2   168  GLU168      0.3649
     29  OE1       56.5580   62.8370   32.5450 O.co2 168  GLU168     -0.2457
     30  OE2       56.7110   62.1100   30.4700 O.co2 168  GLU168     -0.2457
     31  N         54.8070   66.7740   29.1830 N.am  169  GLU169     -0.1979
     32  CA        54.0760   67.7150   30.0240 C.3   169  GLU169      0.1602
     33  C         52.8730   68.4650   29.4110 C.2   169  GLU169      0.2287
     34  O         52.1360   69.1330   30.1390 O.2   169  GLU169     -0.2864
     35  CB        55.0480   68.7520   30.5880 C.3   169  GLU169      0.0415
     36  CG        56.3230   68.1830   31.2170 C.3   169  GLU169      0.1163
     37  CD        56.0730   67.3320   32.4440 C.2   169  GLU169      0.3649
     38  OE1       57.0570   67.0170   33.1400 O.co2 169  GLU169     -0.2457
     39  OE2       54.9070   66.9620   32.7160 O.co2 169  GLU169     -0.2457
     40  N         50.7050   64.8010   26.5120 N.3   172  SER172     -0.1217
     41  CA        50.6790   63.3870   26.9260 C.3   172  SER172      0.1889
     42  C         50.6370   62.4820   25.6940 C.2   172  SER172      0.2288
     43  O         49.9960   61.4260   25.7000 O.2   172  SER172     -0.2866
     44  CB        49.4830   63.0800   27.8400 C.3   172  SER172      0.2089
     45  OG        49.4950   63.8850   29.0060 O.3   172  SER172     -0.2183
     46  N         46.2570   70.0530   35.0090 N.3   320  PHE320     -0.1227
     47  CA        47.6370   70.0380   34.5080 C.3   320  PHE320      0.1736
     48  C         47.7900   70.9410   33.2850 C.2   320  PHE320      0.2595
     49  O         48.9210   71.1510   32.8100 O.2   320  PHE320     -0.2718
     50  CB        48.0750   68.6120   34.1560 C.3   320  PHE320      0.0547
     51  CG        48.2070   67.7000   35.3580 C.ar  320  PHE320     -0.0202
     52  CD1       49.4390   67.5550   36.0140 C.ar  320  PHE320     -0.0042
     53  CD2       47.0960   67.0040   35.8530 C.ar  320  PHE320     -0.0042
     54  CE1       49.5740   66.7140   37.1380 C.ar  320  PHE320     -0.0003
     55  CE2       47.2180   66.1660   36.9820 C.ar  320  PHE320     -0.0003
     56  CZ        48.4700   66.0170   37.6250 C.ar  320  PHE320     -0.0000
     57  N         46.6550   71.4560   32.7820 N.am  321  ARG321     -0.1980
     58  CA        46.5760   72.2690   31.5580 C.3   321  ARG321      0.1597
     59  C         45.1200   72.6490   31.3250 C.2   321  ARG321      0.2287
     60  O         44.2100   71.9570   31.8150 O.2   321  ARG321     -0.2864
     61  CB        47.0950   71.4900   30.3250 C.3   321  ARG321      0.0334
     62  CG        46.1880   70.3570   29.8820 C.3   321  ARG321      0.0492
     63  CD        46.6810   69.6090   28.6740 C.3   321  ARG321      0.2205
     64  NE        47.4880   68.4780   29.1120 N.pl3 321  ARG321     -0.0865
     65  CZ        47.1780   67.1980   28.9420 C.cat 321  ARG321      0.5346
     66  NH1       46.0830   66.8370   28.2860 N.pl3 321  ARG321      0.1354
     67  NH2       48.0000   66.2700   29.4020 N.pl3 321  ARG321      0.1354
     68  N         53.3270   60.0160   47.1730 N.3   510  TYR510     -0.1241
     69  CA        53.5770   60.6650   45.9090 C.3   510  TYR510      0.1605
     70  C         53.4460   62.1410   46.1720 C.2   510  TYR510      0.2264
     71  O         54.4630   62.8250   46.2950 O.2   510  TYR510     -0.2867
     72  CB        52.6380   60.1820   44.8050 C.3   510  TYR510      0.0534
     73  CG        52.9860   60.7520   43.4520 C.ar  510  TYR510     -0.0201
     74  CD1       52.2070   61.7600   42.8960 C.ar  510  TYR510     -0.0009
     75  CD2       54.1130   60.3140   42.7390 C.ar  510  TYR510     -0.0009
     76  CE1       52.5020   62.3000   41.6470 C.ar  510  TYR510      0.0417
     77  CE2       54.4280   60.8550   41.4880 C.ar  510  TYR510      0.0417
     78  CZ        53.6070   61.8550   40.9460 C.ar  510  TYR510      0.1957
     79  OH        53.8470   62.4240   39.7090 O.3   510  TYR510     -0.2866
     80  N         59.7080   59.3720   41.9610 N.3   593  SER593     -0.1202
     81  CA        59.6700   60.6160   41.2680 C.3   593  SER593      0.2020
     82  C         59.2290   61.7060   42.2030 C.2   593  SER593      0.2618
     83  O         60.0240   62.0900   43.0600 O.2   593  SER593     -0.2717
     84  CB        58.8300   60.4690   40.1020 C.3   593  SER593      0.2103
     85  OG        59.0920   61.5390   39.2000 O.3   593  SER593     -0.2182
     86  N         58.0310   62.2440   42.0980 N.am  594  TYR594     -0.1975
     87  CA        57.6150   63.2790   43.0950 C.3   594  TYR594      0.1639
     88  C         57.6200   62.6730   44.4930 C.2   594  TYR594      0.2290
     89  O         57.9010   63.3660   45.4700 O.2   594  TYR594     -0.2864
     90  CB        56.2270   63.8850   42.7740 C.3   594  TYR594      0.0560
     91  CG        56.0520   65.2820   43.3730 C.ar  594  TYR594     -0.0198
     92  CD1       55.7950   65.4700   44.7500 C.ar  594  TYR594     -0.0009
     93  CD2       56.1660   66.4030   42.5810 C.ar  594  TYR594     -0.0009
     94  CE1       55.6580   66.7520   45.3010 C.ar  594  TYR594      0.0417
     95  CE2       56.0200   67.6840   43.1110 C.ar  594  TYR594      0.0417
     96  CZ        55.7750   67.8570   44.4690 C.ar  594  TYR594      0.1957
     97  OH        55.6440   69.1460   44.9640 O.3   594  TYR594     -0.2866
     98  N         63.1860   63.9340   42.3670 N.3   619  VAL619     -0.1245
     99  CA        63.6340   65.2940   42.1180 C.3   619  VAL619      0.1561
    100  C         64.4470   65.6940   43.3590 C.2   619  VAL619      0.2260
    101  O         64.1040   65.2900   44.4700 O.2   619  VAL619     -0.2867
    102  CB        62.4360   66.2540   41.8730 C.3   619  VAL619      0.0252
    103  CG1       62.8650   67.7050   41.8620 C.3   619  VAL619      0.0019
    104  CG2       61.7840   65.9220   40.5690 C.3   619  VAL619      0.0019
    105  N         64.5030   71.9320   42.1090 N.3   622  TRP622     -0.1241
    106  CA        63.5380   72.2690   41.0560 C.3   622  TRP622      0.1605
    107  C         64.1520   72.8180   39.7830 C.2   622  TRP622      0.2264
    108  O         63.6070   72.6280   38.6990 O.2   622  TRP622     -0.2867
    109  CB        62.3700   73.1110   41.5950 C.3   622  TRP622      0.0550
    110  CG        61.4780   72.2270   42.4050 C.ar  622  TRP622      0.0003
    111  CD1       61.2810   72.2700   43.7520 C.ar  622  TRP622      0.0946
    112  CD2       60.7210   71.1050   41.9230 C.ar  622  TRP622      0.0152
    113  NE1       60.4290   71.2630   44.1350 N.ar  622  TRP622     -0.2442
    114  CE2       60.0740   70.5320   43.0320 C.ar  622  TRP622      0.0810
    115  CE3       60.5290   70.5310   40.6530 C.ar  622  TRP622      0.0012
    116  CZ2       59.2440   69.4000   42.9210 C.ar  622  TRP622      0.0191
    117  CZ3       59.6900   69.4150   40.5340 C.ar  622  TRP622      0.0001
    118  CH2       59.0620   68.8630   41.6650 C.ar  622  TRP622      0.0015
    119  N         64.6420   70.2220   36.9990 N.3   625  TYR625     -0.1241
    120  CA        63.4820   69.6290   36.3830 C.3   625  TYR625      0.1605
    121  C         62.9560   70.4410   35.1880 C.2   625  TYR625      0.2264
    122  O         63.3320   71.6130   35.0080 O.2   625  TYR625     -0.2867
    123  CB        62.4070   69.2740   37.4330 C.3   625  TYR625      0.0534
    124  CG        61.4980   68.2290   36.8860 C.ar  625  TYR625     -0.0201
    125  CD1       60.1410   68.4860   36.6810 C.ar  625  TYR625     -0.0009
    126  CD2       62.0100   67.0040   36.4620 C.ar  625  TYR625     -0.0009
    127  CE1       59.3110   67.5230   36.0970 C.ar  625  TYR625      0.0417
    128  CE2       61.1930   66.0500   35.8910 C.ar  625  TYR625      0.0417
    129  CZ        59.8470   66.3200   35.7110 C.ar  625  TYR625      0.1957
    130  OH        59.0480   65.3540   35.1390 O.3   625  TYR625     -0.2866
    131  N         56.4070   71.6900   33.5640 N.3   629  TYR629     -0.1241
    132  CA        55.8990   71.1670   34.8120 C.3   629  TYR629      0.1605
    133  C         56.2990   72.0690   35.9830 C.2   629  TYR629      0.2264
    134  O         55.4220   72.5160   36.7270 O.2   629  TYR629     -0.2867
    135  CB        56.3640   69.7130   35.0420 C.3   629  TYR629      0.0534
    136  CG        55.8400   69.0970   36.3280 C.ar  629  TYR629     -0.0201
    137  CD1       54.6780   68.3140   36.3350 C.ar  629  TYR629     -0.0009
    138  CD2       56.4940   69.3160   37.5460 C.ar  629  TYR629     -0.0009
    139  CE1       54.1880   67.7580   37.5220 C.ar  629  TYR629      0.0417
    140  CE2       56.0110   68.7680   38.7340 C.ar  629  TYR629      0.0417
    141  CZ        54.8630   67.9910   38.7180 C.ar  629  TYR629      0.1957
    142  OH        54.4210   67.4220   39.9040 O.3   629  TYR629     -0.2866
    143  N         54.9210   75.6500   36.2010 N.3   632  ARG632     -0.1245
    144  CA        53.4850   75.6870   36.3950 C.3   632  ARG632      0.1563
    145  C         53.2120   76.0000   37.8660 C.2   632  ARG632      0.2260
    146  O         52.3010   76.7550   38.1850 O.2   632  ARG632     -0.2867
    147  CB        52.8660   74.3370   36.0150 C.3   632  ARG632      0.0307
    148  CG        51.3520   74.3360   35.9080 C.3   632  ARG632      0.0489
    149  CD        50.8550   72.9400   35.6250 C.3   632  ARG632      0.2205
    150  NE        51.2660   72.5160   34.2900 N.pl3 632  ARG632     -0.0865
    151  CZ        51.7060   71.3020   33.9730 C.cat 632  ARG632      0.5346
    152  NH1       51.8250   70.3560   34.9070 N.pl3 632  ARG632      0.1354
    153  NH2       52.0410   71.0440   32.7140 N.pl3 632  ARG632      0.1354
    154  N         63.9420   61.6840   32.1660 N.3   673  ASN673     -0.1225
    155  CA        62.9070   62.5040   32.7580 C.3   673  ASN673      0.1785
    156  C         63.3880   63.2320   34.0300 C.2   673  ASN673      0.2597
    157  O         63.5510   64.4550   34.0280 O.2   673  ASN673     -0.2718
    158  CB        61.6710   61.6390   33.0220 C.3   673  ASN673      0.1169
    159  CG        60.4910   62.4370   33.4800 C.2   673  ASN673      0.2627
    160  OD1       60.6240   63.6070   33.8740 O.2   673  ASN673     -0.2716
    161  ND2       59.3060   61.8170   33.4400 N.am  673  ASN673     -0.0877
    162  N         63.5480   62.4880   35.1180 N.am  674  VAL674     -0.1980
    163  CA        64.2380   62.9810   36.2970 C.3   674  VAL674      0.1595
    164  C         65.6750   62.5090   36.1080 C.2   674  VAL674      0.2287
    165  O         65.9730   61.3210   36.1960 O.2   674  VAL674     -0.2864
    166  CB        63.6300   62.4450   37.6340 C.3   674  VAL674      0.0276
    167  CG1       64.4190   62.9690   38.8510 C.3   674  VAL674      0.0022
    168  CG2       62.1840   62.8350   37.7720 C.3   674  VAL674      0.0022
    169  N         63.1340   56.1780   33.6040 N.3   703  HIS703     -0.1241
    170  CA        62.3270   56.5600   34.7510 C.3   703  HIS703      0.1621
    171  C         61.4880   55.4080   35.3280 C.2   703  HIS703      0.2264
    172  O         61.2740   55.3330   36.5570 O.2   703  HIS703     -0.2867
    173  CB        61.4600   57.7640   34.4010 C.3   703  HIS703      0.0745
    174  CG        60.8920   58.4570   35.5950 C.ar  703  HIS703      0.0817
    175  ND1       61.6830   58.9660   36.6010 N.ar  703  HIS703     -0.2268
    176  CD2       59.6100   58.7170   35.9500 C.ar  703  HIS703      0.1154
    177  CE1       60.9120   59.5260   37.5170 C.ar  703  HIS703      0.1986
    178  NE2       59.6510   59.3950   37.1410 N.ar  703  HIS703     -0.2212
@<TRIPOS>BOND
     1    15    14    2
     2    14    13    1
     3    16    13    1
     4    16    17    1
     5    13    12    1
     6    42    43    2
     7    42    41    1
     8    12     3   am
     9    17    18   ar
    10    17    19   ar
    11    40    41    1
    12    18    20   ar
    13    19    21   ar
    14     3     4    2
    15     3     2    1
    16    41    44    1
    17    22    23    1
    18     1     2    1
    19    20    21   ar
    20     2     5    1
    21    44    45    1
    22    66    65    1
    23    23    24    1
    24    23    26    1
    25    63    64    1
    26    63    62    1
    27     5     6    1
    28    65    64    2
    29    65    67    1
    30    31    24   am
    31    31    32    1
    32    24    25    2
    33    26    27    1
    34    33    32    1
    35    33    34    2
    36     6     7    1
    37    62    61    1
    38    32    35    1
    39    61    58    1
    40    30    28   ar
    41     7     8    1
    42    35    36    1
    43    27    28    1
    44    36    37    1
    45    28    29   ar
    46    59    58    1
    47    59    60    2
    48     8     9    2
    49    58    57    1
    50   154   155    1
    51    37    39   ar
    52    37    38   ar
    53     9    11    1
    54     9    10    1
    55   153   151    1
    56   155   158    1
    57   155   156    1
    58    57    48   am
    59    49    48    2
    60   158   159    1
    61    48    47    1
    62   161   159   am
    63   159   160    2
    64   131   132    1
    65   169   170    1
    66   151   150    2
    67   151   152    1
    68   157   156    2
    69   156   162   am
    70    50    47    1
    71    50    51    1
    72   150   149    1
    73   173   170    1
    74   173   174    1
    75    47    46    1
    76   170   171    1
    77   132   135    1
    78   132   133    1
    79   122   121    2
    80   135   136    1
    81   162   163    1
    82   130   129    1
    83   121   120    1
    84   171   172    2
    85    51    53   ar
    86    51    52   ar
    87   174   176   ar
    88   174   175   ar
    89   149   148    1
    90   129   128   ar
    91   129   127   ar
    92    53    55   ar
    93   128   126   ar
    94   148   147    1
    95   176   178   ar
    96   133   134    2
    97    52    54   ar
    98   147   144    1
    99   127   125   ar
   100   164   165    2
   101   164   163    1
   102   143   144    1
   103   163   166    1
   104   136   137   ar
   105   136   138   ar
   106   137   139   ar
   107   120   119    1
   108   120   123    1
   109   144   145    1
   110   126   124   ar
   111   175   177   ar
   112   125   124   ar
   113   124   123    1
   114    55    56   ar
   115    54    56   ar
   116   178   177   ar
   117   139   141   ar
   118   138   140   ar
   119   166   168    1
   120   166   167    1
   121   145   146    2
   122   108   107    2
   123   141   140   ar
   124   141   142    1
   125    85    84    1
   126    79    78    1
   127   107   106    1
   128    84    81    1
   129   117   115   ar
   130   117   118   ar
   131   104   102    1
   132   115   112   ar
   133    78    77   ar
   134    78    76   ar
   135   106   109    1
   136   106   105    1
   137    81    80    1
   138    81    82    1
   139    77    75   ar
   140   109   110    1
   141    76    74   ar
   142   118   116   ar
   143   103   102    1
   144   102    99    1
   145   112   110   ar
   146   112   114   ar
   147    86    82   am
   148    86    87    1
   149    99    98    1
   150    99   100    1
   151    82    83    2
   152   110   111   ar
   153    93    95   ar
   154    93    91   ar
   155    75    73   ar
   156    90    87    1
   157    90    91    1
   158    74    73   ar
   159   116   114   ar
   160   114   113   ar
   161    87    88    1
   162    95    96   ar
   163   100   101    2
   164    91    92   ar
   165    73    72    1
   166   111   113   ar
   167    96    97    1
   168    96    94   ar
   169    88    89    2
   170    92    94   ar
   171    72    69    1
   172    69    70    1
   173    69    68    1
   174    70    71    2
