@<TRIPOS>MOLECULE
tmp/3w2uA01.pdb
 162 149 0 0 0
SMALL
GASTEIGER

@<TRIPOS>ATOM
      1  N         16.7770   19.2570   16.7020 N.3    44  LYS44      -0.1231
      2  CA        15.4080   19.2020   16.1600 C.3    44  LYS44       0.1693
      3  C         15.3600   19.1910   14.6580 C.2    44  LYS44       0.2592
      4  O         15.9920   20.0060   14.0000 O.2    44  LYS44      -0.2718
      5  CB        14.5560   20.3570   16.6820 C.3    44  LYS44       0.0285
      6  CG        13.2200   20.6180   15.9620 C.3    44  LYS44       0.0035
      7  CD        12.0730   19.6400   16.2380 C.3    44  LYS44       0.0206
      8  CE        10.9030   19.8320   15.2570 C.3    44  LYS44       0.1093
      9  NZ         9.6770   18.9860   15.4970 N.3    44  LYS44      -0.1314
     10  N         14.5710   18.2560   14.1220 N.am   45  SER45      -0.1952
     11  CA        14.3320   18.1120   12.6940 C.3    45  SER45       0.1924
     12  C         14.0350   19.5020   12.1540 C.2    45  SER45       0.2314
     13  O         13.1490   20.1740   12.6350 O.2    45  SER45      -0.2863
     14  CB        13.1690   17.1530   12.4220 C.3    45  SER45       0.2116
     15  OG        13.5770   15.7880   12.5130 O.3    45  SER45      -0.2180
     16  N         10.0760   27.8340   11.4170 N.3    51  ARG51      -0.1245
     17  CA         8.6710   27.4660   11.4350 C.3    51  ARG51       0.1563
     18  C          8.1280   27.6520   12.8500 C.2    51  ARG51       0.2260
     19  O          8.7900   27.2960   13.7960 O.2    51  ARG51      -0.2867
     20  CB         8.4780   26.0000   11.0280 C.3    51  ARG51       0.0307
     21  CG         8.5420   25.7360    9.5320 C.3    51  ARG51       0.0489
     22  CD         8.4240   24.2670    9.2270 C.3    51  ARG51       0.2205
     23  NE         7.1250   23.7450    9.6760 N.pl3  51  ARG51      -0.0865
     24  CZ         6.0140   23.7610    8.9590 C.cat  51  ARG51       0.5346
     25  NH1        6.0040   24.2070    7.7190 N.pl3  51  ARG51       0.1354
     26  NH2        4.9260   23.2920    9.4610 N.pl3  51  ARG51       0.1354
     27  N          2.3590   24.3800   14.7270 N.3    54  ASN54      -0.1240
     28  CA         0.8960   24.4410   14.8550 C.3    54  ASN54       0.1653
     29  C          0.4510   25.1140   16.1660 C.2    54  ASN54       0.2266
     30  O          1.2590   25.3380   17.0680 O.2    54  ASN54      -0.2867
     31  CB         0.2890   23.0360   14.8150 C.3    54  ASN54       0.1155
     32  CG         0.4030   22.3580   13.4660 C.2    54  ASN54       0.2627
     33  OD1        0.4100   23.0010   12.4090 O.2    54  ASN54      -0.2716
     34  ND2        0.4580   21.0220   13.4960 N.am   54  ASN54      -0.0877
     35  N          1.0790   14.1230   19.9100 N.3    68  ASN68      -0.1225
     36  CA         1.6020   15.3480   19.3930 C.3    68  ASN68       0.1785
     37  C          1.3080   15.5680   17.8940 C.2    68  ASN68       0.2598
     38  O          1.4250   14.6600   17.0220 O.2    68  ASN68      -0.2718
     39  CB         3.1010   15.4990   19.6820 C.3    68  ASN68       0.1169
     40  CG         3.9740   15.0290   18.5400 C.2    68  ASN68       0.2627
     41  OD1        3.9840   15.6450   17.4400 O.2    68  ASN68      -0.2716
     42  ND2        4.7070   13.9510   18.7640 N.am   68  ASN68      -0.0877
     43  N          0.8810   16.8080   17.6470 N.am   69  SER69      -0.1938
     44  CA         0.7880   17.3440   16.3080 C.3    69  SER69       0.2055
     45  C          1.4050   18.7590   16.3030 C.2    69  SER69       0.2643
     46  O          0.7380   19.8170   16.2020 O.2    69  SER69      -0.2714
     47  CB        -0.6500   17.2510   15.8200 C.3    69  SER69       0.2130
     48  OG        -0.8090   18.1110   14.6950 O.3    69  SER69      -0.2179
     49  N          2.7310   18.7610   16.4330 N.am   70  MET70      -0.1962
     50  CA         3.4980   20.0440   16.6140 C.3    70  MET70       0.1736
     51  C          3.5680   20.8640   15.2920 C.2    70  MET70       0.2617
     52  O          3.6730   22.0750   15.3080 O.2    70  MET70      -0.2715
     53  CB         4.9270   19.8060   17.0470 C.3    70  MET70       0.0427
     54  CG         5.1740   18.8210   18.1430 C.3    70  MET70       0.0599
     55  SD         4.6310   19.4240   19.7400 S.3    70  MET70      -0.1393
     56  CE         5.7130   20.7930   20.0460 C.3    70  MET70       0.0692
     57  N          3.5980   20.2360   14.1530 N.am   71  GLY71      -0.1940
     58  CA         3.6890   21.0410   12.9310 C.3    71  GLY71       0.2014
     59  C          5.0880   21.5590   12.6610 C.2    71  GLY71       0.2638
     60  O          5.2850   22.7060   12.1850 O.2    71  GLY71      -0.2714
     61  N          6.0590   20.7510   13.0850 N.am   72  LEU72      -0.1977
     62  CA         7.4720   20.9760   12.8110 C.3    72  LEU72       0.1596
     63  C          7.9580   22.4360   13.0520 C.2    72  LEU72       0.2287
     64  O          8.5020   23.0920   12.1620 O.2    72  LEU72      -0.2864
     65  CB         7.7480   20.5140   11.3810 C.3    72  LEU72       0.0297
     66  CG         9.1790   20.4410   10.8520 C.3    72  LEU72       0.0022
     67  CD1       10.0730   19.6050   11.7440 C.3    72  LEU72       0.0001
     68  CD2        9.1340   19.8640    9.4280 C.3    72  LEU72       0.0001
     69  N         14.3320   17.4560    8.1320 N.3   100  SER100     -0.1217
     70  CA        13.0100   17.0210    7.8230 C.3   100  SER100      0.1889
     71  C         12.3420   17.9690    6.8480 C.2   100  SER100      0.2288
     72  O         11.3050   18.5650    7.1770 O.2   100  SER100     -0.2866
     73  CB        12.1700   16.9840    9.1020 C.3   100  SER100      0.2089
     74  OG        10.9610   16.2710    8.8380 O.3   100  SER100     -0.2183
     75  N         10.3240   19.5290    3.5640 N.3   102  LEU102     -0.1245
     76  CA         8.9500   19.2860    3.1070 C.3   102  LEU102      0.1561
     77  C          8.8550   18.7980    1.6270 C.2   102  LEU102      0.2260
     78  O          7.7640   18.5220    1.1000 O.2   102  LEU102     -0.2867
     79  CB         8.0880   20.5380    3.3520 C.3   102  LEU102      0.0270
     80  CG         8.0450   21.0520    4.8310 C.3   102  LEU102      0.0019
     81  CD1        6.8490   21.9510    5.0840 C.3   102  LEU102      0.0001
     82  CD2        8.0120   19.9310    5.8530 C.3   102  LEU102      0.0001
     83  N         14.8970   12.6270    8.1360 N.3   128  ASN128     -0.1240
     84  CA        13.5860   12.2200    8.5620 C.3   128  ASN128      0.1653
     85  C         12.6960   11.8920    7.4130 C.2   128  ASN128      0.2266
     86  O         12.2960   12.7910    6.6840 O.2   128  ASN128     -0.2867
     87  CB        12.9060   13.3100    9.3920 C.3   128  ASN128      0.1155
     88  CG        11.6020   12.8490   10.0540 C.2   128  ASN128      0.2627
     89  OD1       11.2530   11.7060   10.0140 O.2   128  ASN128     -0.2716
     90  ND2       10.9100   13.7660   10.6950 N.am  128  ASN128     -0.0877
     91  N          9.6520   10.3270    7.9190 N.3   130  SER130     -0.1202
     92  CA         8.2650   10.5850    8.2670 C.3   130  SER130      0.2020
     93  C          7.6760   11.8070    7.6220 C.2   130  SER130      0.2619
     94  O          6.4710   11.9150    7.5310 O.2   130  SER130     -0.2717
     95  CB         8.0310   10.7050    9.7720 C.3   130  SER130      0.2103
     96  OG         7.3800    9.5250   10.2670 O.3   130  SER130     -0.2182
     97  N          8.4730   12.7500    7.1800 N.am  131  CYS131     -0.1956
     98  CA         7.8680   13.9790    6.7420 C.3   131  CYS131      0.1828
     99  C          6.6580   13.6750    5.8130 C.2   131  CYS131      0.2467
    100  O          6.6930   12.7410    5.0120 O.2   131  CYS131     -0.2730
    101  CB         8.8980   14.8910    6.0710 C.3   131  CYS131      0.0996
    102  SG         8.8080   16.5770    6.7410 S.3   131  CYS131     -0.0797
    103  N          5.5660   14.4400    5.9490 N.am  132  PRO132     -0.2726
    104  CA         4.6760   14.5230    4.7930 C.3   132  PRO132      0.1402
    105  C          5.4320   15.0630    3.5970 C.2   132  PRO132      0.2269
    106  O          6.4570   15.6850    3.7570 O.2   132  PRO132     -0.2865
    107  CB         3.6030   15.5390    5.2310 C.3   132  PRO132      0.0296
    108  CG         4.1690   16.1980    6.4450 C.3   132  PRO132      0.0237
    109  CD         5.0030   15.1370    7.1140 C.3   132  PRO132      0.0939
    110  N          2.7020    9.8860    4.2220 N.3   139  GLN139     -0.1245
    111  CA         4.0580   10.3150    4.5110 C.3   139  GLN139      0.1566
    112  C          5.1170    9.5590    3.6470 C.2   139  GLN139      0.2260
    113  O          4.8710    8.4590    3.1160 O.2   139  GLN139     -0.2867
    114  CB         4.3380   10.1270    5.9840 C.3   139  GLN139      0.0367
    115  CG         4.2540    8.6830    6.4090 C.3   139  GLN139      0.0905
    116  CD         4.7160    8.4880    7.8470 C.2   139  GLN139      0.2608
    117  OE1        3.9170    8.3720    8.7700 O.2   139  GLN139     -0.2717
    118  NE2        6.0210    8.4400    8.0270 N.am  139  GLN139     -0.0878
    119  N         15.3720    8.2710    9.7620 N.3   165  LYS165     -0.1245
    120  CA        14.3380    8.0410   10.8130 C.3   165  LYS165      0.1561
    121  C         13.0410    7.5310   10.1690 C.2   165  LYS165      0.2260
    122  O         12.4340    8.2190    9.3510 O.2   165  LYS165     -0.2867
    123  CB        14.1430    9.3240   11.6380 C.3   165  LYS165      0.0271
    124  CG        13.0160    9.3220   12.6340 C.3   165  LYS165      0.0035
    125  CD        13.4160    8.6950   13.9600 C.3   165  LYS165      0.0206
    126  CE        12.4300    9.0560   15.0540 C.3   165  LYS165      0.1093
    127  NZ        12.5400   10.4750   15.4610 N.3   165  LYS165     -0.1314
    128  N          9.6730    6.4480   14.4920 N.3   195  ASN195     -0.1225
    129  CA         8.9600    7.7170   14.7500 C.3   195  ASN195      0.1785
    130  C          7.6270    7.3780   15.3970 C.2   195  ASN195      0.2597
    131  O          7.3480    6.1830   15.6340 O.2   195  ASN195     -0.2718
    132  CB         8.7030    8.5120   13.4450 C.3   195  ASN195      0.1169
    133  CG         8.6250   10.0090   13.6990 C.2   195  ASN195      0.2627
    134  OD1        7.8220   10.4710   14.5270 O.2   195  ASN195     -0.2716
    135  ND2        9.4780   10.7740   13.0310 N.am  195  ASN195     -0.0877
    136  N          6.7910    8.4010   15.6470 N.am  196  SER196     -0.1952
    137  CA         5.5540    8.1800   16.3540 C.3   196  SER196      0.1924
    138  C          4.6450    7.1920   15.6730 C.2   196  SER196      0.2314
    139  O          4.6580    7.0520   14.4040 O.2   196  SER196     -0.2863
    140  CB         4.7710    9.4620   16.5990 C.3   196  SER196      0.2116
    141  OG         5.3400   10.6350   16.1210 O.3   196  SER196     -0.2180
    142  N         -1.1010    9.2240   13.9230 N.3   199  ASN199     -0.1240
    143  CA        -2.5120    9.5990   14.0400 C.3   199  ASN199      0.1653
    144  C         -3.4180    8.7980   14.9430 C.2   199  ASN199      0.2266
    145  O         -4.4610    8.2790   14.4710 O.2   199  ASN199     -0.2867
    146  CB        -3.1670    9.6250   12.6320 C.3   199  ASN199      0.1155
    147  CG        -2.5310   10.5920   11.7610 C.2   199  ASN199      0.2627
    148  OD1       -2.7580   11.7880   11.8840 O.2   199  ASN199     -0.2716
    149  ND2       -1.6630   10.1120   10.9220 N.am  199  ASN199     -0.0877
    150  N         -5.5940   19.2440   13.8400 N.3   215  LYS215     -0.1245
    151  CA        -5.9580   17.9550   13.2410 C.3   215  LYS215      0.1561
    152  C         -7.1040   17.2350   13.9770 C.2   215  LYS215      0.2260
    153  O         -7.1230   16.0240   14.1200 O.2   215  LYS215     -0.2867
    154  CB        -4.7040   17.0630   13.1580 C.3   215  LYS215      0.0271
    155  CG        -3.7240   17.4120   12.0310 C.3   215  LYS215      0.0035
    156  CD        -2.4350   16.5970   12.1780 C.3   215  LYS215      0.0206
    157  CE        -2.6820   15.1320   11.8930 C.3   215  LYS215      0.1093
    158  NZ        -1.4070   14.4510   11.4870 N.3   215  LYS215     -0.1314
    159  N          0.5960   11.9760   16.6710 N.3   220  GLY220     -0.1225
    160  CA         1.4930   10.8850   16.8580 C.3   220  GLY220      0.1811
    161  C          1.6250   10.4580   18.2920 C.2   220  GLY220      0.2280
    162  O          1.6330   11.2730   19.2030 O.2   220  GLY220     -0.2866
@<TRIPOS>BOND
     1    78    77    2
     2    77    76    1
     3    76    79    1
     4    76    75    1
     5   113   112    2
     6    79    80    1
     7   105   106    2
     8   105   104    1
     9   112   111    1
    10   110   111    1
    11   111   114    1
    12   104   107    1
    13   104   103    1
    14    80    81    1
    15    80    82    1
    16   100    99    2
    17   107   108    1
    18    99   103   am
    19    99    98    1
    20   103   109    1
    21   114   115    1
    22   101   102    1
    23   101    98    1
    24   115   116    1
    25   108   109    1
    26    86    85    2
    27    98    97    1
    28    71    72    2
    29    71    70    1
    30    97    93   am
    31    85    84    1
    32    94    93    2
    33    93    92    1
    34    25    24    1
    35    70    69    1
    36    70    73    1
    37   116   118   am
    38   116   117    2
    39    91    92    1
    40    83    84    1
    41    92    95    1
    42    84    87    1
    43    74    73    1
    44    24    26    1
    45    24    23    2
    46    22    21    1
    47    22    23    1
    48   122   121    2
    49    87    88    1
    50    68    66    1
    51    21    20    1
    52   119   120    1
    53    95    96    1
    54    89    88    2
    55    88    90   am
    56   121   120    1
    57   120   123    1
    58    66    65    1
    59    66    67    1
    60   149   147   am
    61    20    17    1
    62    65    62    1
    63    16    17    1
    64    17    18    1
    65   158   157    1
    66   123   124    1
    67   147   148    2
    68   147   146    1
    69   157   156    1
    70   155   156    1
    71   155   154    1
    72    12    13    2
    73    12    11    1
    74    64    63    2
    75    60    59    2
    76    33    32    2
    77    14    15    1
    78    14    11    1
    79   146   143    1
    80   124   125    1
    81    59    58    1
    82    59    61   am
    83    11    10    1
    84    62    63    1
    85    62    61    1
    86    18    19    2
    87    58    57    1
    88   135   133   am
    89   154   151    1
    90   151   150    1
    91   151   152    1
    92   132   133    1
    93   132   129    1
    94    32    34   am
    95    32    31    1
    96   133   134    2
    97   142   143    1
    98   125   126    1
    99   152   153    2
   100     4     3    2
   101   143   144    1
   102    10     3   am
   103    57    51   am
   104   139   138    2
   105   145   144    2
   106   128   129    1
   107     3     2    1
   108    48    47    1
   109    27    28    1
   110   129   130    1
   111    31    28    1
   112    28    29    1
   113   126   127    1
   114     8     9    1
   115     8     7    1
   116    51    52    2
   117    51    50    1
   118   130   131    2
   119   130   136   am
   120   136   137    1
   121   138   137    1
   122    47    44    1
   123     6     7    1
   124     6     5    1
   125   141   140    1
   126     2     5    1
   127     2     1    1
   128    29    30    2
   129    46    45    2
   130    45    44    1
   131    45    49   am
   132    44    43    1
   133   137   140    1
   134    49    50    1
   135    50    53    1
   136   159   160    1
   137   160   161    1
   138    38    37    2
   139    53    54    1
   140    41    40    2
   141    43    37   am
   142    37    36    1
   143    54    55    1
   144   161   162    2
   145    40    42   am
   146    40    39    1
   147    36    39    1
   148    36    35    1
   149    55    56    1
