@<TRIPOS>MOLECULE
tmp/3w2vA00.pdb
 132 123 0 0 0
SMALL
GASTEIGER

@<TRIPOS>ATOM
      1  N         35.7040   39.1100   26.0710 N.3     9  LYS9       -0.1245
      2  CA        35.9820   37.7040   26.3190 C.3     9  LYS9        0.1561
      3  C         36.0960   37.4290   27.8050 C.2     9  LYS9        0.2260
      4  O         36.8560   38.0930   28.5120 O.2     9  LYS9       -0.2867
      5  CB        37.2710   37.2360   25.6310 C.3     9  LYS9        0.0271
      6  CG        37.4360   35.7090   25.7070 C.3     9  LYS9        0.0035
      7  CD        38.6850   35.2060   25.0070 C.3     9  LYS9        0.0206
      8  CE        38.6410   33.6920   24.8320 C.3     9  LYS9        0.1093
      9  NZ        39.8480   33.1570   24.1500 N.3     9  LYS9       -0.1314
     10  N         36.2540   29.2470   31.3590 N.3    13  VAL13      -0.1231
     11  CA        34.9570   28.6380   31.1250 C.3    13  VAL13       0.1692
     12  C         34.9680   27.1730   31.5530 C.2    13  VAL13       0.2591
     13  O         34.4820   26.8350   32.6300 O.2    13  VAL13      -0.2718
     14  CB        34.5730   28.6820   29.6450 C.3    13  VAL13       0.0266
     15  CG1       33.2350   28.0050   29.4390 C.3    13  VAL13       0.0020
     16  CG2       34.5620   30.1200   29.1560 C.3    13  VAL13       0.0020
     17  N         35.5320   26.3030   30.7170 N.am   14  GLN14      -0.1979
     18  CA        35.5560   24.8790   31.0420 C.3    14  GLN14       0.1601
     19  C         36.1820   24.5310   32.3970 C.2    14  GLN14       0.2287
     20  O         35.6940   23.6510   33.0920 O.2    14  GLN14      -0.2864
     21  CB        36.2400   24.0910   29.9250 C.3    14  GLN14       0.0394
     22  CG        35.5540   24.2140   28.5600 C.3    14  GLN14       0.0908
     23  CD        34.0990   23.7560   28.5570 C.2    14  GLN14       0.2608
     24  OE1       33.7480   22.7390   29.1630 O.2    14  GLN14      -0.2717
     25  NE2       33.2510   24.4950   27.8490 N.am   14  GLN14      -0.0878
     26  N         33.4130   25.3520   35.0140 N.3    17  ILE17      -0.1245
     27  CA        32.3240   24.3910   34.8490 C.3    17  ILE17       0.1561
     28  C         32.7010   22.9910   35.3770 C.2    17  ILE17       0.2260
     29  O         31.9170   22.3300   36.0670 O.2    17  ILE17      -0.2867
     30  CB        31.9580   24.2690   33.3420 C.3    17  ILE17       0.0252
     31  CG1       31.2010   25.5070   32.8820 C.3    17  ILE17       0.0019
     32  CG2       31.1270   23.0430   33.0810 C.3    17  ILE17       0.0019
     33  CD1       30.9350   25.4810   31.3910 C.3    17  ILE17       0.0001
     34  N         27.6450   27.1730   34.5620 N.3    30  SER30      -0.1217
     35  CA        27.3020   27.5320   33.1990 C.3    30  SER30       0.1889
     36  C         26.4170   28.7810   33.1810 C.2    30  SER30       0.2288
     37  O         26.7050   29.7570   32.4870 O.2    30  SER30      -0.2866
     38  CB        26.5790   26.3580   32.5460 C.3    30  SER30       0.2089
     39  OG        26.2180   26.6760   31.2270 O.3    30  SER30      -0.2183
     40  N         28.1690   32.0210   34.3750 N.3    33  LEU33      -0.1231
     41  CA        29.0270   32.5410   33.3280 C.3    33  LEU33       0.1693
     42  C         28.1960   33.3570   32.3570 C.2    33  LEU33       0.2592
     43  O         28.6230   34.4140   31.8990 O.2    33  LEU33      -0.2718
     44  CB        29.7060   31.4050   32.5660 C.3    33  LEU33       0.0284
     45  CG        31.1140   31.0510   33.0100 C.3    33  LEU33       0.0019
     46  CD1       31.5370   29.7870   32.3100 C.3    33  LEU33       0.0001
     47  CD2       32.0690   32.2050   32.6980 C.3    33  LEU33       0.0001
     48  N         27.0130   32.8530   32.0230 N.am   34  SER34      -0.1952
     49  CA        26.1440   33.5710   31.1010 C.3    34  SER34       0.1924
     50  C         25.6960   34.8880   31.7250 C.2    34  SER34       0.2314
     51  O         25.5540   35.8930   31.0210 O.2    34  SER34      -0.2863
     52  CB        24.9230   32.7250   30.7430 C.3    34  SER34       0.2116
     53  OG        25.2550   31.7300   29.7880 O.3    34  SER34      -0.2180
     54  N         23.8790   32.8180   26.6320 N.3    82  LEU82      -0.1231
     55  CA        24.9090   33.7940   26.2830 C.3    82  LEU82       0.1678
     56  C         26.3070   33.1760   26.3330 C.2    82  LEU82       0.2434
     57  O         26.7210   32.6320   27.3550 O.2    82  LEU82      -0.2733
     58  CB        24.8480   34.9980   27.2340 C.3    82  LEU82       0.0284
     59  CG        23.4860   35.6950   27.3530 C.3    82  LEU82       0.0019
     60  CD1       23.5730   36.8190   28.3860 C.3    82  LEU82       0.0001
     61  CD2       23.0550   36.2280   25.9870 C.3    82  LEU82       0.0001
     62  N         27.0480   33.2450   25.2170 N.am   83  PRO83      -0.2718
     63  CA        28.3990   32.6850   25.1750 C.3    83  PRO83       0.1535
     64  C         29.3710   33.6020   25.9200 C.2    83  PRO83       0.2599
     65  O         28.9710   34.6470   26.4560 O.2    83  PRO83      -0.2715
     66  CB        28.6810   32.5980   23.6850 C.3    83  PRO83       0.0310
     67  CG        27.9740   33.8090   23.1590 C.3    83  PRO83       0.0237
     68  CD        26.6550   33.7660   23.8950 C.3    83  PRO83       0.0939
     69  N         30.6430   33.2180   25.9530 N.am   84  ASN84      -0.1959
     70  CA        31.6310   34.0090   26.6640 C.3    84  ASN84       0.1819
     71  C         32.4070   34.9930   25.7790 C.2    84  ASN84       0.2621
     72  O         33.4340   35.5420   26.1930 O.2    84  ASN84      -0.2715
     73  CB        32.5830   33.0760   27.4220 C.3    84  ASN84       0.1195
     74  CG        33.4800   32.2810   26.5010 C.2    84  ASN84       0.2630
     75  OD1       33.0220   31.6740   25.5280 O.2    84  ASN84      -0.2716
     76  ND2       34.7660   32.2760   26.8020 N.am   84  ASN84      -0.0877
     77  N         31.9130   35.2120   24.5630 N.am   85  LYS85      -0.1977
     78  CA        32.5260   36.1650   23.6350 C.3    85  LYS85       0.1596
     79  C         31.4190   37.0490   23.0780 C.2    85  LYS85       0.2287
     80  O         30.3030   36.5870   22.8740 O.2    85  LYS85      -0.2864
     81  CB        33.2210   35.4530   22.4710 C.3    85  LYS85       0.0298
     82  CG        34.4550   34.6600   22.8570 C.3    85  LYS85       0.0038
     83  CD        35.0010   33.8870   21.6560 C.3    85  LYS85       0.0206
     84  CE        36.1360   32.9530   22.0740 C.3    85  LYS85       0.1093
     85  NZ        36.6600   32.1420   20.9360 N.3    85  LYS85      -0.1314
     86  N         29.4610   21.4050   18.9580 N.3   373  ASP373     -0.1239
     87  CA        30.1670   22.6190   18.5820 C.3   373  ASP373      0.1674
     88  C         30.1680   22.8040   17.0690 C.2   373  ASP373      0.2266
     89  O         30.3550   21.8510   16.3240 O.2   373  ASP373     -0.2867
     90  CB        31.6030   22.5370   19.1030 C.3   373  ASP373      0.1410
     91  CG        32.3490   23.8420   18.9740 C.2   373  ASP373      0.3668
     92  OD1       31.9860   24.8090   19.6720 O.co2 373  ASP373     -0.2456
     93  OD2       33.3070   23.9030   18.1750 O.co2 373  ASP373     -0.2456
     94  N         23.3330   24.4510   28.5320 N.3   408  TYR408     -0.1241
     95  CA        23.8060   25.5690   27.7460 C.3   408  TYR408      0.1605
     96  C         23.5260   25.4390   26.2610 C.2   408  TYR408      0.2264
     97  O         23.5450   24.3430   25.7010 O.2   408  TYR408     -0.2867
     98  CB        25.3070   25.7380   28.0070 C.3   408  TYR408      0.0534
     99  CG        26.0370   26.6860   27.0860 C.ar  408  TYR408     -0.0201
    100  CD1       26.7610   26.2070   25.9970 C.ar  408  TYR408     -0.0009
    101  CD2       26.0410   28.0670   27.3230 C.ar  408  TYR408     -0.0009
    102  CE1       27.4810   27.0800   25.1670 C.ar  408  TYR408      0.0417
    103  CE2       26.7530   28.9470   26.4990 C.ar  408  TYR408      0.0417
    104  CZ        27.4700   28.4460   25.4270 C.ar  408  TYR408      0.1957
    105  OH        28.1810   29.2960   24.6120 O.3   408  TYR408     -0.2866
    106  N         26.8040   26.0040   19.7490 N.3   413  ASP413     -0.1239
    107  CA        27.3580   25.0920   20.7470 C.3   413  ASP413      0.1674
    108  C         26.3070   24.6540   21.7630 C.2   413  ASP413      0.2266
    109  O         25.3830   25.4070   22.0870 O.2   413  ASP413     -0.2867
    110  CB        28.5690   25.7270   21.4380 C.3   413  ASP413      0.1410
    111  CG        28.3510   27.1850   21.7870 C.2   413  ASP413      0.3668
    112  OD1       29.2620   27.7750   22.4050 O.co2 413  ASP413     -0.2456
    113  OD2       27.2820   27.7400   21.4470 O.co2 413  ASP413     -0.2456
    114  N         25.5090   22.0350   25.4720 N.3   415  LEU415     -0.1245
    115  CA        25.9000   21.1880   26.6030 C.3   415  LEU415      0.1561
    116  C         24.5780   20.6870   27.1930 C.2   415  LEU415      0.2260
    117  O         23.7050   21.4850   27.5070 O.2   415  LEU415     -0.2867
    118  CB        26.6790   21.9570   27.6780 C.3   415  LEU415      0.0270
    119  CG        26.8630   21.1860   29.0000 C.3   415  LEU415      0.0019
    120  CD1       27.6050   19.8860   28.7590 C.3   415  LEU415      0.0001
    121  CD2       27.6060   22.0420   30.0090 C.3   415  LEU415      0.0001
    122  N         34.6970   16.5500   26.5510 N.3   464  ARG464     -0.1245
    123  CA        35.3680   17.5970   25.7910 C.3   464  ARG464      0.1563
    124  C         36.3810   16.9300   24.8730 C.2   464  ARG464      0.2260
    125  O         36.5030   17.2900   23.7000 O.2   464  ARG464     -0.2867
    126  CB        36.0930   18.5570   26.7320 C.3   464  ARG464      0.0307
    127  CG        35.1930   19.5160   27.5020 C.3   464  ARG464      0.0489
    128  CD        34.9210   20.7880   26.7000 C.3   464  ARG464      0.2205
    129  NE        33.5110   20.9080   26.3580 N.pl3 464  ARG464     -0.0865
    130  CZ        33.0310   21.7010   25.4030 C.cat 464  ARG464      0.5346
    131  NH1       33.8490   22.4630   24.6810 N.pl3 464  ARG464      0.1354
    132  NH2       31.7240   21.7030   25.1490 N.pl3 464  ARG464      0.1354
@<TRIPOS>BOND
     1    89    88    2
     2    88    87    1
     3    93    91   ar
     4    87    86    1
     5    87    90    1
     6    91    90    1
     7    91    92   ar
     8   106   107    1
     9   107   110    1
    10   107   108    1
    11    85    84    1
    12   110   111    1
    13   113   111   ar
    14    83    84    1
    15    83    82    1
    16   108   109    2
    17   111   112   ar
    18    81    82    1
    19    81    78    1
    20    80    79    2
    21    79    78    1
    22    67    66    1
    23    67    68    1
    24    78    77    1
    25    66    63    1
    26   125   124    2
    27    68    62    1
    28     9     8    1
    29    77    71   am
    30   105   104    1
    31   131   130    1
    32     8     7    1
    33   124   123    1
    34     7     6    1
    35   132   130    1
    36   102   104   ar
    37   102   100   ar
    38    63    62    1
    39    63    64    1
    40    62    56   am
    41   130   129    2
    42   104   103   ar
    43   114   115    1
    44    75    74    2
    45     5     6    1
    46     5     2    1
    47    97    96    2
    48    71    72    2
    49    71    70    1
    50   123   122    1
    51   123   126    1
    52    64    69   am
    53    64    65    2
    54    69    70    1
    55    61    59    1
    56   100    99   ar
    57     1     2    1
    58    96    95    1
    59    55    56    1
    60    55    54    1
    61    55    58    1
    62     2     3    1
    63    56    57    2
    64   129   128    1
    65   103   101   ar
    66    74    76   am
    67    74    73    1
    68   115   116    1
    69   115   118    1
    70    70    73    1
    71   128   127    1
    72   126   127    1
    73    99   101   ar
    74    99    98    1
    75   116   117    2
    76    58    59    1
    77    59    60    1
    78   118   119    1
    79    95    98    1
    80    95    94    1
    81     3     4    2
    82    25    23   am
    83    23    22    1
    84    23    24    2
    85    22    21    1
    86   120   119    1
    87   119   121    1
    88    16    14    1
    89    15    14    1
    90    14    11    1
    91    53    52    1
    92    21    18    1
    93    17    18    1
    94    17    12   am
    95    52    49    1
    96    51    50    2
    97    18    19    1
    98    49    50    1
    99    49    48    1
   100    11    10    1
   101    11    12    1
   102    39    38    1
   103    33    31    1
   104    12    13    2
   105    43    42    2
   106    48    42   am
   107    46    45    1
   108    42    41    1
   109    19    20    2
   110    37    36    2
   111    38    35    1
   112    44    45    1
   113    44    41    1
   114    47    45    1
   115    31    30    1
   116    32    30    1
   117    36    35    1
   118    35    34    1
   119    41    40    1
   120    30    27    1
   121    27    26    1
   122    27    28    1
   123    28    29    2
