@<TRIPOS>MOLECULE
tmp/3w2wA01.pdb
 184 173 0 0 0
SMALL
GASTEIGER

@<TRIPOS>ATOM
      1  N         25.6870   28.0270   18.0340 N.3    56  TYR56      -0.1241
      2  CA        25.6660   29.4160   18.4690 C.3    56  TYR56       0.1605
      3  C         25.3590   29.4740   19.9670 C.2    56  TYR56       0.2264
      4  O         24.4240   28.8300   20.4430 O.2    56  TYR56      -0.2867
      5  CB        24.5980   30.1740   17.6640 C.3    56  TYR56       0.0534
      6  CG        24.2280   31.5210   18.2200 C.ar   56  TYR56      -0.0201
      7  CD1       25.0900   32.6110   18.0900 C.ar   56  TYR56      -0.0009
      8  CD2       23.0170   31.7050   18.9000 C.ar   56  TYR56      -0.0009
      9  CE1       24.7600   33.8600   18.6230 C.ar   56  TYR56       0.0417
     10  CE2       22.6710   32.9530   19.4380 C.ar   56  TYR56       0.0417
     11  CZ        23.5470   34.0260   19.2960 C.ar   56  TYR56       0.1957
     12  OH        23.2140   35.2640   19.8110 O.3    56  TYR56      -0.2866
     13  N         21.9580   35.1300   25.8160 N.3    85  ASN85      -0.1225
     14  CA        20.9980   34.3180   26.5630 C.3    85  ASN85       0.1785
     15  C         20.2560   33.2860   25.7220 C.2    85  ASN85       0.2597
     16  O         19.2560   32.7160   26.1590 O.2    85  ASN85      -0.2718
     17  CB        19.9770   35.2210   27.2480 C.3    85  ASN85       0.1169
     18  CG        19.0670   35.9060   26.2640 C.2    85  ASN85       0.2627
     19  OD1       19.5300   36.4920   25.2850 O.2    85  ASN85      -0.2716
     20  ND2       17.7650   35.8370   26.5110 N.am   85  ASN85      -0.0877
     21  N         20.7410   33.0440   24.5160 N.am   86  LYS86      -0.1980
     22  CA        20.1040   32.0650   23.6450 C.3    86  LYS86       0.1596
     23  C         21.1940   31.2550   22.9420 C.2    86  LYS86       0.2287
     24  O         22.2790   31.7690   22.6640 O.2    86  LYS86      -0.2864
     25  CB        19.2060   32.7990   22.6460 C.3    86  LYS86       0.0298
     26  CG        18.4750   31.9340   21.6440 C.3    86  LYS86       0.0038
     27  CD        17.4900   32.8030   20.8660 C.3    86  LYS86       0.0206
     28  CE        17.1350   32.2160   19.5020 C.3    86  LYS86       0.1093
     29  NZ        16.2040   33.1260   18.7520 N.3    86  LYS86      -0.1314
     30  N         22.0240   27.5110   20.2550 N.3    88  LEU88      -0.1245
     31  CA        21.5290   26.4530   19.3980 C.3    88  LEU88       0.1561
     32  C         22.6310   25.3970   19.2290 C.2    88  LEU88       0.2260
     33  O         23.7810   25.7220   18.9150 O.2    88  LEU88      -0.2867
     34  CB        21.1340   27.0540   18.0450 C.3    88  LEU88       0.0270
     35  CG        20.2210   26.2180   17.1570 C.3    88  LEU88       0.0019
     36  CD1       18.8580   26.0650   17.8290 C.3    88  LEU88       0.0001
     37  CD2       20.0880   26.8950   15.7940 C.3    88  LEU88       0.0001
     38  N         15.0920   26.5450   11.8130 N.3   206  VAL206     -0.1231
     39  CA        15.5940   27.3650   12.9060 C.3   206  VAL206      0.1692
     40  C         14.5120   28.3500   13.3440 C.2   206  VAL206      0.2591
     41  O         14.2980   28.5640   14.5420 O.2   206  VAL206     -0.2718
     42  CB        16.8600   28.1400   12.4780 C.3   206  VAL206      0.0266
     43  CG1       17.2780   29.1190   13.5650 C.3   206  VAL206      0.0020
     44  CG2       17.9900   27.1600   12.2060 C.3   206  VAL206      0.0020
     45  N         13.8300   28.9400   12.3650 N.am  207  LYS207     -0.1980
     46  CA        12.7590   29.8900   12.6340 C.3   207  LYS207      0.1596
     47  C         11.5970   29.1890   13.3210 C.2   207  LYS207      0.2287
     48  O         11.0160   29.7150   14.2680 O.2   207  LYS207     -0.2864
     49  CB        12.2810   30.5400   11.3320 C.3   207  LYS207      0.0298
     50  CG        13.0570   31.7900   10.9210 C.3   207  LYS207      0.0038
     51  CD        14.5720   31.5880   10.9990 C.3   207  LYS207      0.0206
     52  CE        15.3330   32.9080   10.7870 C.3   207  LYS207      0.1093
     53  NZ        16.7660   32.8480   11.2500 N.3   207  LYS207     -0.1314
     54  N         23.0420   47.1320   18.6550 N.3   374  ASP374     -0.1225
     55  CA        22.3620   45.8870   18.3440 C.3   374  ASP374      0.1805
     56  C         22.1200   45.7110   16.8440 C.2   374  ASP374      0.2598
     57  O         21.5520   46.5830   16.1820 O.2   374  ASP374     -0.2718
     58  CB        21.0650   45.8480   19.1490 C.3   374  ASP374      0.1424
     59  CG        20.3030   44.5830   18.9580 C.2   374  ASP374      0.3668
     60  OD1       19.6840   44.4570   17.8990 O.co2 374  ASP374     -0.2456
     61  OD2       20.3140   43.7190   19.8610 O.co2 374  ASP374     -0.2456
     62  N         22.5820   44.5800   16.3180 N.am  375  GLY375     -0.1942
     63  CA        22.4470   44.2810   14.9020 C.3   375  GLY375      0.2014
     64  C         21.0510   44.4210   14.3230 C.2   375  GLY375      0.2639
     65  O         20.0800   43.9310   14.8770 O.2   375  GLY375     -0.2714
     66  N         20.9540   45.0800   13.1760 N.am  376  ASP376     -0.1957
     67  CA        19.6650   45.2870   12.5390 C.3   376  ASP376      0.1840
     68  C         19.2370   44.0940   11.6880 C.2   376  ASP376      0.2622
     69  O         19.9680   43.6580   10.8040 O.2   376  ASP376     -0.2715
     70  CB        19.7360   46.5530   11.6850 C.3   376  ASP376      0.1450
     71  CG        19.8880   47.8180   12.5250 C.2   376  ASP376      0.3671
     72  OD1       20.6910   48.6880   12.1400 O.co2 376  ASP376     -0.2456
     73  OD2       19.1990   47.9460   13.5590 O.co2 376  ASP376     -0.2456
     74  N         18.0560   43.5590   11.9730 N.am  377  ASP377     -0.1957
     75  CA        17.5120   42.4310   11.2170 C.3   377  ASP377      0.1840
     76  C         18.4440   41.2230   11.1190 C.2   377  ASP377      0.2622
     77  O         18.5270   40.5930   10.0670 O.2   377  ASP377     -0.2715
     78  CB        17.1390   42.8800    9.7930 C.3   377  ASP377      0.1450
     79  CG        16.2800   44.1290    9.7790 C.2   377  ASP377      0.3671
     80  OD1       15.1900   44.1140   10.3890 O.co2 377  ASP377     -0.2456
     81  OD2       16.7010   45.1320    9.1620 O.co2 377  ASP377     -0.2456
     82  N         19.1340   40.8920   12.2050 N.am  378  MET378     -0.1963
     83  CA        20.0480   39.7500   12.2040 C.3   378  MET378      0.1736
     84  C         19.3400   38.4360   11.8790 C.2   378  MET378      0.2617
     85  O         19.8990   37.5720   11.2030 O.2   378  MET378     -0.2715
     86  CB        20.7480   39.6360   13.5610 C.3   378  MET378      0.0427
     87  CG        21.8490   40.6490   13.7600 C.3   378  MET378      0.0599
     88  SD        23.1070   40.4420   12.4980 S.3   378  MET378     -0.1393
     89  CE        22.5980   41.6970   11.2700 C.3   378  MET378      0.0692
     90  N         18.1120   38.2920   12.3680 N.am  379  GLY379     -0.1940
     91  CA        17.3480   37.0880   12.1110 C.3   379  GLY379      0.2014
     92  C         17.1700   36.8000   10.6300 C.2   379  GLY379      0.2638
     93  O         17.3820   35.6710   10.1950 O.2   379  GLY379     -0.2714
     94  N         16.7830   37.8120    9.8540 N.am  380  LYS380     -0.1977
     95  CA        16.5760   37.6490    8.4140 C.3   380  LYS380      0.1596
     96  C         17.8960   37.5670    7.6520 C.2   380  LYS380      0.2287
     97  O         18.0580   36.7290    6.7640 O.2   380  LYS380     -0.2864
     98  CB        15.7410   38.8080    7.8510 C.3   380  LYS380      0.0298
     99  CG        14.3150   38.9270    8.4020 C.3   380  LYS380      0.0038
    100  CD        13.3760   37.8010    7.9410 C.3   380  LYS380      0.0206
    101  CE        13.4540   36.5580    8.8300 C.3   380  LYS380      0.1093
    102  NZ        12.3690   35.5660    8.5300 N.3   380  LYS380     -0.1314
    103  N         20.7380   36.4880    8.6460 N.3   382  ILE382     -0.1245
    104  CA        21.4310   35.2240    8.8900 C.3   382  ILE382      0.1561
    105  C         20.7990   34.0630    8.1240 C.2   382  ILE382      0.2260
    106  O         21.4960   33.3200    7.4330 O.2   382  ILE382     -0.2867
    107  CB        21.4760   34.8950   10.4040 C.3   382  ILE382      0.0252
    108  CG1       22.4890   35.8210   11.0910 C.3   382  ILE382      0.0019
    109  CG2       21.8430   33.4300   10.6240 C.3   382  ILE382      0.0019
    110  CD1       22.5570   35.6710   12.5930 C.3   382  ILE382      0.0001
    111  N         26.3210   28.2240    9.0320 N.3   394  HIS394     -0.1241
    112  CA        25.7490   28.8860   10.1970 C.3   394  HIS394      0.1621
    113  C         26.8280   28.9810   11.2740 C.2   394  HIS394      0.2264
    114  O         26.9740   30.0060   11.9410 O.2   394  HIS394     -0.2867
    115  CB        24.5450   28.0990   10.7130 C.3   394  HIS394      0.0745
    116  CG        23.7320   28.8360   11.7300 C.ar  394  HIS394      0.0817
    117  ND1       22.5300   28.3600   12.2100 N.ar  394  HIS394     -0.2268
    118  CD2       23.9440   30.0170   12.3580 C.ar  394  HIS394      0.1154
    119  CE1       22.0380   29.2150   13.0880 C.ar  394  HIS394      0.1986
    120  NE2       22.8770   30.2290   13.1960 N.ar  394  HIS394     -0.2212
    121  N         29.1480   31.6630   10.4120 N.3   397  ILE397     -0.1231
    122  CA        28.6020   32.9790   10.7160 C.3   397  ILE397      0.1692
    123  C         28.7880   33.2770   12.1970 C.2   397  ILE397      0.2592
    124  O         29.2590   34.3540   12.5680 O.2   397  ILE397     -0.2718
    125  CB        27.0930   33.0650   10.3720 C.3   397  ILE397      0.0266
    126  CG1       26.8860   32.8620    8.8690 C.3   397  ILE397      0.0019
    127  CG2       26.5410   34.4330   10.7720 C.3   397  ILE397      0.0020
    128  CD1       25.4300   32.8660    8.4350 C.3   397  ILE397      0.0001
    129  N         28.4310   32.3090   13.0370 N.am  398  SER398     -0.1952
    130  CA        28.5480   32.4660   14.4800 C.3   398  SER398      0.1924
    131  C         29.9800   32.7260   14.9260 C.2   398  SER398      0.2314
    132  O         30.2170   33.5480   15.8140 O.2   398  SER398     -0.2863
    133  CB        28.0030   31.2300   15.1840 C.3   398  SER398      0.2116
    134  OG        26.6880   30.9510   14.7340 O.3   398  SER398     -0.2180
    135  N         30.9580   36.1850   14.3030 N.3   401  LEU401     -0.1245
    136  CA        30.3440   37.0700   15.2870 C.3   401  LEU401      0.1561
    137  C         31.0500   37.0250   16.6500 C.2   401  LEU401      0.2260
    138  O         31.2810   38.0680   17.2700 O.2   401  LEU401     -0.2867
    139  CB        28.8560   36.7220   15.4400 C.3   401  LEU401      0.0270
    140  CG        27.9890   37.2340   14.2820 C.3   401  LEU401      0.0019
    141  CD1       26.6510   36.5290   14.2580 C.3   401  LEU401      0.0001
    142  CD2       27.8150   38.7460   14.4260 C.3   401  LEU401      0.0001
    143  N         26.6470   40.6020   17.9060 N.3   425  ASP425     -0.1225
    144  CA        26.2940   41.8250   17.2000 C.3   425  ASP425      0.1805
    145  C         25.7660   42.8570   18.2120 C.2   425  ASP425      0.2597
    146  O         25.5070   44.0030   17.8530 O.2   425  ASP425     -0.2718
    147  CB        25.1930   41.5210   16.1980 C.3   425  ASP425      0.1424
    148  CG        23.8670   41.2620   16.8800 C.2   425  ASP425      0.3668
    149  OD1       23.1800   42.2510   17.2120 O.co2 425  ASP425     -0.2456
    150  OD2       23.5210   40.0840   17.1160 O.co2 425  ASP425     -0.2456
    151  N         25.5930   42.4440   19.4670 N.am  426  ASP426     -0.1974
    152  CA        25.0700   43.3370   20.5000 C.3   426  ASP426      0.1709
    153  C         26.1150   43.8080   21.5100 C.2   426  ASP426      0.2293
    154  O         27.0460   43.0820   21.8560 O.2   426  ASP426     -0.2864
    155  CB        23.8830   42.6710   21.2180 C.3   426  ASP426      0.1436
    156  CG        24.1130   41.1870   21.4930 C.2   426  ASP426      0.3671
    157  OD1       23.1770   40.5250   21.9990 O.co2 426  ASP426     -0.2456
    158  OD2       25.2220   40.6820   21.2020 O.co2 426  ASP426     -0.2456
    159  N         15.5890   50.7050   20.5740 N.3   484  ASN484     -0.1240
    160  CA        14.3850   50.0660   20.0620 C.3   484  ASN484      0.1653
    161  C         13.3120   50.9450   19.4280 C.2   484  ASN484      0.2266
    162  O         12.8250   50.6400   18.3430 O.2   484  ASN484     -0.2867
    163  CB        13.7320   49.2550   21.1820 C.3   484  ASN484      0.1155
    164  CG        14.6040   48.1200   21.6610 C.2   484  ASN484      0.2627
    165  OD1       14.5540   47.7400   22.8270 O.2   484  ASN484     -0.2716
    166  ND2       15.4030   47.5630   20.7580 N.am  484  ASN484     -0.0877
    167  N         15.8260   51.9680   15.8570 N.3   488  LYS488     -0.1245
    168  CA        15.2650   50.8350   15.1340 C.3   488  LYS488      0.1561
    169  C         13.9210   51.1590   14.4820 C.2   488  LYS488      0.2260
    170  O         13.3890   50.3550   13.7200 O.2   488  LYS488     -0.2867
    171  CB        15.1010   49.6390   16.0780 C.3   488  LYS488      0.0271
    172  CG        16.0780   48.5070   15.8360 C.3   488  LYS488      0.0035
    173  CD        17.1740   48.4820   16.8700 C.3   488  LYS488      0.0206
    174  CE        17.7670   47.0920   17.0550 C.3   488  LYS488      0.1093
    175  NZ        18.5580   46.6050   15.8920 N.3   488  LYS488     -0.1314
    176  N         16.7040   51.2440    9.3780 N.3   493  LYS493     -0.1245
    177  CA        17.5170   51.1490   10.5880 C.3   493  LYS493      0.1561
    178  C         18.9330   51.6720   10.4090 C.2   493  LYS493      0.2260
    179  O         19.1240   52.7390    9.8450 O.2   493  LYS493     -0.2867
    180  CB        17.5250   49.6960   11.0770 C.3   493  LYS493      0.0271
    181  CG        16.0970   49.1970   11.2760 C.3   493  LYS493      0.0035
    182  CD        15.9900   47.7750   11.7600 C.3   493  LYS493      0.0206
    183  CE        14.5310   47.4120   11.9520 C.3   493  LYS493      0.1093
    184  NZ        14.3500   46.0440   12.5010 N.3   493  LYS493     -0.1314
@<TRIPOS>BOND
     1    97    96    2
     2   106   105    2
     3    96    95    1
     4    98    99    1
     5    98    95    1
     6   100    99    1
     7   100   101    1
     8   105   104    1
     9    95    94    1
    10   128   126    1
    11   102   101    1
    12   103   104    1
    13   126   125    1
    14   104   107    1
    15   111   112    1
    16    81    79   ar
    17   176   177    1
    18    79    78    1
    19    79    80   ar
    20    78    75    1
    21   179   178    2
    22    94    92   am
    23    77    76    2
    24    93    92    2
    25   112   115    1
    26   112   113    1
    27   125   122    1
    28   125   127    1
    29   107   109    1
    30   107   108    1
    31   178   177    1
    32   121   122    1
    33   177   180    1
    34    92    91    1
    35   115   116    1
    36   122   123    1
    37    52    51    1
    38    52    53    1
    39    69    68    2
    40    50    51    1
    41    50    49    1
    42   180   181    1
    43   108   110    1
    44    76    75    1
    45    76    82   am
    46    85    84    2
    47    75    74    1
    48    89    88    1
    49   113   114    2
    50   181   182    1
    51    49    46    1
    52    70    71    1
    53    70    67    1
    54    68    74   am
    55    68    67    1
    56   116   117   ar
    57   116   118   ar
    58   182   183    1
    59    38    39    1
    60    84    83    1
    61    84    90   am
    62   183   184    1
    63    91    90    1
    64    72    71   ar
    65   123   124    2
    66   123   129   am
    67    83    82    1
    68    83    86    1
    69    44    42    1
    70   117   119   ar
    71   118   120   ar
    72    45    46    1
    73    45    40   am
    74    42    39    1
    75    42    43    1
    76    88    87    1
    77    71    73   ar
    78    67    66    1
    79    46    47    1
    80    39    40    1
    81   129   130    1
    82   119   120   ar
    83    66    64   am
    84    47    48    2
    85    40    41    2
    86    86    87    1
    87   170   169    2
    88   141   140    1
    89   140   142    1
    90   140   139    1
    91   135   136    1
    92    64    65    2
    93    64    63    1
    94   130   131    1
    95   130   133    1
    96   169   168    1
    97   134   133    1
    98    63    62    1
    99   131   132    2
   100   168   167    1
   101   168   171    1
   102   136   139    1
   103   136   137    1
   104    37    35    1
   105   172   171    1
   106   172   173    1
   107   175   174    1
   108    57    56    2
   109   147   148    1
   110   147   144    1
   111    62    56   am
   112   137   138    2
   113    56    55    1
   114   173   174    1
   115   148   150   ar
   116   148   149   ar
   117    35    36    1
   118    35    34    1
   119   144   143    1
   120   144   145    1
   121     5     6    1
   122     5     2    1
   123   146   145    2
   124    60    59   ar
   125     1     2    1
   126    34    31    1
   127     7     6   ar
   128     7     9   ar
   129   145   151   am
   130     6     8   ar
   131   162   161    2
   132    55    54    1
   133    55    58    1
   134     2     3    1
   135     9    11   ar
   136    29    28    1
   137     8    10   ar
   138    33    32    2
   139    59    58    1
   140    59    61   ar
   141    32    31    1
   142    11    10   ar
   143    11    12    1
   144    31    30    1
   145   161   160    1
   146   151   152    1
   147    28    27    1
   148     3     4    2
   149   160   159    1
   150   160   163    1
   151   152   155    1
   152   152   153    1
   153   166   164   am
   154    27    26    1
   155   163   164    1
   156   158   156   ar
   157   155   156    1
   158   156   157   ar
   159   153   154    2
   160    26    25    1
   161   164   165    2
   162    25    22    1
   163    24    23    2
   164    23    22    1
   165    22    21    1
   166    21    15   am
   167    19    18    2
   168    15    16    2
   169    15    14    1
   170    13    14    1
   171    18    20   am
   172    18    17    1
   173    14    17    1
