@<TRIPOS>MOLECULE
tmp/3w2wA00.pdb
 164 155 0 0 0
SMALL
GASTEIGER

@<TRIPOS>ATOM
      1  N         17.1500   28.8980   25.9530 N.3    10  LYS10      -0.1245
      2  CA        16.7570   30.2890   26.1640 C.3    10  LYS10       0.1561
      3  C         16.7230   30.5700   27.6590 C.2    10  LYS10       0.2260
      4  O         16.1330   29.8110   28.4250 O.2    10  LYS10      -0.2867
      5  CB        15.3670   30.5530   25.5850 C.3    10  LYS10       0.0271
      6  CG        14.9160   32.0160   25.6400 C.3    10  LYS10       0.0035
      7  CD        15.7030   32.8540   24.6500 C.3    10  LYS10       0.0206
      8  CE        15.1080   34.2460   24.4810 C.3    10  LYS10       0.1093
      9  NZ        13.7210   34.1930   23.9460 N.3    10  LYS10      -0.1314
     10  N         15.7150   33.5310   30.4950 N.3    12  VAL12      -0.1231
     11  CA        15.0800   34.8140   30.8080 C.3    12  VAL12       0.1678
     12  C         14.8860   34.9240   32.3150 C.2    12  VAL12       0.2434
     13  O         14.9130   33.9160   33.0170 O.2    12  VAL12      -0.2733
     14  CB        13.6910   34.9630   30.1400 C.3    12  VAL12       0.0265
     15  CG1       13.8360   34.9720   28.6220 C.3    12  VAL12       0.0020
     16  CG2       12.7530   33.8420   30.6010 C.3    12  VAL12       0.0020
     17  N         14.7230   36.1520   32.8410 N.am   13  PRO13      -0.2718
     18  CA        14.7100   37.4490   32.1560 C.3    13  PRO13       0.1535
     19  C         16.1170   38.0700   31.9950 C.2    13  PRO13       0.2598
     20  O         17.0700   37.6710   32.6760 O.2    13  PRO13      -0.2715
     21  CB        13.7930   38.2840   33.0410 C.3    13  PRO13       0.0310
     22  CG        14.1380   37.8000   34.3980 C.3    13  PRO13       0.0237
     23  CD        14.2020   36.2910   34.2140 C.3    13  PRO13       0.0939
     24  N         16.2360   39.0410   31.0840 N.am   14  VAL14      -0.1964
     25  CA        17.5060   39.7060   30.8060 C.3    14  VAL14       0.1727
     26  C         17.5270   41.1910   31.1840 C.2    14  VAL14       0.2616
     27  O         18.0440   41.5630   32.2480 O.2    14  VAL14      -0.2715
     28  CB        17.8700   39.5880   29.3130 C.3    14  VAL14       0.0290
     29  CG1       19.2050   40.2560   29.0450 C.3    14  VAL14       0.0023
     30  CG2       17.9010   38.1210   28.8960 C.3    14  VAL14       0.0023
     31  N         16.9630   42.0420   30.3240 N.am   15  GLN15      -0.1964
     32  CA        16.9690   43.4730   30.5930 C.3    15  GLN15       0.1718
     33  C         16.3620   43.8650   31.9440 C.2    15  GLN15       0.2458
     34  O         16.8870   44.7430   32.6250 O.2    15  GLN15      -0.2730
     35  CB        16.2940   44.2450   29.4440 C.3    15  GLN15       0.0407
     36  CG        17.0410   44.1660   28.0970 C.3    15  GLN15       0.0908
     37  CD        18.5230   44.5440   28.1980 C.2    15  GLN15       0.2608
     38  OE1       18.8990   45.4970   28.9020 O.2    15  GLN15      -0.2717
     39  NE2       19.3690   43.8060   27.4810 N.am   15  GLN15      -0.0878
     40  N         15.2410   43.2450   32.3410 N.am   16  PRO16      -0.2727
     41  CA        14.6250   43.5790   33.6400 C.3    16  PRO16       0.1402
     42  C         15.5650   43.2950   34.8310 C.2    16  PRO16       0.2269
     43  O         15.5440   43.9990   35.8390 O.2    16  PRO16      -0.2865
     44  CB        13.3810   42.6870   33.6750 C.3    16  PRO16       0.0296
     45  CG        12.9840   42.6240   32.2390 C.3    16  PRO16       0.0237
     46  CD        14.3150   42.4540   31.5090 C.3    16  PRO16       0.0939
     47  N         19.0310   43.1730   34.6230 N.3    18  ILE18      -0.1245
     48  CA        20.1540   44.0920   34.5000 C.3    18  ILE18       0.1561
     49  C         19.7830   45.5020   34.9950 C.2    18  ILE18       0.2260
     50  O         20.5800   46.1780   35.6510 O.2    18  ILE18      -0.2867
     51  CB        20.6050   44.1330   33.0320 C.3    18  ILE18       0.0252
     52  CG1       21.3140   42.8250   32.6960 C.3    18  ILE18       0.0019
     53  CG2       21.5170   45.2970   32.7680 C.3    18  ILE18       0.0019
     54  CD1       21.6230   42.6720   31.2230 C.3    18  ILE18       0.0001
     55  N         24.7960   41.2660   34.2340 N.3    31  SER31      -0.1217
     56  CA        25.1700   40.8780   32.8800 C.3    31  SER31       0.1889
     57  C         26.1280   39.6960   32.8570 C.2    31  SER31       0.2288
     58  O         25.9230   38.7270   32.1160 O.2    31  SER31      -0.2866
     59  CB        25.7950   42.0760   32.1630 C.3    31  SER31       0.2089
     60  OG        26.2560   41.7150   30.8740 O.3    31  SER31      -0.2183
     61  N         24.5210   36.5080   33.9320 N.3    34  LEU34      -0.1231
     62  CA        23.6680   35.9620   32.8870 C.3    34  LEU34       0.1693
     63  C         24.5120   35.1210   31.9440 C.2    34  LEU34       0.2592
     64  O         24.1360   34.0150   31.5970 O.2    34  LEU34      -0.2718
     65  CB        22.9610   37.0830   32.1220 C.3    34  LEU34       0.0284
     66  CG        21.5580   37.3350   32.6650 C.3    34  LEU34       0.0019
     67  CD1       21.0620   38.6900   32.2240 C.3    34  LEU34       0.0001
     68  CD2       20.6370   36.2180   32.1980 C.3    34  LEU34       0.0001
     69  N         25.6560   35.6450   31.5270 N.am   35  SER35      -0.1952
     70  CA        26.5420   34.8930   30.6480 C.3    35  SER35       0.1924
     71  C         26.9870   33.6120   31.3680 C.2    35  SER35       0.2314
     72  O         27.1240   32.5490   30.7490 O.2    35  SER35      -0.2863
     73  CB        27.7690   35.7290   30.2860 C.3    35  SER35       0.2116
     74  OG        27.4190   36.8630   29.5130 O.3    35  SER35      -0.2180
     75  N         28.6430   35.8020   26.3180 N.3    83  LEU83      -0.1231
     76  CA        27.6650   34.7890   25.9390 C.3    83  LEU83       0.1678
     77  C         26.2340   35.3010   26.0240 C.2    83  LEU83       0.2434
     78  O         25.7920   35.7470   27.0800 O.2    83  LEU83      -0.2733
     79  CB        27.8260   33.5530   26.8300 C.3    83  LEU83       0.0284
     80  CG        29.1990   32.8930   26.6840 C.3    83  LEU83       0.0019
     81  CD1       29.4510   31.8980   27.8120 C.3    83  LEU83       0.0001
     82  CD2       29.2690   32.2170   25.3270 C.3    83  LEU83       0.0001
     83  N         25.4950   35.2450   24.9020 N.am   84  PRO84      -0.2718
     84  CA        24.1030   35.6970   24.8320 C.3    84  PRO84       0.1535
     85  C         23.2110   34.7350   25.5960 C.2    84  PRO84       0.2598
     86  O         23.6600   33.6540   25.9780 O.2    84  PRO84      -0.2715
     87  CB        23.8180   35.7020   23.3370 C.3    84  PRO84       0.0310
     88  CG        24.6620   34.5740   22.8400 C.3    84  PRO84       0.0237
     89  CD        25.9600   34.7740   23.5860 C.3    84  PRO84       0.0939
     90  N         21.9580   35.1300   25.8160 N.am   85  ASN85      -0.1973
     91  CA        20.9980   34.3180   26.5630 C.3    85  ASN85       0.1688
     92  C         20.2560   33.2860   25.7220 C.2    85  ASN85       0.2292
     93  O         19.2560   32.7160   26.1590 O.2    85  ASN85      -0.2864
     94  CB        19.9770   35.2210   27.2480 C.3    85  ASN85       0.1181
     95  CG        19.0670   35.9060   26.2640 C.2    85  ASN85       0.2629
     96  OD1       19.5300   36.4920   25.2850 O.2    85  ASN85      -0.2716
     97  ND2       17.7650   35.8370   26.5110 N.am   85  ASN85      -0.0877
     98  N          9.6660   29.6090   21.8370 N.3   214  GLU214     -0.1245
     99  CA         9.0260   30.7380   22.4910 C.3   214  GLU214      0.1567
    100  C          7.7370   30.3500   23.1820 C.2   214  GLU214      0.2260
    101  O          7.4100   30.8910   24.2230 O.2   214  GLU214     -0.2867
    102  CB         8.7780   31.8660   21.4940 C.3   214  GLU214      0.0388
    103  CG        10.0260   32.6990   21.2780 C.3   214  GLU214      0.1160
    104  CD        10.6680   33.0840   22.6020 C.2   214  GLU214      0.3649
    105  OE1       11.8570   32.7570   22.7980 O.co2 214  GLU214     -0.2457
    106  OE2        9.9770   33.7030   23.4450 O.co2 214  GLU214     -0.2457
    107  N          7.8670   30.4070   32.2120 N.3   221  ARG221     -0.1245
    108  CA         8.1350   31.6060   33.0010 C.3   221  ARG221      0.1563
    109  C          6.9320   32.0430   33.8330 C.2   221  ARG221      0.2260
    110  O          7.0610   32.8680   34.7280 O.2   221  ARG221     -0.2867
    111  CB         8.6010   32.7500   32.0900 C.3   221  ARG221      0.0307
    112  CG         7.5010   33.4640   31.3150 C.3   221  ARG221      0.0489
    113  CD         8.0930   34.2780   30.1680 C.3   221  ARG221      0.2205
    114  NE         9.1380   35.2000   30.6070 N.pl3 221  ARG221     -0.0865
    115  CZ         9.8970   35.9120   29.7760 C.cat 221  ARG221      0.5346
    116  NH1        9.7200   35.8020   28.4650 N.pl3 221  ARG221      0.1354
    117  NH2       10.8380   36.7260   30.2500 N.pl3 221  ARG221      0.1354
    118  N         23.0420   47.1320   18.6550 N.3   374  ASP374     -0.1239
    119  CA        22.3620   45.8870   18.3440 C.3   374  ASP374      0.1674
    120  C         22.1200   45.7110   16.8440 C.2   374  ASP374      0.2266
    121  O         21.5520   46.5830   16.1820 O.2   374  ASP374     -0.2867
    122  CB        21.0650   45.8480   19.1490 C.3   374  ASP374      0.1410
    123  CG        20.3030   44.5830   18.9580 C.2   374  ASP374      0.3668
    124  OD1       19.6840   44.4570   17.8990 O.co2 374  ASP374     -0.2456
    125  OD2       20.3140   43.7190   19.8610 O.co2 374  ASP374     -0.2456
    126  N         28.9900   44.0490   28.2150 N.3   421  TYR421     -0.1241
    127  CA        28.5480   42.9090   27.4240 C.3   421  TYR421      0.1605
    128  C         28.8280   43.1050   25.9390 C.2   421  TYR421      0.2264
    129  O         28.7950   44.2220   25.4210 O.2   421  TYR421     -0.2867
    130  CB        27.0490   42.6620   27.6740 C.3   421  TYR421      0.0534
    131  CG        26.3440   41.7290   26.6890 C.ar  421  TYR421     -0.0201
    132  CD1       25.6080   42.2400   25.6080 C.ar  421  TYR421     -0.0009
    133  CD2       26.3820   40.3350   26.8580 C.ar  421  TYR421     -0.0009
    134  CE1       24.9270   41.3920   24.7300 C.ar  421  TYR421      0.0417
    135  CE2       25.7050   39.4770   25.9840 C.ar  421  TYR421      0.0417
    136  CZ        24.9770   40.0120   24.9210 C.ar  421  TYR421      0.1957
    137  OH        24.2990   39.1660   24.0600 O.3   421  TYR421     -0.2866
    138  N         25.5930   42.4440   19.4670 N.3   426  ASP426     -0.1239
    139  CA        25.0700   43.3370   20.5000 C.3   426  ASP426      0.1674
    140  C         26.1150   43.8080   21.5100 C.2   426  ASP426      0.2266
    141  O         27.0460   43.0820   21.8560 O.2   426  ASP426     -0.2867
    142  CB        23.8830   42.6710   21.2180 C.3   426  ASP426      0.1410
    143  CG        24.1130   41.1870   21.4930 C.2   426  ASP426      0.3668
    144  OD1       23.1770   40.5250   21.9990 O.co2 426  ASP426     -0.2456
    145  OD2       25.2220   40.6820   21.2020 O.co2 426  ASP426     -0.2456
    146  N         26.8500   46.4930   25.1860 N.3   428  LEU428     -0.1245
    147  CA        26.4230   47.3370   26.3110 C.3   428  LEU428      0.1561
    148  C         27.7180   47.9200   26.9010 C.2   428  LEU428      0.2260
    149  O         28.5720   47.1820   27.3750 O.2   428  LEU428     -0.2867
    150  CB        25.6830   46.5500   27.3960 C.3   428  LEU428      0.0270
    151  CG        25.4970   47.2970   28.7410 C.3   428  LEU428      0.0019
    152  CD1       24.7900   48.6190   28.5280 C.3   428  LEU428      0.0001
    153  CD2       24.6950   46.4310   29.7350 C.3   428  LEU428      0.0001
    154  N         17.6370   51.6930   26.2340 N.3   480  ARG480     -0.1245
    155  CA        16.9710   50.6590   25.4440 C.3   480  ARG480      0.1563
    156  C         15.9470   51.3120   24.5170 C.2   480  ARG480      0.2260
    157  O         15.8580   50.9730   23.3390 O.2   480  ARG480     -0.2867
    158  CB        16.2490   49.6570   26.3590 C.3   480  ARG480      0.0307
    159  CG        17.1640   48.7430   27.1870 C.3   480  ARG480      0.0489
    160  CD        17.5150   47.4750   26.4160 C.3   480  ARG480      0.2205
    161  NE        18.9010   47.4720   25.9710 N.pl3 480  ARG480     -0.0865
    162  CZ        19.3890   46.6520   25.0460 C.cat 480  ARG480      0.5346
    163  NH1       18.6100   45.7580   24.4530 N.pl3 480  ARG480      0.1354
    164  NH2       20.6630   46.7380   24.7070 N.pl3 480  ARG480      0.1354
@<TRIPOS>BOND
     1   121   120    2
     2   120   119    1
     3   124   123   ar
     4   119   118    1
     5   119   122    1
     6   123   122    1
     7   123   125   ar
     8   138   139    1
     9   139   142    1
    10   139   140    1
    11   145   143   ar
    12   142   143    1
    13   103   102    1
    14   103   104    1
    15   143   144   ar
    16   102    99    1
    17   140   141    2
    18    98    99    1
    19    99   100    1
    20   104   105   ar
    21   104   106   ar
    22    88    87    1
    23    88    89    1
    24   100   101    2
    25    87    84    1
    26   157   156    2
    27    89    83    1
    28     9     8    1
    29   137   136    1
    30   163   162    1
    31     8     7    1
    32   156   155    1
    33     7     6    1
    34   164   162    1
    35   134   136   ar
    36   134   132   ar
    37    84    83    1
    38    84    85    1
    39    83    77   am
    40   136   135   ar
    41   162   161    2
    42   146   147    1
    43    96    95    2
    44    82    80    1
    45   129   128    2
    46   155   154    1
    47   155   158    1
    48     5     6    1
    49     5     2    1
    50    85    90   am
    51    85    86    2
    52   132   131   ar
    53    92    93    2
    54    92    91    1
    55    90    91    1
    56    76    77    1
    57    76    75    1
    58    76    79    1
    59   128   127    1
    60     1     2    1
    61   161   160    1
    62   135   133   ar
    63    77    78    2
    64     2     3    1
    65    95    97   am
    66    95    94    1
    67   147   148    1
    68   147   150    1
    69   158   159    1
    70   160   159    1
    71    91    94    1
    72    80    79    1
    73    80    81    1
    74   131   133   ar
    75   131   130    1
    76   148   149    2
    77   150   151    1
    78   127   130    1
    79   127   126    1
    80    39    37   am
    81     3     4    2
    82    36    37    1
    83    36    35    1
    84    37    38    2
    85   116   115    1
    86   152   151    1
    87    15    14    1
    88   151   153    1
    89    30    28    1
    90    29    28    1
    91    28    25    1
    92    35    32    1
    93    74    73    1
    94   115   117    1
    95   115   114    2
    96    14    16    1
    97    14    11    1
    98   113   114    1
    99   113   112    1
   100    73    70    1
   101    31    32    1
   102    31    26   am
   103    10    11    1
   104    32    33    1
   105    70    71    1
   106    70    69    1
   107    72    71    2
   108    25    24    1
   109    25    26    1
   110    11    12    1
   111    60    59    1
   112    24    19   am
   113    26    27    2
   114    54    52    1
   115   112   111    1
   116    46    45    1
   117    46    40    1
   118    69    63   am
   119    64    63    2
   120    63    62    1
   121    33    40   am
   122    33    34    2
   123    19    18    1
   124    19    20    2
   125   111   108    1
   126    58    57    2
   127    65    66    1
   128    65    62    1
   129    18    17    1
   130    18    21    1
   131    59    56    1
   132    68    66    1
   133   107   108    1
   134    67    66    1
   135    45    44    1
   136    12    17   am
   137    12    13    2
   138    40    41    1
   139    52    51    1
   140    53    51    1
   141    17    23    1
   142    57    56    1
   143    56    55    1
   144    62    61    1
   145   108   109    1
   146    51    48    1
   147    21    22    1
   148    41    44    1
   149    41    42    1
   150   109   110    2
   151    23    22    1
   152    48    47    1
   153    48    49    1
   154    42    43    2
   155    49    50    2
