@<TRIPOS>MOLECULE
tmp/3w2yA01.pdb
 103 100 0 0 0
SMALL
GASTEIGER

@<TRIPOS>ATOM
      1  N        -11.5320   39.3940   -5.3840 N.3   113  ASN113     -0.1225
      2  CA       -10.4220   40.1040   -4.7560 C.3   113  ASN113      0.1785
      3  C        -10.6300   41.5970   -5.0200 C.2   113  ASN113      0.2598
      4  O        -10.8480   41.9940   -6.1650 O.2   113  ASN113     -0.2718
      5  CB        -9.1100   39.5950   -5.3760 C.3   113  ASN113      0.1169
      6  CG        -7.9030   40.4680   -5.0610 C.2   113  ASN113      0.2627
      7  OD1       -7.9300   41.3160   -4.1710 O.2   113  ASN113     -0.2716
      8  ND2       -6.8190   40.2480   -5.8050 N.am  113  ASN113     -0.0877
      9  N        -10.5830   42.4140   -3.9700 N.am  114  GLY114     -0.1942
     10  CA       -10.8450   43.8530   -4.1130 C.3   114  GLY114      0.2014
     11  C         -9.6180   44.7530   -4.0970 C.2   114  GLY114      0.2638
     12  O         -9.7520   45.9840   -4.0940 O.2   114  GLY114     -0.2714
     13  N         -8.4290   44.1450   -4.0940 N.am  115  LYS115     -0.1977
     14  CA        -7.1690   44.8750   -3.8970 C.3   115  LYS115      0.1596
     15  C         -6.6960   45.7030   -5.0890 C.2   115  LYS115      0.2287
     16  O         -6.0160   46.7060   -4.9040 O.2   115  LYS115     -0.2864
     17  CB        -6.0360   43.9310   -3.4670 C.3   115  LYS115      0.0298
     18  CG        -6.1800   43.3860   -2.0460 C.3   115  LYS115      0.0038
     19  CD        -4.8970   42.7420   -1.5090 C.3   115  LYS115      0.0206
     20  CE        -4.4200   41.5680   -2.3590 C.3   115  LYS115      0.1093
     21  NZ        -5.4370   40.4790   -2.4640 N.3   115  LYS115     -0.1314
     22  N        -16.5530   43.6780   -5.6780 N.3   124  LYS124     -0.1245
     23  CA       -16.5480   42.7370   -4.5500 C.3   124  LYS124      0.1561
     24  C        -17.7200   42.9700   -3.6030 C.2   124  LYS124      0.2260
     25  O        -18.4250   42.0340   -3.2360 O.2   124  LYS124     -0.2867
     26  CB       -15.2300   42.8290   -3.7780 C.3   124  LYS124      0.0271
     27  CG       -15.1600   41.9160   -2.5470 C.3   124  LYS124      0.0035
     28  CD       -13.8300   42.0950   -1.8230 C.3   124  LYS124      0.0206
     29  CE       -13.7140   41.1480   -0.6370 C.3   124  LYS124      0.1093
     30  NZ       -12.4850   41.4580    0.1100 N.3   124  LYS124     -0.1314
     31  N        -12.2380   36.0610    0.6470 N.3   152  ASN152     -0.1240
     32  CA       -11.2690   37.1340    0.4190 C.3   152  ASN152      0.1653
     33  C        -11.3120   38.2670    1.4610 C.2   152  ASN152      0.2266
     34  O        -10.8530   39.3720    1.1930 O.2   152  ASN152     -0.2867
     35  CB       -11.3850   37.6910   -1.0130 C.3   152  ASN152      0.1155
     36  CG       -10.3170   37.1480   -1.9370 C.2   152  ASN152      0.2627
     37  OD1       -9.1480   37.0750   -1.5580 O.2   152  ASN152     -0.2716
     38  ND2      -10.7050   36.7750   -3.1630 N.am  152  ASN152     -0.0877
     39  N         -6.2900   47.9430    3.7150 N.3   169  VAL169     -0.1231
     40  CA        -6.0630   47.0670    2.5610 C.3   169  VAL169      0.1692
     41  C         -7.2910   46.1650    2.3850 C.2   169  VAL169      0.2593
     42  O         -7.7820   45.5920    3.3630 O.2   169  VAL169     -0.2718
     43  CB        -4.8090   46.1690    2.7870 C.3   169  VAL169      0.0266
     44  CG1       -4.6480   45.1310    1.6680 C.3   169  VAL169      0.0020
     45  CG2       -3.5380   47.0230    2.9220 C.3   169  VAL169      0.0020
     46  N         -7.7920   46.0540    1.1560 N.am  170  SER170     -0.1938
     47  CA        -8.9200   45.1620    0.8840 C.3   170  SER170      0.2055
     48  C         -8.5590   43.7570    1.3390 C.2   170  SER170      0.2643
     49  O         -7.4730   43.2470    1.0350 O.2   170  SER170     -0.2714
     50  CB        -9.3170   45.1650   -0.5920 C.3   170  SER170      0.2130
     51  OG       -10.4060   44.2810   -0.8130 O.3   170  SER170     -0.2179
     52  N         -9.4760   43.1580    2.0850 N.am  171  GLY171     -0.1954
     53  CA        -9.2220   41.9250    2.8100 C.3   171  GLY171      0.1869
     54  C         -9.4340   42.1580    4.2920 C.2   171  GLY171      0.2309
     55  O         -9.7790   41.2340    5.0300 O.2   171  GLY171     -0.2863
     56  N         -4.4500   31.0880    4.1950 N.3   204  SER204     -0.1202
     57  CA        -3.8110   31.7400    3.0570 C.3   204  SER204      0.2020
     58  C         -2.5800   32.5310    3.4920 C.2   204  SER204      0.2619
     59  O         -2.6130   33.1940    4.5220 O.2   204  SER204     -0.2717
     60  CB        -4.7930   32.6990    2.3960 C.3   204  SER204      0.2103
     61  OG        -4.2320   33.2120    1.2060 O.3   204  SER204     -0.2182
     62  N         -1.5140   32.4530    2.6970 N.am  205  TRP205     -0.1961
     63  CA        -0.2450   33.1230    2.9850 C.3   205  TRP205      0.1771
     64  C          0.3420   33.5930    1.6570 C.2   205  TRP205      0.2620
     65  O          0.2810   32.8680    0.6680 O.2   205  TRP205     -0.2715
     66  CB         0.7570   32.1650    3.6480 C.3   205  TRP205      0.0590
     67  CG         0.2730   31.4690    4.8850 C.ar  205  TRP205      0.0006
     68  CD1        0.5560   31.8070    6.1830 C.ar  205  TRP205      0.0946
     69  CD2       -0.5450   30.3000    4.9430 C.ar  205  TRP205      0.0152
     70  NE1       -0.0570   30.9320    7.0410 N.ar  205  TRP205     -0.2442
     71  CE2       -0.7370   29.9930    6.3050 C.ar  205  TRP205      0.0810
     72  CE3       -1.1520   29.4830    3.9680 C.ar  205  TRP205      0.0012
     73  CZ2       -1.5140   28.9100    6.7250 C.ar  205  TRP205      0.0191
     74  CZ3       -1.9150   28.4050    4.3840 C.ar  205  TRP205      0.0001
     75  CH2       -2.0900   28.1270    5.7510 C.ar  205  TRP205      0.0015
     76  N          0.9180   34.7890    1.6250 N.am  206  SER206     -0.1950
     77  CA         1.6060   35.2400    0.4070 C.3   206  SER206      0.1924
     78  C          2.7620   34.3010    0.0170 C.2   206  SER206      0.2314
     79  O          3.3270   33.6110    0.8680 O.2   206  SER206     -0.2863
     80  CB         2.1160   36.6690    0.5720 C.3   206  SER206      0.2116
     81  OG         2.9320   37.0160   -0.5340 O.3   206  SER206     -0.2180
     82  N         -3.7360   34.8110    6.6560 N.3   218  TRP218     -0.1241
     83  CA        -5.0810   35.3490    6.7780 C.3   218  TRP218      0.1605
     84  C         -6.0380   34.1630    6.7110 C.2   218  TRP218      0.2264
     85  O         -5.8150   33.2400    5.9220 O.2   218  TRP218     -0.2867
     86  CB        -5.4020   36.2030    5.5540 C.3   218  TRP218      0.0550
     87  CG        -4.5150   37.3760    5.2600 C.ar  218  TRP218      0.0003
     88  CD1       -3.1600   37.3720    5.0300 C.ar  218  TRP218      0.0946
     89  CD2       -4.9490   38.7180    5.0790 C.ar  218  TRP218      0.0152
     90  NE1       -2.7290   38.6530    4.7530 N.ar  218  TRP218     -0.2442
     91  CE2       -3.8100   39.4940    4.7750 C.ar  218  TRP218      0.0810
     92  CE3       -6.2000   39.3470    5.1520 C.ar  218  TRP218      0.0012
     93  CZ2       -3.8840   40.8680    4.5450 C.ar  218  TRP218      0.0191
     94  CZ3       -6.2720   40.7170    4.9190 C.ar  218  TRP218      0.0001
     95  CH2       -5.1170   41.4610    4.6230 C.ar  218  TRP218      0.0015
     96  N         -9.1250   33.3710    5.0590 N.3   220  LEU220     -0.1245
     97  CA        -9.9270   33.9020    3.9530 C.3   220  LEU220      0.1561
     98  C        -10.9820   32.9050    3.4900 C.2   220  LEU220      0.2260
     99  O        -11.9200   33.2540    2.7620 O.2   220  LEU220     -0.2867
    100  CB        -9.0150   34.2390    2.7660 C.3   220  LEU220      0.0270
    101  CG        -7.9270   35.2990    2.9810 C.3   220  LEU220      0.0019
    102  CD1       -7.2170   35.5500    1.6790 C.3   220  LEU220      0.0001
    103  CD2       -8.5280   36.5960    3.5410 C.3   220  LEU220      0.0001
@<TRIPOS>BOND
     1     4     3    2
     2     8     6   am
     3    22    23    1
     4     1     2    1
     5     5     6    1
     6     5     2    1
     7    15    16    2
     8    15    14    1
     9     6     7    2
    10     3     2    1
    11     3     9   am
    12    23    26    1
    13    23    24    1
    14    10    11    1
    15    10     9    1
    16    11    12    2
    17    11    13   am
    18    13    14    1
    19    14    17    1
    20    26    27    1
    21    24    25    2
    22    17    18    1
    23    38    36   am
    24    27    28    1
    25    21    20    1
    26    20    19    1
    27    18    19    1
    28    36    37    2
    29    36    35    1
    30    28    29    1
    31    35    32    1
    32    51    50    1
    33    29    30    1
    34    50    47    1
    35    81    80    1
    36    78    77    1
    37    78    79    2
    38    77    80    1
    39    77    76    1
    40    32    31    1
    41    32    33    1
    42    65    64    2
    43    47    46    1
    44    47    48    1
    45    49    48    2
    46    46    41   am
    47    34    33    2
    48    61    60    1
    49    48    52   am
    50    76    64   am
    51    64    63    1
    52    44    43    1
    53   102   101    1
    54    52    53    1
    55    41    40    1
    56    41    42    2
    57    60    57    1
    58    40    43    1
    59    40    39    1
    60    62    63    1
    61    62    58   am
    62    99    98    2
    63   100   101    1
    64   100    97    1
    65    43    45    1
    66    53    54    1
    67   101   103    1
    68    63    66    1
    69    57    58    1
    70    57    56    1
    71    98    97    1
    72    58    59    2
    73    66    67    1
    74    97    96    1
    75    72    74   ar
    76    72    69   ar
    77    54    55    2
    78    74    75   ar
    79    93    95   ar
    80    93    91   ar
    81    95    94   ar
    82    90    91   ar
    83    90    88   ar
    84    91    89   ar
    85    67    69   ar
    86    67    68   ar
    87    94    92   ar
    88    69    71   ar
    89    88    87   ar
    90    89    92   ar
    91    89    87   ar
    92    87    86    1
    93    86    83    1
    94    75    73   ar
    95    85    84    2
    96    68    70   ar
    97    71    73   ar
    98    71    70   ar
    99    82    83    1
   100    84    83    1
