@<TRIPOS>MOLECULE
tmp/3w2zA00.pdb
 225 223 0 0 0
SMALL
GASTEIGER

@<TRIPOS>ATOM
      1  N          0.8720   20.6890   12.3250 N.3    46  ALA46      -0.1245
      2  CA        -0.5660   20.5110   12.1990 C.3    46  ALA46       0.1562
      3  C         -0.9960   20.2450   10.7670 C.2    46  ALA46       0.2260
      4  O         -0.3810   20.7580    9.8070 O.2    46  ALA46      -0.2867
      5  CB        -1.3040   21.7530   12.7370 C.3    46  ALA46       0.0290
      6  N         -4.2230   20.8060    8.3570 N.3    48  TYR48      -0.1241
      7  CA        -5.3600   21.6930    8.1980 C.3    48  TYR48       0.1605
      8  C         -6.1280   21.2160    6.9690 C.2    48  TYR48       0.2264
      9  O         -5.5230   21.0260    5.8960 O.2    48  TYR48      -0.2867
     10  CB        -4.8350   23.1010    8.0150 C.3    48  TYR48       0.0534
     11  CG        -5.8360   24.1820    7.6890 C.ar   48  TYR48      -0.0201
     12  CD1       -6.5310   24.8530    8.7030 C.ar   48  TYR48      -0.0009
     13  CD2       -6.0560   24.5700    6.3670 C.ar   48  TYR48      -0.0009
     14  CE1       -7.4190   25.8890    8.3960 C.ar   48  TYR48       0.0417
     15  CE2       -6.9400   25.5700    6.0420 C.ar   48  TYR48       0.0417
     16  CZ        -7.6320   26.2310    7.0670 C.ar   48  TYR48       0.1957
     17  OH        -8.4880   27.2580    6.7460 O.3    48  TYR48      -0.2866
     18  N         -8.1610   22.7970   11.7300 N.3    58  PHE58      -0.1241
     19  CA        -7.0770   21.9130   12.1220 C.3    58  PHE58       0.1605
     20  C         -7.6710   20.5480   12.4830 C.2    58  PHE58       0.2264
     21  O         -8.6130   20.4780   13.3310 O.2    58  PHE58      -0.2867
     22  CB        -6.2880   22.5120   13.2880 C.3    58  PHE58       0.0534
     23  CG        -5.4900   23.7300   12.9130 C.ar   58  PHE58      -0.0203
     24  CD1       -4.3260   23.6120   12.1640 C.ar   58  PHE58      -0.0042
     25  CD2       -5.9290   24.9970   13.2880 C.ar   58  PHE58      -0.0042
     26  CE1       -3.5750   24.7420   11.8130 C.ar   58  PHE58      -0.0003
     27  CE2       -5.1950   26.1470   12.9400 C.ar   58  PHE58      -0.0003
     28  CZ        -4.0090   26.0150   12.2210 C.ar   58  PHE58      -0.0000
     29  N        -10.1050   28.1870   10.8790 N.3    79  TRP79      -0.1227
     30  CA        -9.5150   29.4120   10.3730 C.3    79  TRP79       0.1737
     31  C        -10.1350   29.6420    8.9970 C.2    79  TRP79       0.2595
     32  O         -9.9330   28.8500    8.0670 O.2    79  TRP79      -0.2718
     33  CB        -8.0030   29.2780   10.3180 C.3    79  TRP79       0.0564
     34  CG        -7.2040   30.5270    9.9730 C.ar   79  TRP79       0.0003
     35  CD1       -7.6440   31.6690    9.3420 C.ar   79  TRP79       0.0946
     36  CD2       -5.8070   30.7070   10.2070 C.ar   79  TRP79       0.0152
     37  NE1       -6.5950   32.5530    9.1880 N.ar   79  TRP79      -0.2442
     38  CE2       -5.4530   31.9820    9.6900 C.ar   79  TRP79       0.0810
     39  CE3       -4.8090   29.9030   10.7820 C.ar   79  TRP79       0.0012
     40  CZ2       -4.1470   32.4820    9.7560 C.ar   79  TRP79       0.0191
     41  CZ3       -3.4940   30.4100   10.8500 C.ar   79  TRP79       0.0001
     42  CH2       -3.1830   31.6920   10.3380 C.ar   79  TRP79       0.0015
     43  N        -10.9640   30.6860    8.9000 N.am   80  GLU80      -0.1965
     44  CA       -11.6110   31.0490    7.6470 C.3    80  GLU80       0.1733
     45  C        -10.8230   32.2050    7.0500 C.2    80  GLU80       0.2616
     46  O        -11.0230   33.3620    7.4260 O.2    80  GLU80      -0.2715
     47  CB       -13.0760   31.4630    7.8780 C.3    80  GLU80       0.0429
     48  CG       -13.8130   31.8280    6.6020 C.3    80  GLU80       0.1163
     49  CD       -15.3340   31.8180    6.7630 C.2    80  GLU80       0.3649
     50  OE1      -15.8180   31.9560    7.9190 O.co2  80  GLU80      -0.2457
     51  OE2      -16.0360   31.6420    5.7330 O.co2  80  GLU80      -0.2457
     52  N         -9.8990   31.8890    6.1510 N.am   81  ASP81      -0.1957
     53  CA        -8.9700   32.9070    5.6790 C.3    81  ASP81       0.1840
     54  C         -9.4960   33.4700    4.3620 C.2    81  ASP81       0.2623
     55  O         -9.7130   32.7180    3.4080 O.2    81  ASP81      -0.2715
     56  CB        -7.5470   32.3540    5.5400 C.3    81  ASP81       0.1450
     57  CG        -6.5510   33.4260    5.1400 C.2    81  ASP81       0.3671
     58  OD1       -5.8470   33.9700    6.0170 O.co2  81  ASP81      -0.2456
     59  OD2       -6.4940   33.7360    3.9320 O.co2  81  ASP81      -0.2456
     60  N         -9.7430   34.7840    4.3340 N.am   82  THR82      -0.1937
     61  CA       -10.4100   35.3770    3.1780 C.3    82  THR82       0.2028
     62  C         -9.5360   35.3790    1.9220 C.2    82  THR82       0.2642
     63  O        -10.0640   35.2220    0.8280 O.2    82  THR82      -0.2714
     64  CB       -11.0450   36.7720    3.4670 C.3    82  THR82       0.1808
     65  OG1      -10.0870   37.6180    4.0980 O.3    82  THR82      -0.2208
     66  CG2      -12.1930   36.6130    4.4180 C.3    82  THR82       0.0379
     67  N         -8.2230   35.5360    2.0750 N.am   83  HIS83      -0.1959
     68  CA        -7.2980   35.4000    0.9250 C.3    83  HIS83       0.1787
     69  C         -7.3570   33.9880    0.3490 C.2    83  HIS83       0.2620
     70  O         -7.5700   33.8120   -0.8570 O.2    83  HIS83      -0.2715
     71  CB        -5.8680   35.8070    1.3030 C.3    83  HIS83       0.0785
     72  CG        -4.7960   35.2350    0.4080 C.ar   83  HIS83       0.0821
     73  ND1       -4.5090   35.7450   -0.8430 N.ar   83  HIS83      -0.2267
     74  CD2       -3.9270   34.2090    0.6000 C.ar   83  HIS83       0.1154
     75  CE1       -3.5310   35.0440   -1.3930 C.ar   83  HIS83       0.1986
     76  NE2       -3.1570   34.1070   -0.5360 N.ar   83  HIS83      -0.2212
     77  N         -7.1980   32.9680    1.2010 N.am   84  LEU84      -0.1977
     78  CA        -7.3020   31.5980    0.7090 C.3    84  LEU84       0.1596
     79  C         -8.6600   31.2850    0.0590 C.2    84  LEU84       0.2287
     80  O         -8.7410   30.5110   -0.8970 O.2    84  LEU84      -0.2864
     81  CB        -6.9830   30.5860    1.8240 C.3    84  LEU84       0.0297
     82  CG        -5.5480   30.6170    2.3480 C.3    84  LEU84       0.0022
     83  CD1       -5.3700   29.5140    3.4050 C.3    84  LEU84       0.0001
     84  CD2       -4.5070   30.4620    1.1950 C.3    84  LEU84       0.0001
     85  N         -1.2800   30.1760   -3.2880 N.3    91  ARG91      -0.1231
     86  CA        -0.1590   29.5440   -4.0180 C.3    91  ARG91       0.1694
     87  C         -0.1730   28.0180   -3.8790 C.2    91  ARG91       0.2592
     88  O          0.3540   27.2820   -4.7230 O.2    91  ARG91      -0.2718
     89  CB         1.2000   30.1420   -3.5530 C.3    91  ARG91       0.0321
     90  CG         1.8080   29.4800   -2.2410 C.3    91  ARG91       0.0489
     91  CD         3.1760   30.0720   -1.7710 C.3    91  ARG91       0.2205
     92  NE         3.0610   31.4480   -1.2530 N.pl3  91  ARG91      -0.0865
     93  CZ         3.5810   32.5280   -1.8490 C.cat  91  ARG91       0.5346
     94  NH1        4.2660   32.3970   -2.9860 N.pl3  91  ARG91       0.1354
     95  NH2        3.4380   33.7380   -1.3100 N.pl3  91  ARG91       0.1354
     96  N         -0.7960   27.5170   -2.8000 N.am   92  TYR92      -0.1976
     97  CA        -0.8810   26.0640   -2.5570 C.3    92  TYR92       0.1639
     98  C         -1.6430   25.3030   -3.6510 C.2    92  TYR92       0.2290
     99  O         -1.3730   24.1290   -3.9000 O.2    92  TYR92      -0.2864
    100  CB        -1.4190   25.8000   -1.1160 C.3    92  TYR92       0.0560
    101  CG        -0.6310   26.6600   -0.1570 C.ar   92  TYR92      -0.0198
    102  CD1        0.6530   26.2840    0.2310 C.ar   92  TYR92      -0.0009
    103  CD2       -1.1130   27.9210    0.2580 C.ar   92  TYR92      -0.0009
    104  CE1        1.4240   27.0960    1.0370 C.ar   92  TYR92       0.0417
    105  CE2       -0.3480   28.7620    1.0740 C.ar   92  TYR92       0.0417
    106  CZ         0.9290   28.3450    1.4530 C.ar   92  TYR92       0.1957
    107  OH         1.7210   29.1230    2.2560 O.3    92  TYR92      -0.2866
    108  N          5.9010   27.0130    1.2270 N.3    98  PHE98      -0.1241
    109  CA         6.2310   28.3770    1.6230 C.3    98  PHE98       0.1605
    110  C          7.0320   28.3220    2.9330 C.2    98  PHE98       0.2264
    111  O          6.6650   27.5470    3.8320 O.2    98  PHE98      -0.2867
    112  CB         4.8950   29.1030    1.8530 C.3    98  PHE98       0.0534
    113  CG         5.0010   30.5990    1.9470 C.ar   98  PHE98      -0.0203
    114  CD1        5.7050   31.3360    0.9740 C.ar   98  PHE98      -0.0042
    115  CD2        4.3310   31.2900    2.9820 C.ar   98  PHE98      -0.0042
    116  CE1        5.7860   32.7480    1.0620 C.ar   98  PHE98      -0.0003
    117  CE2        4.3990   32.6890    3.0870 C.ar   98  PHE98      -0.0003
    118  CZ         5.1260   33.4260    2.1190 C.ar   98  PHE98      -0.0000
    119  N          7.5270   39.0480    6.4210 N.3   106  ALA106     -0.1231
    120  CA         6.8420   38.4430    5.2550 C.3   106  ALA106      0.1694
    121  C          5.8310   39.3500    4.5190 C.2   106  ALA106      0.2593
    122  O          5.2770   38.9530    3.4850 O.2   106  ALA106     -0.2718
    123  CB         6.1740   37.1200    5.6600 C.3   106  ALA106      0.0304
    124  N          5.5830   40.5440    5.0530 N.am  107  GLY107     -0.1942
    125  CA         4.5960   41.4770    4.4770 C.3   107  GLY107      0.2014
    126  C          3.1480   41.0220    4.6320 C.2   107  GLY107      0.2639
    127  O          2.3120   41.2590    3.7530 O.2   107  GLY107     -0.2714
    128  N          2.8490   40.3510    5.7440 N.am  108  HIS108     -0.1959
    129  CA         1.4810   39.9160    6.0100 C.3   108  HIS108      0.1787
    130  C          0.6350   41.1210    6.4280 C.2   108  HIS108      0.2620
    131  O          1.1440   42.0490    7.0420 O.2   108  HIS108     -0.2715
    132  CB         1.4530   38.8530    7.1230 C.3   108  HIS108      0.0785
    133  CG         2.0730   37.5420    6.7340 C.ar  108  HIS108      0.0821
    134  ND1        1.8450   36.9440    5.5120 N.ar  108  HIS108     -0.2267
    135  CD2        2.8920   36.7030    7.4170 C.ar  108  HIS108      0.1154
    136  CE1        2.4990   35.7950    5.4560 C.ar  108  HIS108      0.1986
    137  NE2        3.1410   35.6220    6.6010 N.ar  108  HIS108     -0.2212
    138  N         -0.6520   41.0840    6.1050 N.am  109  PHE109     -0.1974
    139  CA        -1.6180   42.0770    6.5950 C.3   109  PHE109      0.1639
    140  C         -1.7310   41.9770    8.1180 C.2   109  PHE109      0.2290
    141  O         -1.4460   40.9140    8.7020 O.2   109  PHE109     -0.2864
    142  CB        -2.9760   41.8110    5.9540 C.3   109  PHE109      0.0560
    143  CG        -3.1450   42.4100    4.5670 C.ar  109  PHE109     -0.0200
    144  CD1       -2.1120   42.3660    3.6220 C.ar  109  PHE109     -0.0042
    145  CD2       -4.3640   43.0050    4.2100 C.ar  109  PHE109     -0.0042
    146  CE1       -2.2850   42.9060    2.3450 C.ar  109  PHE109     -0.0003
    147  CE2       -4.5540   43.5550    2.9390 C.ar  109  PHE109     -0.0003
    148  CZ        -3.5140   43.4990    2.0010 C.ar  109  PHE109     -0.0000
    149  N         -4.3910   41.8860   10.0470 N.3   111  CYS111     -0.1221
    150  CA        -5.4360   40.9480   10.5120 C.3   111  CYS111      0.1808
    151  C         -4.9530   39.4830   10.4880 C.2   111  CYS111      0.2601
    152  O         -5.4370   38.6520   11.2540 O.2   111  CYS111     -0.2717
    153  CB        -6.6980   41.0650    9.6640 C.3   111  CYS111      0.0970
    154  SG        -6.4610   40.3570    8.0140 S.3   111  CYS111     -0.0800
    155  N         -4.0260   39.1920    9.5770 N.am  112  HIS112     -0.1975
    156  CA        -3.3570   37.8890    9.4580 C.3   112  HIS112      0.1656
    157  C         -2.3300   37.7640   10.5750 C.2   112  HIS112      0.2291
    158  O         -2.2830   36.7620   11.2960 O.2   112  HIS112     -0.2864
    159  CB        -2.6930   37.8150    8.0730 C.3   112  HIS112      0.0771
    160  CG        -2.0350   36.5040    7.7530 C.ar  112  HIS112      0.0820
    161  ND1       -1.2620   36.3290    6.6230 N.ar  112  HIS112     -0.2267
    162  CD2       -2.0320   35.3110    8.3990 C.ar  112  HIS112      0.1154
    163  CE1       -0.8160   35.0830    6.5850 C.ar  112  HIS112      0.1986
    164  NE2       -1.2660   34.4450    7.6520 N.ar  112  HIS112     -0.2212
    165  N         -3.9300   36.8090   13.9210 N.3   115  ILE115     -0.1231
    166  CA        -4.2730   35.4020   14.0850 C.3   115  ILE115      0.1692
    167  C         -3.0170   34.5720   14.3540 C.2   115  ILE115      0.2591
    168  O         -3.0390   33.6610   15.1960 O.2   115  ILE115     -0.2718
    169  CB        -5.0580   34.8770   12.8790 C.3   115  ILE115      0.0266
    170  CG1       -6.3600   35.6760   12.7460 C.3   115  ILE115      0.0019
    171  CG2       -5.3290   33.3380   13.0080 C.3   115  ILE115      0.0020
    172  CD1       -6.8360   35.8070   11.3660 C.3   115  ILE115      0.0001
    173  N         -1.9330   34.8900   13.6380 N.am  116  LEU116     -0.1980
    174  CA        -0.6380   34.2410   13.8610 C.3   116  LEU116      0.1596
    175  C         -0.1690   34.4780   15.2890 C.2   116  LEU116      0.2287
    176  O          0.2760   33.5580   15.9630 O.2   116  LEU116     -0.2864
    177  CB         0.4120   34.7640   12.8590 C.3   116  LEU116      0.0297
    178  CG         0.2400   34.3850   11.3880 C.3   116  LEU116      0.0022
    179  CD1        1.2280   35.1880   10.5320 C.3   116  LEU116      0.0001
    180  CD2        0.4680   32.8560   11.2010 C.3   116  LEU116      0.0001
    181  N          7.3630   29.7780   10.2600 N.3   124  TYR124     -0.1241
    182  CA         6.6620   28.5910    9.8260 C.3   124  TYR124      0.1605
    183  C          7.1040   28.0600    8.4860 C.2   124  TYR124      0.2264
    184  O          7.7710   28.7680    7.7140 O.2   124  TYR124     -0.2867
    185  CB         5.1580   28.8550    9.7750 C.3   124  TYR124      0.0534
    186  CG         4.6840   29.9610    8.8340 C.ar  124  TYR124     -0.0201
    187  CD1        4.5030   29.7150    7.4690 C.ar  124  TYR124     -0.0009
    188  CD2        4.3330   31.2110    9.3210 C.ar  124  TYR124     -0.0009
    189  CE1        4.0330   30.6900    6.6110 C.ar  124  TYR124      0.0417
    190  CE2        3.8390   32.2080    8.4690 C.ar  124  TYR124      0.0417
    191  CZ         3.6860   31.9340    7.1170 C.ar  124  TYR124      0.1957
    192  OH         3.2050   32.8850    6.2410 O.3   124  TYR124     -0.2866
    193  N          4.7980   25.9980    5.4530 N.3   126  ILE126     -0.1245
    194  CA         3.4900   25.4710    5.0590 C.3   126  ILE126      0.1561
    195  C          3.6280   24.7650    3.6910 C.2   126  ILE126      0.2260
    196  O          4.2560   25.3120    2.7780 O.2   126  ILE126     -0.2867
    197  CB         2.4020   26.5680    4.9740 C.3   126  ILE126      0.0252
    198  CG1        2.1990   27.2880    6.3400 C.3   126  ILE126      0.0019
    199  CG2        1.0580   25.9900    4.4410 C.3   126  ILE126      0.0019
    200  CD1        1.3010   28.5640    6.2020 C.3   126  ILE126      0.0001
    201  N         -3.5090   21.6450    4.0790 N.3   138  LEU138     -0.1245
    202  CA        -2.1680   22.1450    4.2700 C.3   138  LEU138      0.1561
    203  C         -1.5490   21.3720    5.4250 C.2   138  LEU138      0.2260
    204  O         -2.2590   20.9170    6.3530 O.2   138  LEU138     -0.2867
    205  CB        -2.1940   23.6430    4.6020 C.3   138  LEU138      0.0270
    206  CG        -2.9700   24.5430    3.6140 C.3   138  LEU138      0.0019
    207  CD1       -3.0500   25.9250    4.1870 C.3   138  LEU138      0.0001
    208  CD2       -2.2550   24.5510    2.2350 C.3   138  LEU138      0.0001
    209  N          1.5350   22.0970    8.1370 N.3   140  ALA140     -0.1245
    210  CA         2.3360   23.2320    8.6000 C.3   140  ALA140      0.1562
    211  C          3.1910   22.8580    9.8060 C.2   140  ALA140      0.2260
    212  O          2.7480   22.0690   10.6610 O.2   140  ALA140     -0.2867
    213  CB         1.4190   24.4120    8.9710 C.3   140  ALA140      0.0290
    214  N          5.3690   24.9310   12.8730 N.3   142  TYR142     -0.1241
    215  CA         5.4380   26.2590   13.4510 C.3   142  TYR142      0.1605
    216  C          6.4910   26.3280   14.5470 C.2   142  TYR142      0.2264
    217  O          6.6050   25.3930   15.3480 O.2   142  TYR142     -0.2867
    218  CB         4.0900   26.5970   14.0840 C.3   142  TYR142      0.0534
    219  CG         2.9110   26.5920   13.1390 C.ar  142  TYR142     -0.0201
    220  CD1        2.7240   27.6130   12.2130 C.ar  142  TYR142     -0.0009
    221  CD2        1.9630   25.5910   13.2190 C.ar  142  TYR142     -0.0009
    222  CE1        1.6050   27.6290   11.3590 C.ar  142  TYR142      0.0417
    223  CE2        0.8470   25.5920   12.3610 C.ar  142  TYR142      0.0417
    224  CZ         0.6840   26.6290   11.4500 C.ar  142  TYR142      0.1957
    225  OH        -0.4320   26.5970   10.6330 O.3   142  TYR142     -0.2866
@<TRIPOS>BOND
     1    88    87    2
     2    86    87    1
     3    86    89    1
     4    86    85    1
     5    99    98    2
     6    87    96   am
     7    98    97    1
     8    89    90    1
     9    94    93    1
    10    96    97    1
    11    97   100    1
    12    90    91    1
    13    93    95    1
    14    93    92    2
    15    91    92    1
    16    75    73   ar
    17    75    76   ar
    18   100   101    1
    19    80    79    2
    20    70    69    2
    21    73    72   ar
    22    76    74   ar
    23   101   102   ar
    24   101   103   ar
    25    79    78    1
    26   102   104   ar
    27   103   105   ar
    28    69    68    1
    29    69    77   am
    30    72    74   ar
    31    72    71    1
    32    78    77    1
    33    78    81    1
    34    63    62    2
    35    68    71    1
    36    68    67    1
    37   114   116   ar
    38   114   113   ar
    39   104   106   ar
    40   116   118   ar
    41   105   106   ar
    42    84    82    1
    43   108   109    1
    44   106   107    1
    45   109   112    1
    46   109   110    1
    47    81    82    1
    48   112   113    1
    49    62    67   am
    50    62    61    1
    51   113   115   ar
    52   148   146   ar
    53   148   147   ar
    54   118   117   ar
    55   208   206    1
    56   146   144   ar
    57    82    83    1
    58   196   195    2
    59   110   111    2
    60   147   145   ar
    61   115   117   ar
    62    61    64    1
    63    61    60    1
    64    55    54    2
    65    64    65    1
    66    64    66    1
    67   122   121    2
    68   206   207    1
    69   206   205    1
    70   144   143   ar
    71   195   194    1
    72   127   126    2
    73    59    57   ar
    74   201   202    1
    75   145   143   ar
    76   202   205    1
    77   202   203    1
    78    60    54   am
    79    54    53    1
    80   199   197    1
    81   125   126    1
    82   125   124    1
    83   121   124   am
    84   121   120    1
    85   143   142    1
    86   126   128   am
    87   197   194    1
    88   197   198    1
    89   194   193    1
    90    57    56    1
    91    57    58   ar
    92   120   123    1
    93   120   119    1
    94   203   204    2
    95   136   134   ar
    96   136   137   ar
    97   134   133   ar
    98    56    53    1
    99    53    52    1
   100    51    49   ar
   101   128   129    1
   102     9     8    2
   103   142   139    1
   104   129   130    1
   105   129   132    1
   106    15    13   ar
   107    15    16   ar
   108   138   130   am
   109   138   139    1
   110    52    45   am
   111   200   198    1
   112   192   191    1
   113    13    11   ar
   114   130   131    2
   115   163   161   ar
   116   163   164   ar
   117   139   140    1
   118   137   135   ar
   119    48    49    1
   120    48    47    1
   121   189   191   ar
   122   189   187   ar
   123   161   160   ar
   124   133   132    1
   125   133   135   ar
   126    17    16    1
   127    49    50   ar
   128     8     7    1
   129    45    46    2
   130    45    44    1
   131    16    14   ar
   132   191   190   ar
   133   187   186   ar
   134    44    47    1
   135    44    43    1
   136   164   162   ar
   137    11    10    1
   138    11    12   ar
   139   184   183    2
   140   160   159    1
   141   160   162   ar
   142   154   153    1
   143    10     7    1
   144    32    31    2
   145   159   156    1
   146   140   141    2
   147   209   210    1
   148     7     6    1
   149    14    12   ar
   150   190   188   ar
   151   183   182    1
   152   210   213    1
   153   210   211    1
   154   186   188   ar
   155   186   185    1
   156    43    31   am
   157    31    30    1
   158    37    35   ar
   159    37    38   ar
   160    35    34   ar
   161   156   155    1
   162   156   157    1
   163   155   151   am
   164   153   150    1
   165    38    40   ar
   166    38    36   ar
   167    40    42   ar
   168   185   182    1
   169   211   212    2
   170     4     3    2
   171   182   181    1
   172    34    36   ar
   173    34    33    1
   174   149   150    1
   175    36    39   ar
   176    33    30    1
   177    42    41   ar
   178    30    29    1
   179   151   150    1
   180   151   152    2
   181   179   178    1
   182   157   158    2
   183   225   224    1
   184     3     2    1
   185    39    41   ar
   186   180   178    1
   187   222   224   ar
   188   222   220   ar
   189   172   170    1
   190   178   177    1
   191   224   223   ar
   192    18    19    1
   193    26    24   ar
   194    26    28   ar
   195    19    20    1
   196    19    22    1
   197    24    23   ar
   198     2     1    1
   199     2     5    1
   200   220   219   ar
   201    28    27   ar
   202   223   221   ar
   203    20    21    2
   204   170   169    1
   205   177   174    1
   206   214   215    1
   207   169   171    1
   208   169   166    1
   209    23    22    1
   210    23    25   ar
   211    27    25   ar
   212   219   221   ar
   213   219   218    1
   214   215   218    1
   215   215   216    1
   216   173   174    1
   217   173   167   am
   218   174   175    1
   219   165   166    1
   220   166   167    1
   221   167   168    2
   222   216   217    2
   223   175   176    2
