@<TRIPOS>MOLECULE
tmp/3w32A00.pdb
 226 213 0 0 0
SMALL
GASTEIGER

@<TRIPOS>ATOM
      1  N         18.6700   42.1190   15.0680 N.3    18  LEU18      -0.1231
      2  CA        18.7970   41.0740   16.0670 C.3    18  LEU18       0.1693
      3  C         20.2790   40.7570   16.2460 C.2    18  LEU18       0.2593
      4  O         20.8100   40.9670   17.3260 O.2    18  LEU18      -0.2718
      5  CB        17.9380   39.8500   15.7210 C.3    18  LEU18       0.0284
      6  CG        16.4280   40.1660   15.7370 C.3    18  LEU18       0.0019
      7  CD1       15.5440   39.0210   15.2390 C.3    18  LEU18       0.0001
      8  CD2       15.9910   40.5930   17.1310 C.3    18  LEU18       0.0001
      9  N         20.9530   40.2920   15.1920 N.am   19  GLY19      -0.1942
     10  CA        22.3880   39.9910   15.2760 C.3    19  GLY19       0.2014
     11  C         23.0000   39.4390   14.0020 C.2    19  GLY19       0.2639
     12  O         22.2820   39.0770   13.0660 O.2    19  GLY19      -0.2714
     13  N         24.3320   39.3640   13.9840 N.am   20  SER20      -0.1949
     14  CA        25.0910   38.8130   12.8560 C.3    20  SER20       0.1924
     15  C         25.6230   37.4040   13.1180 C.2    20  SER20       0.2314
     16  O         25.6690   36.9370   14.2560 O.2    20  SER20      -0.2863
     17  CB        26.2580   39.7360   12.4950 C.3    20  SER20       0.2116
     18  OG        25.8070   40.8830   11.7970 O.3    20  SER20      -0.2180
     19  N         20.5340   39.1340   10.8420 N.3    26  VAL26      -0.1245
     20  CA        19.0700   38.9790   11.0510 C.3    26  VAL26       0.1561
     21  C         18.4140   40.1910   11.7290 C.2    26  VAL26       0.2260
     22  O         18.9880   40.7510   12.6720 O.2    26  VAL26      -0.2867
     23  CB        18.7450   37.6790   11.8330 C.3    26  VAL26       0.0252
     24  CG1       17.2310   37.4390   11.8690 C.3    26  VAL26       0.0019
     25  CG2       19.4000   36.4880   11.1630 C.3    26  VAL26       0.0019
     26  N         11.0640   37.5640   10.8150 N.3    43  ALA43      -0.1245
     27  CA        12.5040   37.7350   10.9090 C.3    43  ALA43       0.1562
     28  C         12.9710   37.8670    9.4680 C.2    43  ALA43       0.2260
     29  O         12.4430   37.2050    8.5450 O.2    43  ALA43      -0.2867
     30  CB        13.1450   36.5210   11.6070 C.3    43  ALA43       0.0290
     31  N         16.5130   37.8330    7.2090 N.3    45  LYS45      -0.1245
     32  CA        17.9730   37.5730    7.1390 C.3    45  LYS45       0.1561
     33  C         18.5240   38.1090    5.8220 C.2    45  LYS45       0.2260
     34  O         18.1340   37.6380    4.7510 O.2    45  LYS45      -0.2867
     35  CB        18.2940   36.0630    7.3190 C.3    45  LYS45       0.0271
     36  CG        19.8020   35.7260    7.4230 C.3    45  LYS45       0.0035
     37  CD        20.0070   34.3890    8.1380 C.3    45  LYS45       0.0206
     38  CE        21.4910   34.0950    8.3380 C.3    45  LYS45       0.1093
     39  NZ        21.6980   32.9070    9.2050 N.3    45  LYS45      -0.1314
     40  N         13.6850   25.4070    0.6870 N.3    66  MET66      -0.1245
     41  CA        13.5580   25.9380    2.0550 C.3    66  MET66       0.1570
     42  C         12.1060   26.3650    2.3450 C.2    66  MET66       0.2261
     43  O         11.6370   26.2920    3.4870 O.2    66  MET66      -0.2867
     44  CB        14.5610   27.0940    2.3080 C.3    66  MET66       0.0387
     45  CG        16.0400   26.7370    2.1380 C.3    66  MET66       0.0595
     46  SD        16.9540   28.2890    1.9950 S.3    66  MET66      -0.1393
     47  CE        18.6930   27.7720    1.9710 C.3    66  MET66       0.0692
     48  N         11.2990   25.1320   10.7840 N.3    75  CYS75      -0.1221
     49  CA        10.8670   26.4110   10.2460 C.3    75  CYS75       0.1808
     50  C         10.8130   26.4000    8.7250 C.2    75  CYS75       0.2601
     51  O         11.5700   25.6600    8.0570 O.2    75  CYS75      -0.2717
     52  CB        11.8360   27.5040   10.7070 C.3    75  CYS75       0.0970
     53  SG        11.7810   27.7800   12.4820 S.3    75  CYS75      -0.0800
     54  N          9.9590   27.2400    8.1520 N.am   76  ARG76      -0.1965
     55  CA         9.9260   27.3220    6.7040 C.3    76  ARG76       0.1729
     56  C         10.0590   28.7440    6.2120 C.2    76  ARG76       0.2616
     57  O          9.7000   29.6880    6.8950 O.2    76  ARG76      -0.2715
     58  CB         8.6820   26.6320    6.1260 C.3    76  ARG76       0.0348
     59  CG         7.4730   27.5130    6.0730 C.3    76  ARG76       0.0492
     60  CD         6.4350   26.9360    5.1090 C.3    76  ARG76       0.2205
     61  NE         5.4960   27.9820    4.7200 N.pl3  76  ARG76      -0.0865
     62  CZ         5.5210   28.6620    3.5730 C.cat  76  ARG76       0.5346
     63  NH1        6.4230   28.4050    2.6360 N.pl3  76  ARG76       0.1354
     64  NH2        4.6070   29.5960    3.3510 N.pl3  76  ARG76       0.1354
     65  N         10.6600   28.8740    5.0420 N.am   77  LEU77      -0.1977
     66  CA        10.8390   30.1550    4.3970 C.3    77  LEU77       0.1596
     67  C          9.4810   30.6080    3.8650 C.2    77  LEU77       0.2287
     68  O          8.7520   29.8290    3.2490 O.2    77  LEU77      -0.2864
     69  CB        11.8730   30.0080    3.2840 C.3    77  LEU77       0.0297
     70  CG        12.5990   31.2450    2.7830 C.3    77  LEU77       0.0022
     71  CD1       13.2690   31.9380    3.9620 C.3    77  LEU77       0.0001
     72  CD2       13.6190   30.8390    1.7370 C.3    77  LEU77       0.0001
     73  N         15.9950   36.8560    3.1480 N.3    88  LEU88      -0.1231
     74  CA        15.0860   35.7370    3.4410 C.3    88  LEU88       0.1693
     75  C         14.0840   36.1130    4.5060 C.2    88  LEU88       0.2592
     76  O         14.4270   36.7160    5.5240 O.2    88  LEU88      -0.2718
     77  CB        15.8870   34.5230    3.9090 C.3    88  LEU88       0.0284
     78  CG        17.0280   34.0420    3.0260 C.3    88  LEU88       0.0019
     79  CD1       17.7450   32.8970    3.7240 C.3    88  LEU88       0.0001
     80  CD2       16.5020   33.6170    1.6640 C.3    88  LEU88       0.0001
     81  N         12.8200   35.7760    4.2900 N.am   89  ILE89      -0.1966
     82  CA        11.7990   36.2050    5.2310 C.3    89  ILE89       0.1727
     83  C         11.0970   34.9840    5.7990 C.2    89  ILE89       0.2617
     84  O         10.7350   34.0810    5.0560 O.2    89  ILE89      -0.2715
     85  CB        10.7990   37.1780    4.5630 C.3    89  ILE89       0.0290
     86  CG1       11.5070   38.4800    4.1470 C.3    89  ILE89       0.0022
     87  CG2        9.6170   37.4880    5.4790 C.3    89  ILE89       0.0023
     88  CD1       12.0580   38.4380    2.7390 C.3    89  ILE89       0.0001
     89  N         10.9360   34.9640    7.1160 N.am   90  THR90      -0.1937
     90  CA        10.3420   33.8270    7.8160 C.3    90  THR90       0.2028
     91  C          9.4940   34.3150    8.9990 C.2    90  THR90       0.2642
     92  O          9.6350   35.4610    9.4770 O.2    90  THR90      -0.2714
     93  CB        11.4120   32.8180    8.3050 C.3    90  THR90       0.1808
     94  OG1       10.7890   31.6110    8.7650 O.3    90  THR90      -0.2208
     95  CG2       12.2370   33.4330    9.4440 C.3    90  THR90       0.0379
     96  N          8.6180   33.4410    9.4880 N.am   91  GLN91      -0.1963
     97  CA         7.7850   33.8070   10.6300 C.3    91  GLN91       0.1733
     98  C          8.6740   34.1480   11.8240 C.2    91  GLN91       0.2616
     99  O          9.5920   33.3960   12.1520 O.2    91  GLN91      -0.2715
    100  CB         6.8190   32.6780   10.9870 C.3    91  GLN91       0.0408
    101  CG         5.9690   32.9410   12.2260 C.3    91  GLN91       0.0908
    102  CD         5.0290   31.7890   12.5710 C.2    91  GLN91       0.2608
    103  OE1        5.0930   30.7120   11.9750 O.2    91  GLN91      -0.2717
    104  NE2        4.1620   32.0110   13.5520 N.am   91  GLN91      -0.0878
    105  N          8.4110   35.2870   12.4640 N.am   92  LEU92      -0.1963
    106  CA         9.1740   35.6610   13.6560 C.3    92  LEU92       0.1728
    107  C          8.8500   34.7280   14.8110 C.2    92  LEU92       0.2616
    108  O          7.6840   34.4520   15.0800 O.2    92  LEU92      -0.2715
    109  CB         8.9220   37.1110   14.0750 C.3    92  LEU92       0.0311
    110  CG         9.6710   37.5950   15.3170 C.3    92  LEU92       0.0022
    111  CD1       11.1860   37.5680   15.0180 C.3    92  LEU92       0.0001
    112  CD2        9.2050   38.9620   15.8100 C.3    92  LEU92       0.0001
    113  N          9.8880   34.2280   15.4770 N.am   93  MET93      -0.1977
    114  CA         9.7100   33.3900   16.6670 C.3    93  MET93       0.1605
    115  C         10.1330   34.2320   17.8660 C.2    93  MET93       0.2287
    116  O         11.3180   34.3390   18.1630 O.2    93  MET93      -0.2864
    117  CB        10.5420   32.0980   16.6090 C.3    93  MET93       0.0413
    118  CG        10.2790   31.1840   15.4280 C.3    93  MET93       0.0598
    119  SD         8.8210   30.1690   15.6930 S.3    93  MET93      -0.1393
    120  CE         7.7330   30.9160   14.4990 C.3    93  MET93       0.0692
    121  N         12.5210   33.3700   20.9150 N.3    96  GLY96      -0.1210
    122  CA        13.9790   33.3880   20.6290 C.3    96  GLY96       0.1956
    123  C         14.6080   32.0180   20.4410 C.2    96  GLY96       0.2612
    124  O         13.8890   31.0090   20.2420 O.2    96  GLY96      -0.2717
    125  N         15.9430   31.9540   20.4860 N.am   97  CYS97      -0.1970
    126  CA        16.5860   30.6520   20.2810 C.3    97  CYS97       0.1712
    127  C         16.6680   29.8050   21.5500 C.2    97  CYS97       0.2296
    128  O         16.6230   30.3140   22.6950 O.2    97  CYS97      -0.2864
    129  CB        17.9780   30.8140   19.6480 C.3    97  CYS97       0.0983
    130  SG        19.1230   31.6560   20.7300 S.3    97  CYS97      -0.0798
    131  N         19.2210   28.2180   22.5400 N.3    99  LEU99      -0.1231
    132  CA        20.4840   28.4890   23.2260 C.3    99  LEU99       0.1693
    133  C         20.2880   29.5810   24.2840 C.2    99  LEU99       0.2592
    134  O         20.7480   29.4610   25.4210 O.2    99  LEU99      -0.2718
    135  CB        21.5920   28.8750   22.2300 C.3    99  LEU99       0.0284
    136  CG        22.9290   29.2760   22.8740 C.3    99  LEU99       0.0019
    137  CD1       23.5180   28.1080   23.6670 C.3    99  LEU99       0.0001
    138  CD2       23.9670   29.7690   21.8680 C.3    99  LEU99       0.0001
    139  N         19.5830   30.6430   23.9120 N.am  100  ASP100     -0.1974
    140  CA        19.3740   31.7390   24.8550 C.3   100  ASP100      0.1709
    141  C         18.4430   31.2910   25.9420 C.2   100  ASP100      0.2293
    142  O         18.5970   31.6880   27.0950 O.2   100  ASP100     -0.2864
    143  CB        18.8450   32.9920   24.1600 C.3   100  ASP100      0.1436
    144  CG        19.9000   33.6830   23.3150 C.2   100  ASP100      0.3671
    145  OD1       19.5130   34.3680   22.3490 O.co2 100  ASP100     -0.2456
    146  OD2       21.1140   33.5440   23.6100 O.co2 100  ASP100     -0.2456
    147  N         21.9880   27.5730   18.6670 N.3   141  ARG141     -0.1231
    148  CA        21.5640   28.8780   18.1160 C.3   141  ARG141      0.1694
    149  C         20.5400   28.8150   16.9710 C.2   141  ARG141      0.2592
    150  O         19.7850   29.7800   16.7800 O.2   141  ARG141     -0.2718
    151  CB        22.7640   29.7230   17.6920 C.3   141  ARG141      0.0321
    152  CG        23.4040   29.2950   16.3730 C.3   141  ARG141      0.0489
    153  CD        24.7760   29.9470   16.1620 C.3   141  ARG141      0.2205
    154  NE        25.4220   29.2430   15.0730 N.pl3 141  ARG141     -0.0865
    155  CZ        26.3410   28.3020   15.2540 C.cat 141  ARG141      0.5346
    156  NH1       26.7710   28.0310   16.4820 N.pl3 141  ARG141      0.1354
    157  NH2       26.8510   27.6540   14.2080 N.pl3 141  ARG141      0.1354
    158  N         20.5100   27.6900   16.2390 N.am  142  ASN142     -0.1974
    159  CA        19.6370   27.4870   15.0830 C.3   142  ASN142      0.1688
    160  C         18.4220   26.6010   15.3700 C.2   142  ASN142      0.2292
    161  O         17.8450   25.9780   14.4690 O.2   142  ASN142     -0.2864
    162  CB        20.4350   27.0100   13.8730 C.3   142  ASN142      0.1181
    163  CG        21.2620   28.1340   13.2540 C.2   142  ASN142      0.2629
    164  OD1       20.8640   29.3050   13.3060 O.2   142  ASN142     -0.2716
    165  ND2       22.4220   27.7940   12.6790 N.am  142  ASN142     -0.0877
    166  N         14.8520   27.1490   17.4450 N.3   144  LEU144     -0.1245
    167  CA        14.0160   28.2720   17.9510 C.3   144  LEU144      0.1561
    168  C         12.8780   27.7470   18.7980 C.2   144  LEU144      0.2260
    169  O         12.3560   26.6670   18.5310 O.2   144  LEU144     -0.2867
    170  CB        13.4630   29.1140   16.7820 C.3   144  LEU144      0.0270
    171  CG        14.5210   29.7640   15.8770 C.3   144  LEU144      0.0019
    172  CD1       13.9610   30.7000   14.8160 C.3   144  LEU144      0.0001
    173  CD2       15.5500   30.5060   16.7060 C.3   144  LEU144      0.0001
    174  N         16.0080   25.9090   12.2370 N.3   154  THR154     -0.1203
    175  CA        16.0730   26.8960   11.1790 C.3   154  THR154      0.1994
    176  C         17.5030   26.9360   10.5820 C.2   154  THR154      0.2618
    177  O         18.3800   26.2270   11.0690 O.2   154  THR154     -0.2717
    178  CB        15.6560   28.3020   11.7050 C.3   154  THR154      0.1784
    179  OG1       15.4730   29.1660   10.5790 O.3   154  THR154     -0.2211
    180  CG2       16.7140   28.9160   12.6490 C.3   154  THR154      0.0376
    181  N         17.6920   27.7270    9.5170 N.am  155  ASP155     -0.1959
    182  CA        19.0250   28.0780    8.9490 C.3   155  ASP155      0.1840
    183  C         19.6620   26.9280    8.1390 C.2   155  ASP155      0.2622
    184  O         20.8660   26.9520    7.8560 O.2   155  ASP155     -0.2715
    185  CB        19.9770   28.5780   10.0590 C.3   155  ASP155      0.1450
    186  CG        20.9150   29.7020    9.5920 C.2   155  ASP155      0.3671
    187  OD1       20.5000   30.5460    8.7610 O.co2 155  ASP155     -0.2456
    188  OD2       22.0720   29.7650   10.0830 O.co2 155  ASP155     -0.2456
    189  N         18.8480   25.9310    7.7750 N.am  156  PHE156     -0.1974
    190  CA        19.2950   24.7680    6.9880 C.3   156  PHE156      0.1639
    191  C         19.5140   25.1340    5.5260 C.2   156  PHE156      0.2290
    192  O         18.7070   25.8620    4.9180 O.2   156  PHE156     -0.2864
    193  CB        18.2990   23.6090    7.1160 C.3   156  PHE156      0.0560
    194  CG        16.8590   24.0130    6.9020 C.ar  156  PHE156     -0.0200
    195  CD1       16.0580   24.3980    7.9820 C.ar  156  PHE156     -0.0042
    196  CD2       16.3130   24.0120    5.6280 C.ar  156  PHE156     -0.0042
    197  CE1       14.7220   24.7720    7.7860 C.ar  156  PHE156     -0.0003
    198  CE2       14.9770   24.3740    5.4310 C.ar  156  PHE156     -0.0003
    199  CZ        14.1980   24.7550    6.5100 C.ar  156  PHE156     -0.0000
    200  N         21.8340   26.9590    4.0510 N.3   158  LEU158     -0.1245
    201  CA        22.3740   28.2510    3.7330 C.3   158  LEU158      0.1561
    202  C         23.8500   28.0820    3.3590 C.2   158  LEU158      0.2260
    203  O         24.3430   28.7460    2.4490 O.2   158  LEU158     -0.2867
    204  CB        22.2230   29.1930    4.9310 C.3   158  LEU158      0.0270
    205  CG        22.1710   30.7000    4.7040 C.3   158  LEU158      0.0019
    206  CD1       21.0640   31.0830    3.7230 C.3   158  LEU158      0.0001
    207  CD2       21.9480   31.3750    6.0460 C.3   158  LEU158      0.0001
    208  N         12.8620   37.9230   26.5700 N.3   297  PHE297     -0.1241
    209  CA        13.0050   37.9070   25.1120 C.3   297  PHE297      0.1605
    210  C         11.7230   38.2870   24.3810 C.2   297  PHE297      0.2264
    211  O         11.7670   39.1030   23.4610 O.2   297  PHE297     -0.2867
    212  CB        13.5740   36.5680   24.5970 C.3   297  PHE297      0.0534
    213  CG        14.2340   36.6830   23.2470 C.ar  297  PHE297     -0.0203
    214  CD1       13.4780   36.6190   22.0790 C.ar  297  PHE297     -0.0042
    215  CD2       15.6010   36.9040   23.1430 C.ar  297  PHE297     -0.0042
    216  CE1       14.0700   36.7570   20.8310 C.ar  297  PHE297     -0.0003
    217  CE2       16.2080   37.0470   21.9030 C.ar  297  PHE297     -0.0003
    218  CZ        15.4450   36.9790   20.7420 C.ar  297  PHE297     -0.0000
    219  N         10.8580   42.0010   22.1610 N.3   301  LEU301     -0.1245
    220  CA        10.5990   41.9700   20.7360 C.3   301  LEU301      0.1561
    221  C          9.2590   42.5760   20.3480 C.2   301  LEU301      0.2260
    222  O          9.1650   43.2820   19.3370 O.2   301  LEU301     -0.2867
    223  CB        10.6310   40.5170   20.2380 C.3   301  LEU301      0.0270
    224  CG        11.8480   40.0570   19.4470 C.3   301  LEU301      0.0019
    225  CD1       13.0800   40.0420   20.3390 C.3   301  LEU301      0.0001
    226  CD2       11.5940   38.6820   18.8550 C.3   301  LEU301      0.0001
@<TRIPOS>BOND
     1    40    41    1
     2    80    78    1
     3    72    70    1
     4    47    46    1
     5    46    45    1
     6    41    44    1
     7    41    42    1
     8    45    44    1
     9    42    43    2
    10   203   202    2
    11    63    62    1
    12    88    86    1
    13    70    69    1
    14    70    71    1
    15    78    79    1
    16    78    77    1
    17    73    74    1
    18    68    67    2
    19    69    66    1
    20    64    62    1
    21   202   201    1
    22    74    77    1
    23    74    75    1
    24    62    61    2
    25   206   205    1
    26   201   200    1
    27   201   204    1
    28    67    66    1
    29    86    85    1
    30    81    75   am
    31    81    82    1
    32    66    65    1
    33    75    76    2
    34    85    82    1
    35    85    87    1
    36   205   204    1
    37   205   207    1
    38    61    60    1
    39    34    33    2
    40   192   191    2
    41    65    56   am
    42    84    83    2
    43    60    59    1
    44    82    83    1
    45   198   196   ar
    46   198   199   ar
    47   191   190    1
    48   196   194   ar
    49    83    89   am
    50    33    32    1
    51    59    58    1
    52    58    55    1
    53    56    55    1
    54    56    57    2
    55   199   197   ar
    56    55    54    1
    57   194   193    1
    58   194   195   ar
    59   190   193    1
    60   190   189    1
    61    89    90    1
    62    32    31    1
    63    32    35    1
    64    35    36    1
    65    36    37    1
    66   189   183   am
    67   197   195   ar
    68    90    93    1
    69    90    91    1
    70   184   183    2
    71    51    50    2
    72    37    38    1
    73   183   182    1
    74    54    50   am
    75    93    94    1
    76    93    95    1
    77    38    39    1
    78    29    28    2
    79    50    49    1
    80   187   186   ar
    81   182   181    1
    82   182   185    1
    83    91    92    2
    84    91    96   am
    85    28    27    1
    86    96    97    1
    87   181   176   am
    88   186   185    1
    89   186   188   ar
    90    49    52    1
    91    49    48    1
    92   179   178    1
    93   176   177    2
    94   176   175    1
    95    97   100    1
    96    97    98    1
    97    52    53    1
    98    26    27    1
    99    19    20    1
   100    27    30    1
   101   100   101    1
   102    20    21    1
   103    20    23    1
   104    25    23    1
   105   175   178    1
   106   175   174    1
   107   178   180    1
   108    21    22    2
   109    18    17    1
   110    98    99    2
   111    98   105   am
   112    23    24    1
   113   103   102    2
   114   101   102    1
   115   105   106    1
   116    17    14    1
   117   102   104   am
   118   165   163   am
   119    14    15    1
   120    14    13    1
   121    12    11    2
   122    15    16    2
   123   163   164    2
   124   163   162    1
   125   106   109    1
   126   106   107    1
   127   162   159    1
   128    13    11   am
   129    11    10    1
   130   109   110    1
   131   157   155    1
   132   161   160    2
   133   120   119    1
   134   107   108    2
   135   107   113   am
   136   172   171    1
   137   111   110    1
   138     1     2    1
   139   154   155    2
   140   154   153    1
   141   159   160    1
   142   159   158    1
   143     9    10    1
   144     9     3   am
   145     7     6    1
   146   155   156    1
   147   110   112    1
   148   118   119    1
   149   118   117    1
   150   113   114    1
   151     5     6    1
   152     5     2    1
   153     6     8    1
   154   171   173    1
   155   171   170    1
   156     2     3    1
   157   153   152    1
   158   158   149   am
   159     3     4    2
   160   152   151    1
   161   117   114    1
   162   114   115    1
   163   150   149    2
   164   170   167    1
   165   149   148    1
   166   166   167    1
   167   151   148    1
   168   115   116    2
   169   167   168    1
   170   148   147    1
   171   169   168    2
   172   226   224    1
   173   222   221    2
   174   224   223    1
   175   224   225    1
   176   129   126    1
   177   129   130    1
   178   223   220    1
   179   124   123    2
   180   126   125    1
   181   126   127    1
   182   221   220    1
   183   123   125   am
   184   123   122    1
   185   122   121    1
   186   220   219    1
   187   218   216   ar
   188   218   217   ar
   189   216   214   ar
   190   127   128    2
   191   138   136    1
   192   217   215   ar
   193   214   213   ar
   194   135   136    1
   195   135   132    1
   196   145   144   ar
   197   131   132    1
   198   136   137    1
   199   215   213   ar
   200   132   133    1
   201   213   212    1
   202   144   146   ar
   203   144   143    1
   204   211   210    2
   205   139   133   am
   206   139   140    1
   207   143   140    1
   208   133   134    2
   209   210   209    1
   210   212   209    1
   211   140   141    1
   212   209   208    1
   213   141   142    2
