@<TRIPOS>MOLECULE
tmp/3w33A00.pdb
 191 178 0 0 0
SMALL
GASTEIGER

@<TRIPOS>ATOM
      1  N         18.1220   42.5700   15.8010 N.3    18  LEU18      -0.1231
      2  CA        18.2620   41.4750   16.7750 C.3    18  LEU18       0.1693
      3  C         19.7570   41.1690   16.9600 C.2    18  LEU18       0.2593
      4  O         20.2770   41.2580   18.0590 O.2    18  LEU18      -0.2718
      5  CB        17.4590   40.2350   16.3580 C.3    18  LEU18       0.0284
      6  CG        15.9220   40.3360   16.4090 C.3    18  LEU18       0.0019
      7  CD1       15.2650   39.1620   15.6830 C.3    18  LEU18       0.0001
      8  CD2       15.4160   40.4220   17.8480 C.3    18  LEU18       0.0001
      9  N         20.4590   40.8500   15.8770 N.am   19  GLY19      -0.1942
     10  CA        21.8890   40.5960   16.0020 C.3    19  GLY19       0.2014
     11  C         22.5970   40.3670   14.6960 C.2    19  GLY19       0.2639
     12  O         21.9600   40.2220   13.6550 O.2    19  GLY19      -0.2714
     13  N         23.9230   40.3250   14.7700 N.am   20  SER20      -0.1949
     14  CA        24.7810   40.1170   13.6080 C.3    20  SER20       0.1924
     15  C         25.2290   38.6660   13.4740 C.2    20  SER20       0.2314
     16  O         25.0120   37.8390   14.3680 O.2    20  SER20      -0.2863
     17  CB        26.0070   41.0350   13.6810 C.3    20  SER20       0.2116
     18  OG        25.6600   42.3630   13.3230 O.3    20  SER20      -0.2180
     19  N         20.2140   40.0230   11.4210 N.3    26  VAL26      -0.1245
     20  CA        18.8160   39.6690   11.6000 C.3    26  VAL26       0.1561
     21  C         18.0770   40.7980   12.3540 C.2    26  VAL26       0.2260
     22  O         18.6080   41.3130   13.3360 O.2    26  VAL26      -0.2867
     23  CB        18.6600   38.3420   12.3810 C.3    26  VAL26       0.0252
     24  CG1       17.1970   37.9320   12.3730 C.3    26  VAL26       0.0019
     25  CG2       19.4790   37.2180   11.7400 C.3    26  VAL26       0.0019
     26  N         11.0790   37.7420   11.6460 N.3    43  ALA43      -0.1245
     27  CA        12.4960   38.0630   11.6290 C.3    43  ALA43       0.1562
     28  C         12.8820   38.2040   10.1800 C.2    43  ALA43       0.2260
     29  O         12.3820   37.4580    9.3060 O.2    43  ALA43      -0.2867
     30  CB        13.3200   36.9660   12.2890 C.3    43  ALA43       0.0290
     31  N         16.3250   38.4220    7.8240 N.3    45  LYS45      -0.1245
     32  CA        17.7690   38.2630    7.7470 C.3    45  LYS45       0.1561
     33  C         18.2590   38.8130    6.4210 C.2    45  LYS45       0.2260
     34  O         17.8900   38.3170    5.3470 O.2    45  LYS45      -0.2867
     35  CB        18.1900   36.7970    7.9280 C.3    45  LYS45       0.0271
     36  CG        19.7150   36.5970    7.9460 C.3    45  LYS45       0.0035
     37  CD        20.0740   35.1880    8.4180 C.3    45  LYS45       0.0206
     38  CE        21.5450   35.0540    8.7310 C.3    45  LYS45       0.1093
     39  NZ        21.7870   33.8370    9.5600 N.3    45  LYS45      -0.1314
     40  N         14.1450   25.6990    0.9370 N.3    61  MET61      -0.1245
     41  CA        13.9210   26.2470    2.2780 C.3    61  MET61       0.1570
     42  C         12.4800   26.5700    2.6140 C.2    61  MET61       0.2261
     43  O         12.0730   26.4170    3.7600 O.2    61  MET61      -0.2867
     44  CB        14.7630   27.5110    2.5260 C.3    61  MET61       0.0387
     45  CG        16.2420   27.2500    2.5240 C.3    61  MET61       0.0595
     46  SD        17.0680   28.8520    2.4050 S.3    61  MET61      -0.1393
     47  CE        18.6600   28.1930    1.9860 C.3    61  MET61       0.0692
     48  N         12.2100   25.5860   11.1860 N.3    70  CYS70      -0.1221
     49  CA        11.7050   26.8900   10.7450 C.3    70  CYS70       0.1808
     50  C         11.4290   26.9010    9.2490 C.2    70  CYS70       0.2601
     51  O         12.1940   26.3340    8.4720 O.2    70  CYS70      -0.2717
     52  CB        12.6910   27.9900   11.0970 C.3    70  CYS70       0.0970
     53  SG        12.7750   28.2710   12.8760 S.3    70  CYS70      -0.0800
     54  N         10.3300   27.5360    8.8480 N.am   71  ARG71      -0.1965
     55  CA         9.9960   27.6010    7.4300 C.3    71  ARG71       0.1729
     56  C         10.2450   29.0050    6.9070 C.2    71  ARG71       0.2616
     57  O          9.9080   29.9770    7.5670 O.2    71  ARG71      -0.2715
     58  CB         8.5400   27.1970    7.1980 C.3    71  ARG71       0.0348
     59  CG         8.2390   26.9040    5.7360 C.3    71  ARG71       0.0492
     60  CD         6.8330   26.3550    5.5390 C.3    71  ARG71       0.2205
     61  NE         5.8400   27.4170    5.4670 N.pl3  71  ARG71      -0.0865
     62  CZ         5.6830   28.2310    4.4260 C.cat  71  ARG71       0.5346
     63  NH1        6.4600   28.1240    3.3520 N.pl3  71  ARG71       0.1354
     64  NH2        4.7510   29.1680    4.4630 N.pl3  71  ARG71       0.1354
     65  N         10.8430   29.1010    5.7270 N.am   72  LEU72      -0.1977
     66  CA        11.0800   30.3940    5.1000 C.3    72  LEU72       0.1596
     67  C          9.7560   30.8450    4.4970 C.2    72  LEU72       0.2287
     68  O          9.1690   30.1200    3.6940 O.2    72  LEU72      -0.2864
     69  CB        12.1460   30.2710    4.0220 C.3    72  LEU72       0.0297
     70  CG        12.5880   31.5200    3.2760 C.3    72  LEU72       0.0022
     71  CD1       13.2040   32.4890    4.2870 C.3    72  LEU72       0.0001
     72  CD2       13.6150   31.1410    2.2080 C.3    72  LEU72       0.0001
     73  N         15.7340   37.4190    3.7930 N.3    83  LEU83      -0.1245
     74  CA        14.9090   36.2260    4.0920 C.3    83  LEU83       0.1561
     75  C         13.9480   36.6400    5.1940 C.2    83  LEU83       0.2260
     76  O         14.3380   37.3520    6.1250 O.2    83  LEU83      -0.2867
     77  CB        15.8070   35.0750    4.5710 C.3    83  LEU83       0.0270
     78  CG        16.8880   34.6230    3.5840 C.3    83  LEU83       0.0019
     79  CD1       17.7810   33.5410    4.1920 C.3    83  LEU83       0.0001
     80  CD2       16.2880   34.1850    2.2500 C.3    83  LEU83       0.0001
     81  N         10.9440   35.2410    7.9070 N.3    85  THR85      -0.1203
     82  CA        10.4170   34.0470    8.5920 C.3    85  THR85       0.1994
     83  C          9.6000   34.4620    9.8280 C.2    85  THR85       0.2618
     84  O          9.7170   35.6000   10.3080 O.2    85  THR85      -0.2717
     85  CB        11.5860   33.0990    8.9830 C.3    85  THR85       0.1784
     86  OG1       11.0820   31.7940    9.3230 O.3    85  THR85      -0.2211
     87  CG2       12.3890   33.6850   10.1620 C.3    85  THR85       0.0376
     88  N          8.7960   33.5410   10.3680 N.am   86  GLN86      -0.1965
     89  CA         8.0440   33.8180   11.5850 C.3    86  GLN86       0.1733
     90  C          8.9650   34.1550   12.7400 C.2    86  GLN86       0.2616
     91  O          9.9560   33.4530   12.9960 O.2    86  GLN86      -0.2715
     92  CB         7.1950   32.6140   11.9850 C.3    86  GLN86       0.0408
     93  CG         6.3140   32.8840   13.1980 C.3    86  GLN86       0.0908
     94  CD         5.4290   31.7040   13.5050 C.2    86  GLN86       0.2608
     95  OE1        5.4560   30.7060   12.7860 O.2    86  GLN86      -0.2717
     96  NE2        4.6520   31.8010   14.5780 N.am   86  GLN86      -0.0878
     97  N          8.6530   35.2270   13.4490 N.am   87  LEU87      -0.1963
     98  CA         9.4450   35.5970   14.6110 C.3    87  LEU87       0.1728
     99  C          9.2900   34.5680   15.7320 C.2    87  LEU87       0.2616
    100  O          8.1680   34.2260   16.1200 O.2    87  LEU87      -0.2715
    101  CB         9.0470   36.9830   15.1270 C.3    87  LEU87       0.0311
    102  CG         9.9190   37.5610   16.2450 C.3    87  LEU87       0.0022
    103  CD1       11.3710   37.7790   15.8030 C.3    87  LEU87       0.0001
    104  CD2        9.3080   38.8930   16.6770 C.3    87  LEU87       0.0001
    105  N         10.4170   34.0870   16.2440 N.am   88  MET88      -0.1977
    106  CA        10.4240   33.1860   17.3970 C.3    88  MET88       0.1605
    107  C         10.7330   34.0050   18.6370 C.2    88  MET88       0.2287
    108  O         11.8830   34.4140   18.8700 O.2    88  MET88      -0.2864
    109  CB        11.4350   32.0540   17.2180 C.3    88  MET88       0.0413
    110  CG        11.1800   31.2100   15.9720 C.3    88  MET88       0.0598
    111  SD         9.8040   30.0490   16.1760 S.3    88  MET88      -0.1393
    112  CE         8.4530   30.8420   15.3050 C.3    88  MET88       0.0692
    113  N         13.7990   33.6120   21.5120 N.3    91  GLY91      -0.1210
    114  CA        15.2200   33.7300   21.1670 C.3    91  GLY91       0.1956
    115  C         15.8420   32.3950   20.7880 C.2    91  GLY91       0.2612
    116  O         15.1320   31.4210   20.5380 O.2    91  GLY91      -0.2717
    117  N         17.1590   32.3390   20.7430 N.am   92  CYS92      -0.1970
    118  CA        17.8050   31.0740   20.3900 C.3    92  CYS92       0.1712
    119  C         18.0300   30.2110   21.6310 C.2    92  CYS92       0.2296
    120  O         18.0190   30.6990   22.7520 O.2    92  CYS92      -0.2864
    121  CB        19.0910   31.3230   19.6100 C.3    92  CYS92       0.0983
    122  SG        20.4260   31.9480   20.6260 S.3    92  CYS92      -0.0798
    123  N         21.1680   30.9870   24.0280 N.3    95  ASP95      -0.1239
    124  CA        20.9210   32.0590   24.9970 C.3    95  ASP95       0.1674
    125  C         19.9330   31.5850   26.0590 C.2    95  ASP95       0.2266
    126  O         20.0610   31.9140   27.2450 O.2    95  ASP95      -0.2867
    127  CB        20.4300   33.3240   24.2930 C.3    95  ASP95       0.1410
    128  CG        21.4970   33.9550   23.4080 C.2    95  ASP95       0.3668
    129  OD1       21.1250   34.6620   22.4430 O.co2  95  ASP95      -0.2456
    130  OD2       22.7060   33.7440   23.6690 O.co2  95  ASP95      -0.2456
    131  N         15.9540   27.6440   17.6050 N.3   139  LEU139     -0.1245
    132  CA        15.1650   28.7450   18.1700 C.3   139  LEU139      0.1561
    133  C         14.0640   28.2040   19.0570 C.2   139  LEU139      0.2260
    134  O         13.5750   27.0980   18.8520 O.2   139  LEU139     -0.2867
    135  CB        14.5570   29.6050   17.0320 C.3   139  LEU139      0.0270
    136  CG        15.5400   30.2170   16.0150 C.3   139  LEU139      0.0019
    137  CD1       14.7630   31.1370   15.0790 C.3   139  LEU139      0.0001
    138  CD2       16.6790   30.9830   16.6900 C.3   139  LEU139      0.0001
    139  N         16.8940   26.3130   12.5520 N.3   149  THR149     -0.1203
    140  CA        16.9360   27.3200   11.4860 C.3   149  THR149      0.1994
    141  C         18.3320   27.4300   10.8720 C.2   149  THR149      0.2618
    142  O         19.2050   26.6670   11.2350 O.2   149  THR149     -0.2717
    143  CB        16.4480   28.6930   11.9750 C.3   149  THR149      0.1784
    144  OG1       16.1440   29.5110   10.8310 O.3   149  THR149     -0.2211
    145  CG2       17.4910   29.3750   12.8820 C.3   149  THR149      0.0376
    146  N         18.4980   28.3560    9.9210 N.am  150  ASP150     -0.1959
    147  CA        19.8130   28.6570    9.3150 C.3   150  ASP150      0.1840
    148  C         20.4510   27.4980    8.5370 C.2   150  ASP150      0.2622
    149  O         21.6800   27.4400    8.3840 O.2   150  ASP150     -0.2715
    150  CB        20.7860   29.1920   10.3680 C.3   150  ASP150      0.1450
    151  CG        20.8510   30.7160   10.3870 C.2   150  ASP150      0.3671
    152  OD1       20.6520   31.3450    9.3240 O.co2 150  ASP150     -0.2456
    153  OD2       21.1020   31.2960   11.4600 O.co2 150  ASP150     -0.2456
    154  N         19.6170   26.5860    8.0450 N.am  151  PHE151     -0.1974
    155  CA        20.0910   25.4490    7.2540 C.3   151  PHE151      0.1639
    156  C         20.3100   25.8550    5.8070 C.2   151  PHE151      0.2290
    157  O         19.5330   26.6600    5.2620 O.2   151  PHE151     -0.2864
    158  CB        19.1140   24.2610    7.3390 C.3   151  PHE151      0.0560
    159  CG        17.6800   24.6380    7.1440 C.ar  151  PHE151     -0.0200
    160  CD1       16.8770   24.9880    8.2390 C.ar  151  PHE151     -0.0042
    161  CD2       17.1300   24.6080    5.8760 C.ar  151  PHE151     -0.0042
    162  CE1       15.5500   25.3320    8.0350 C.ar  151  PHE151     -0.0003
    163  CE2       15.8060   24.9380    5.6810 C.ar  151  PHE151     -0.0003
    164  CZ        15.0190   25.2820    6.7590 C.ar  151  PHE151     -0.0000
    165  N         22.4290   27.7940    4.2900 N.3   153  LEU153     -0.1245
    166  CA        22.8920   29.1530    3.9720 C.3   153  LEU153      0.1561
    167  C         24.2970   29.0330    3.4290 C.2   153  LEU153      0.2260
    168  O         24.6370   29.6440    2.4210 O.2   153  LEU153     -0.2867
    169  CB        22.9150   30.0220    5.2200 C.3   153  LEU153      0.0270
    170  CG        21.7010   30.9160    5.4700 C.3   153  LEU153      0.0019
    171  CD1       22.0710   31.9210    6.5420 C.3   153  LEU153      0.0001
    172  CD2       21.2530   31.6370    4.2080 C.3   153  LEU153      0.0001
    173  N         12.6220   38.4340   27.6640 N.3   280  PHE280     -0.1241
    174  CA        12.9490   38.3200   26.2330 C.3   280  PHE280      0.1605
    175  C         11.6820   38.4030   25.3790 C.2   280  PHE280      0.2264
    176  O         11.6370   39.1750   24.4160 O.2   280  PHE280     -0.2867
    177  CB        13.7280   37.0110   25.9470 C.3   280  PHE280      0.0534
    178  CG        14.5000   37.0200   24.6410 C.ar  280  PHE280     -0.0203
    179  CD1       13.8530   36.8350   23.4100 C.ar  280  PHE280     -0.0042
    180  CD2       15.8790   37.1970   24.6370 C.ar  280  PHE280     -0.0042
    181  CE1       14.5660   36.8550   22.2120 C.ar  280  PHE280     -0.0003
    182  CE2       16.5920   37.2100   23.4390 C.ar  280  PHE280     -0.0003
    183  CZ        15.9360   37.0460   22.2300 C.ar  280  PHE280     -0.0000
    184  N         10.7290   41.7930   22.8180 N.3   284  LEU284     -0.1245
    185  CA        10.4600   41.6990   21.3850 C.3   284  LEU284      0.1561
    186  C          9.0660   42.2070   21.0270 C.2   284  LEU284      0.2260
    187  O          8.9080   43.0110   20.1030 O.2   284  LEU284     -0.2867
    188  CB        10.6110   40.2450   20.8920 C.3   284  LEU284      0.0270
    189  CG        11.9420   39.8470   20.2570 C.3   284  LEU284      0.0019
    190  CD1       13.0590   40.0300   21.2670 C.3   284  LEU284      0.0001
    191  CD2       11.9030   38.3990   19.7740 C.3   284  LEU284      0.0001
@<TRIPOS>BOND
     1    40    41    1
     2    47    46    1
     3    72    70    1
     4    80    78    1
     5    41    44    1
     6    41    42    1
     7    46    45    1
     8   168   167    2
     9    45    44    1
    10    42    43    2
    11    70    69    1
    12    70    71    1
    13    63    62    1
    14   167   166    1
    15    78    79    1
    16    78    77    1
    17    68    67    2
    18    73    74    1
    19   166   165    1
    20   166   169    1
    21    69    66    1
    22    74    77    1
    23    74    75    1
    24   172   170    1
    25    62    64    1
    26    62    61    2
    27    67    66    1
    28    66    65    1
    29    75    76    2
    30   169   170    1
    31   157   156    2
    32    34    33    2
    33    61    60    1
    34   170   171    1
    35    60    59    1
    36   163   161   ar
    37   163   164   ar
    38    65    56   am
    39    59    58    1
    40   156   155    1
    41   161   159   ar
    42    33    32    1
    43   164   162   ar
    44    56    55    1
    45    56    57    2
    46   159   158    1
    47   159   160   ar
    48    58    55    1
    49   155   158    1
    50   155   154    1
    51    55    54    1
    52    32    31    1
    53    32    35    1
    54    81    82    1
    55    35    36    1
    56    36    37    1
    57   162   160   ar
    58   154   148   am
    59   149   148    2
    60    37    38    1
    61    51    50    2
    62   148   147    1
    63    82    85    1
    64    82    83    1
    65    38    39    1
    66    54    50   am
    67    85    86    1
    68    85    87    1
    69    50    49    1
    70    29    28    2
    71   147   146    1
    72   147   150    1
    73   152   151   ar
    74    83    84    2
    75    83    88   am
    76   146   141   am
    77    28    27    1
    78    88    89    1
    79   150   151    1
    80   151   153   ar
    81    49    52    1
    82    49    48    1
    83   144   143    1
    84   141   142    2
    85   141   140    1
    86    52    53    1
    87    19    20    1
    88   140   143    1
    89   140   139    1
    90    89    92    1
    91    89    90    1
    92    20    21    1
    93    20    23    1
    94    27    26    1
    95    27    30    1
    96    25    23    1
    97   143   145    1
    98    92    93    1
    99    21    22    2
   100    24    23    1
   101    90    91    2
   102    90    97   am
   103    95    94    2
   104    93    94    1
   105    18    17    1
   106    97    98    1
   107    15    14    1
   108    15    16    2
   109    94    96   am
   110    14    17    1
   111    14    13    1
   112    12    11    2
   113    98   101    1
   114    98    99    1
   115    11    13   am
   116    11    10    1
   117   137   136    1
   118   101   102    1
   119   112   111    1
   120     7     6    1
   121    99   100    2
   122    99   105   am
   123     1     2    1
   124   103   102    1
   125     9    10    1
   126     9     3   am
   127   110   111    1
   128   110   109    1
   129   136   138    1
   130   136   135    1
   131   105   106    1
   132   102   104    1
   133     5     6    1
   134     5     2    1
   135     6     8    1
   136     2     3    1
   137     3     4    2
   138   135   132    1
   139   109   106    1
   140   106   107    1
   141   131   132    1
   142   132   133    1
   143   107   108    2
   144   134   133    2
   145   121   118    1
   146   121   122    1
   147   191   189    1
   148   187   186    2
   149   189   188    1
   150   189   190    1
   151   118   117    1
   152   118   119    1
   153   116   115    2
   154   117   115   am
   155   115   114    1
   156   188   185    1
   157   186   185    1
   158   114   113    1
   159   185   184    1
   160   119   120    2
   161   181   183   ar
   162   181   179   ar
   163   183   182   ar
   164   129   128   ar
   165   128   130   ar
   166   128   127    1
   167   179   178   ar
   168   182   180   ar
   169   123   124    1
   170   127   124    1
   171   176   175    2
   172   180   178   ar
   173   178   177    1
   174   124   125    1
   175   175   174    1
   176   177   174    1
   177   125   126    2
   178   174   173    1
