@<TRIPOS>MOLECULE
tmp/3w34A01.pdb
 105 99 0 0 0
SMALL
GASTEIGER

@<TRIPOS>ATOM
      1  N         -3.1100  -11.4660    3.5960 N.3    12  THR12      -0.1203
      2  CA        -2.8830  -11.7190    2.2020 C.3    12  THR12       0.1994
      3  C         -1.4950  -11.1870    1.8330 C.2    12  THR12       0.2618
      4  O         -1.0840  -10.1060    2.2720 O.2    12  THR12      -0.2717
      5  CB        -4.0040  -11.0620    1.2850 C.3    12  THR12       0.1784
      6  OG1       -3.7560  -11.4340   -0.0780 O.3    12  THR12      -0.2211
      7  CG2       -3.9630   -9.4860    1.3170 C.3    12  THR12       0.0376
      8  N         -0.7640  -11.9760    1.0580 N.am   13  ALA13      -0.1965
      9  CA         0.5760  -11.6120    0.5560 C.3    13  ALA13       0.1728
     10  C          1.6060  -11.3250    1.6570 C.2    13  ALA13       0.2617
     11  O          2.5570  -10.5350    1.4740 O.2    13  ALA13      -0.2715
     12  CB         0.4740  -10.4060   -0.3900 C.3    13  ALA13       0.0334
     13  N          1.4100  -11.9800    2.7940 N.am   14  SER14      -0.1936
     14  CA         2.3060  -11.8350    3.9430 C.3    14  SER14       0.2055
     15  C          3.5920  -12.6530    3.7740 C.2    14  SER14       0.2644
     16  O          4.5670  -12.4480    4.5050 O.2    14  SER14      -0.2714
     17  CB         1.6050  -12.3660    5.2020 C.3    14  SER14       0.2130
     18  OG         1.1600  -13.7160    4.9680 O.3    14  SER14      -0.2179
     19  N          3.5860  -13.6010    2.8470 N.am   15  GLY15      -0.1939
     20  CA         4.7580  -14.4610    2.7230 C.3    15  GLY15       0.2014
     21  C          4.3930  -15.8450    3.2790 C.2    15  GLY15       0.2639
     22  O          5.2030  -16.7860    3.2990 O.2    15  GLY15      -0.2714
     23  N          3.1370  -16.0030    3.7000 N.am   16  LYS16      -0.1963
     24  CA         2.7650  -17.2900    4.2820 C.3    16  LYS16       0.1728
     25  C          2.7690  -18.4420    3.2820 C.2    16  LYS16       0.2617
     26  O          3.1150  -19.5640    3.6520 O.2    16  LYS16      -0.2715
     27  CB         1.3910  -17.2290    4.9440 C.3    16  LYS16       0.0311
     28  CG         0.3050  -16.9690    3.9800 C.3    16  LYS16       0.0038
     29  CD        -1.0500  -17.1150    4.6070 C.3    16  LYS16       0.0206
     30  CE        -2.0600  -16.6720    3.5900 C.3    16  LYS16       0.1093
     31  NZ        -1.8480  -17.3870    2.3050 N.3    16  LYS16      -0.1314
     32  N          2.3770  -18.1870    2.0320 N.am   17  THR17      -0.1937
     33  CA         2.3570  -19.2700    1.0510 C.3    17  THR17       0.2028
     34  C          3.7550  -19.6910    0.6730 C.2    17  THR17       0.2642
     35  O          4.0750  -20.8940    0.6030 O.2    17  THR17      -0.2714
     36  CB         1.6290  -18.8540   -0.2100 C.3    17  THR17       0.1808
     37  OG1        0.3190  -18.4250    0.1470 O.3    17  THR17      -0.2208
     38  CG2        1.5200  -20.0330   -1.1770 C.3    17  THR17       0.0379
     39  N          4.5950  -18.7050    0.4240 N.am   18  THR18      -0.1950
     40  CA         5.9840  -18.9860    0.1170 C.3    18  THR18       0.1897
     41  C          6.6960  -19.7520    1.2530 C.2    18  THR18       0.2313
     42  O          7.4730  -20.6720    0.9990 O.2    18  THR18      -0.2863
     43  CB         6.7140  -17.7000   -0.1440 C.3    18  THR18       0.1794
     44  OG1        6.1390  -17.1050   -1.3140 O.3    18  THR18      -0.2208
     45  CG2        8.1900  -17.9580   -0.3830 C.3    18  THR18       0.0378
     46  N         -6.9430  -21.4250    0.6730 N.3    37  ASP37      -0.1239
     47  CA        -7.4600  -20.5080   -0.3590 C.3    37  ASP37       0.1674
     48  C         -8.0650  -21.2700   -1.5500 C.2    37  ASP37       0.2266
     49  O         -8.7720  -20.6840   -2.3560 O.2    37  ASP37      -0.2867
     50  CB        -6.3870  -19.5080   -0.8460 C.3    37  ASP37       0.1410
     51  CG        -5.2620  -20.1770   -1.6520 C.2    37  ASP37       0.3668
     52  OD1       -4.8320  -21.2800   -1.2550 O.co2  37  ASP37      -0.2456
     53  OD2       -4.7890  -19.5940   -2.6710 O.co2  37  ASP37      -0.2456
     54  N         -5.2030  -17.5480    4.9290 N.3   110  ILE110     -0.1245
     55  CA        -5.3570  -16.3540    5.7460 C.3   110  ILE110      0.1561
     56  C         -6.1870  -16.6320    7.0020 C.2   110  ILE110      0.2260
     57  O         -5.9480  -16.0020    8.0410 O.2   110  ILE110     -0.2867
     58  CB        -6.0230  -15.1950    4.9850 C.3   110  ILE110      0.0252
     59  CG1       -7.3810  -15.6650    4.4490 C.3   110  ILE110      0.0019
     60  CG2       -5.0500  -14.6540    3.8870 C.3   110  ILE110      0.0019
     61  CD1       -7.4300  -16.5010    3.2520 C.3   110  ILE110      0.0001
     62  N          2.6020   -6.2970   -2.7010 N.3   138  ARG138     -0.1231
     63  CA         2.6640   -7.6300   -3.3200 C.3   138  ARG138      0.1694
     64  C          1.2850   -8.1490   -3.8210 C.2   138  ARG138      0.2591
     65  O          1.1920   -8.8550   -4.8580 O.2   138  ARG138     -0.2718
     66  CB         3.2980   -8.6380   -2.3540 C.3   138  ARG138      0.0321
     67  CG         4.8500   -8.5120   -2.2890 C.3   138  ARG138      0.0489
     68  CD         5.4240   -9.6690   -1.4710 C.3   138  ARG138      0.2205
     69  NE         4.8980   -9.6510   -0.1070 N.pl3 138  ARG138     -0.0865
     70  CZ         5.4590   -8.9930    0.9140 C.cat 138  ARG138      0.5346
     71  NH1        6.5830   -8.3060    0.7570 N.pl3 138  ARG138      0.1354
     72  NH2        4.8690   -8.9770    2.0950 N.pl3 138  ARG138      0.1354
     73  N          0.2200   -7.8190   -3.0910 N.am  139  ARG139     -0.1980
     74  CA        -1.1300   -8.2280   -3.4930 C.3   139  ARG139      0.1597
     75  C         -1.4940   -7.5560   -4.8410 C.2   139  ARG139      0.2287
     76  O         -2.0210   -8.1970   -5.7560 O.2   139  ARG139     -0.2864
     77  CB        -2.1520   -7.8240   -2.4020 C.3   139  ARG139      0.0334
     78  CG        -3.6610   -7.9290   -2.7880 C.3   139  ARG139      0.0492
     79  CD        -4.0910   -9.3720   -3.2160 C.3   139  ARG139      0.2205
     80  NE        -5.5270   -9.4030   -3.4910 N.pl3 139  ARG139     -0.0865
     81  CZ        -6.4470   -9.8810   -2.6450 C.cat 139  ARG139      0.5346
     82  NH1       -6.0790  -10.3820   -1.4830 N.pl3 139  ARG139      0.1354
     83  NH2       -7.7280   -9.8270   -2.9540 N.pl3 139  ARG139      0.1354
     84  N          0.4660   -9.2410   -7.6900 N.3   142  ARG142     -0.1245
     85  CA        -0.0430  -10.6170   -7.8810 C.3   142  ARG142      0.1563
     86  C         -1.3780  -10.5890   -8.6570 C.2   142  ARG142      0.2260
     87  O         -1.5770  -11.3510   -9.6390 O.2   142  ARG142     -0.2867
     88  CB        -0.2370  -11.2370   -6.4840 C.3   142  ARG142      0.0307
     89  CG        -0.6150  -12.6930   -6.3690 C.3   142  ARG142      0.0489
     90  CD        -2.1240  -12.9250   -6.5290 C.3   142  ARG142      0.2205
     91  NE        -3.0270  -12.5370   -5.4290 N.pl3 142  ARG142     -0.0865
     92  CZ        -3.0840  -13.1140   -4.2260 C.cat 142  ARG142      0.5346
     93  NH1       -3.9930  -12.7030   -3.3290 N.pl3 142  ARG142      0.1354
     94  NH2       -2.2120  -14.0660   -3.8910 N.pl3 142  ARG142      0.1354
     95  N         -4.0460  -12.6500  -11.9430 N.3   147  ARG147     -0.1245
     96  CA        -5.4740  -12.8550  -11.7920 C.3   147  ARG147      0.1563
     97  C         -6.4220  -11.9870  -12.6110 C.2   147  ARG147      0.2260
     98  O         -7.6220  -11.9870  -12.3310 O.2   147  ARG147     -0.2867
     99  CB        -5.8020  -12.7870  -10.2840 C.3   147  ARG147      0.0307
    100  CG        -5.0190  -13.8580   -9.5090 C.3   147  ARG147      0.0489
    101  CD        -5.2530  -13.9070   -7.9980 C.3   147  ARG147      0.2205
    102  NE        -4.5090  -15.0310   -7.4480 N.pl3 147  ARG147     -0.0865
    103  CZ        -4.6420  -15.5200   -6.2170 C.cat 147  ARG147      0.5346
    104  NH1       -5.5030  -14.9790   -5.3530 N.pl3 147  ARG147      0.1354
    105  NH2       -3.9080  -16.5790   -5.8510 N.pl3 147  ARG147      0.1354
@<TRIPOS>BOND
     1    97    98    2
     2    97    96    1
     3    95    96    1
     4    96    99    1
     5    99   100    1
     6    87    86    2
     7   100   101    1
     8    86    85    1
     9   101   102    1
    10    85    84    1
    11    85    88    1
    12   102   103    2
    13    90    89    1
    14    90    91    1
    15    88    89    1
    16   103   105    1
    17   103   104    1
    18    76    75    2
    19    91    92    2
    20    65    64    2
    21    75    74    1
    22    92    94    1
    23    92    93    1
    24    64    63    1
    25    64    73   am
    26    74    73    1
    27    74    77    1
    28    80    79    1
    29    80    81    2
    30    63    62    1
    31    63    66    1
    32    79    78    1
    33    83    81    1
    34    78    77    1
    35    53    51   ar
    36    81    82    1
    37    49    48    2
    38    66    67    1
    39    67    68    1
    40    51    52   ar
    41    51    50    1
    42    48    47    1
    43    68    69    1
    44    44    43    1
    45    38    36    1
    46    50    47    1
    47    12     9    1
    48    45    43    1
    49    47    46    1
    50    36    37    1
    51    36    33    1
    52    43    40    1
    53    69    70    2
    54     6     5    1
    55    40    39    1
    56    40    41    1
    57    39    34   am
    58     9     8    1
    59     9    10    1
    60    35    34    2
    61    34    33    1
    62    71    70    1
    63    70    72    1
    64    42    41    2
    65    33    32    1
    66     8     3   am
    67     5     7    1
    68     5     2    1
    69    11    10    2
    70    10    13   am
    71     3     2    1
    72     3     4    2
    73    32    25   am
    74     2     1    1
    75    31    30    1
    76    20    19    1
    77    20    21    1
    78    13    14    1
    79    19    15   am
    80    61    59    1
    81    21    22    2
    82    21    23   am
    83    25    26    2
    84    25    24    1
    85    30    29    1
    86    23    24    1
    87    15    14    1
    88    15    16    2
    89    60    58    1
    90    14    17    1
    91    28    29    1
    92    28    27    1
    93    24    27    1
    94    59    58    1
    95    54    55    1
    96    18    17    1
    97    58    55    1
    98    55    56    1
    99    56    57    2
