@<TRIPOS>MOLECULE
tmp/3w34A00.pdb
 160 151 0 0 0
SMALL
GASTEIGER

@<TRIPOS>ATOM
      1  N         -3.1100  -11.4660    3.5960 N.3    12  THR12      -0.1218
      2  CA        -2.8830  -11.7190    2.2020 C.3    12  THR12       0.1862
      3  C         -1.4950  -11.1870    1.8330 C.2    12  THR12       0.2287
      4  O         -1.0840  -10.1060    2.2720 O.2    12  THR12      -0.2866
      5  CB        -4.0040  -11.0620    1.2850 C.3    12  THR12       0.1770
      6  OG1       -3.7560  -11.4340   -0.0780 O.3    12  THR12      -0.2211
      7  CG2       -3.9630   -9.4860    1.3170 C.3    12  THR12       0.0375
      8  N          3.1370  -16.0030    3.7000 N.3    16  LYS16      -0.1245
      9  CA         2.7650  -17.2900    4.2820 C.3    16  LYS16       0.1561
     10  C          2.7690  -18.4420    3.2820 C.2    16  LYS16       0.2260
     11  O          3.1150  -19.5640    3.6520 O.2    16  LYS16      -0.2867
     12  CB         1.3910  -17.2290    4.9440 C.3    16  LYS16       0.0271
     13  CG         0.3050  -16.9690    3.9800 C.3    16  LYS16       0.0035
     14  CD        -1.0500  -17.1150    4.6070 C.3    16  LYS16       0.0206
     15  CE        -2.0600  -16.6720    3.5900 C.3    16  LYS16       0.1093
     16  NZ        -1.8480  -17.3870    2.3050 N.3    16  LYS16      -0.1314
     17  N         -6.9430  -21.4250    0.6730 N.3    37  ASP37      -0.1239
     18  CA        -7.4600  -20.5080   -0.3590 C.3    37  ASP37       0.1674
     19  C         -8.0650  -21.2700   -1.5500 C.2    37  ASP37       0.2266
     20  O         -8.7720  -20.6840   -2.3560 O.2    37  ASP37      -0.2867
     21  CB        -6.3870  -19.5080   -0.8460 C.3    37  ASP37       0.1410
     22  CG        -5.2620  -20.1770   -1.6520 C.2    37  ASP37       0.3668
     23  OD1       -4.8320  -21.2800   -1.2550 O.co2  37  ASP37      -0.2456
     24  OD2       -4.7890  -19.5940   -2.6710 O.co2  37  ASP37      -0.2456
     25  N        -12.7650  -22.2820   -1.2660 N.3    40  TYR40      -0.1241
     26  CA       -13.9460  -21.4280   -1.2900 C.3    40  TYR40       0.1605
     27  C        -15.1220  -22.2970   -1.7400 C.2    40  TYR40       0.2264
     28  O        -14.9490  -23.2530   -2.4910 O.2    40  TYR40      -0.2867
     29  CB       -13.7630  -20.2930   -2.3090 C.3    40  TYR40       0.0534
     30  CG       -12.8290  -19.1880   -1.7860 C.ar   40  TYR40      -0.0201
     31  CD1      -13.2600  -18.3250   -0.7800 C.ar   40  TYR40      -0.0009
     32  CD2      -11.5200  -19.0590   -2.2520 C.ar   40  TYR40      -0.0009
     33  CE1      -12.4200  -17.3580   -0.2280 C.ar   40  TYR40       0.0417
     34  CE2      -10.6560  -18.0770   -1.7070 C.ar   40  TYR40       0.0417
     35  CZ       -11.1210  -17.2420   -0.7080 C.ar   40  TYR40       0.1957
     36  OH       -10.3350  -16.2350   -0.1980 O.3    40  TYR40      -0.2866
     37  N        -14.6540  -12.4070   -0.2270 N.3    56  TYR56      -0.1227
     38  CA       -13.7940  -13.5900   -0.1180 C.3    56  TYR56       0.1736
     39  C        -12.8020  -13.5660    1.0430 C.2    56  TYR56       0.2595
     40  O        -11.9070  -14.4170    1.1210 O.2    56  TYR56      -0.2718
     41  CB       -13.0520  -13.8170   -1.4290 C.3    56  TYR56       0.0548
     42  CG       -14.0030  -14.1450   -2.5790 C.ar   56  TYR56      -0.0200
     43  CD1      -14.4780  -13.1540   -3.4370 C.ar   56  TYR56      -0.0009
     44  CD2      -14.4570  -15.4660   -2.7660 C.ar   56  TYR56      -0.0009
     45  CE1      -15.3940  -13.4570   -4.4710 C.ar   56  TYR56       0.0417
     46  CE2      -15.3710  -15.7810   -3.7780 C.ar   56  TYR56       0.0417
     47  CZ       -15.8490  -14.7710   -4.6300 C.ar   56  TYR56       0.1957
     48  OH       -16.8420  -15.0770   -5.5670 O.3    56  TYR56      -0.2866
     49  N        -12.9790  -12.5990    1.9310 N.am   57  ASP57      -0.1974
     50  CA       -12.1090  -12.4900    3.0930 C.3    57  ASP57       0.1709
     51  C        -12.8850  -12.7220    4.3880 C.2    57  ASP57       0.2293
     52  O        -12.3460  -12.5990    5.4840 O.2    57  ASP57      -0.2864
     53  CB       -11.3810  -11.1320    3.0600 C.3    57  ASP57       0.1436
     54  CG       -10.3840  -11.0790    1.9260 C.2    57  ASP57       0.3671
     55  OD1       -9.1670  -11.3350    2.1720 O.co2  57  ASP57      -0.2456
     56  OD2      -10.8300  -10.8070    0.7890 O.co2  57  ASP57      -0.2456
     57  N         -9.2530  -23.6610   -7.0220 N.3    85  TYR85      -0.1241
     58  CA       -10.0590  -22.4830   -7.2820 C.3    85  TYR85       0.1605
     59  C         -9.4880  -21.6460   -8.4310 C.2    85  TYR85       0.2264
     60  O         -8.2650  -21.4980   -8.5630 O.2    85  TYR85      -0.2867
     61  CB       -10.1740  -21.6460   -6.0140 C.3    85  TYR85       0.0534
     62  CG       -11.1890  -20.5410   -6.1190 C.ar   85  TYR85      -0.0201
     63  CD1      -12.5410  -20.7790   -5.8820 C.ar   85  TYR85      -0.0009
     64  CD2      -10.7900  -19.2500   -6.4730 C.ar   85  TYR85      -0.0009
     65  CE1      -13.4860  -19.7540   -5.9960 C.ar   85  TYR85       0.0417
     66  CE2      -11.7070  -18.2190   -6.5890 C.ar   85  TYR85       0.0417
     67  CZ       -13.0460  -18.4670   -6.3560 C.ar   85  TYR85       0.1957
     68  OH       -13.9360  -17.4410   -6.4890 O.3    85  TYR85      -0.2866
     69  N         -9.1000  -18.1280   -9.6770 N.3    87  PHE87      -0.1241
     70  CA        -9.1290  -16.7170   -9.2640 C.3    87  PHE87       0.1605
     71  C         -9.4390  -15.7650  -10.4060 C.2    87  PHE87       0.2264
     72  O         -9.9180  -14.6470  -10.1880 O.2    87  PHE87      -0.2867
     73  CB        -7.7870  -16.3680   -8.6240 C.3    87  PHE87       0.0534
     74  CG        -7.5760  -17.0790   -7.3250 C.ar   87  PHE87      -0.0203
     75  CD1       -8.2080  -16.6100   -6.1680 C.ar   87  PHE87      -0.0042
     76  CD2       -6.8450  -18.2480   -7.2680 C.ar   87  PHE87      -0.0042
     77  CE1       -8.1150  -17.2900   -4.9880 C.ar   87  PHE87      -0.0003
     78  CE2       -6.7410  -18.9530   -6.0800 C.ar   87  PHE87      -0.0003
     79  CZ        -7.3790  -18.4710   -4.9310 C.ar   87  PHE87      -0.0000
     80  N        -13.2920  -16.4860  -10.9740 N.3    90  TYR90      -0.1241
     81  CA       -14.0280  -16.3440   -9.7230 C.3    90  TYR90       0.1605
     82  C        -14.9200  -17.5400   -9.4480 C.2    90  TYR90       0.2264
     83  O        -16.0840  -17.3690   -9.0640 O.2    90  TYR90      -0.2867
     84  CB       -14.8860  -15.0680   -9.6870 C.3    90  TYR90       0.0534
     85  CG       -14.1450  -13.7720   -9.4140 C.ar   90  TYR90      -0.0201
     86  CD1      -14.3950  -13.0450   -8.2450 C.ar   90  TYR90      -0.0009
     87  CD2      -13.2410  -13.2510  -10.3280 C.ar   90  TYR90      -0.0009
     88  CE1      -13.7660  -11.8300   -7.9930 C.ar   90  TYR90       0.0417
     89  CE2      -12.5950  -12.0070  -10.0860 C.ar   90  TYR90       0.0417
     90  CZ       -12.8790  -11.3070   -8.9070 C.ar   90  TYR90       0.1957
     91  OH       -12.3560  -10.0400   -8.6870 O.3    90  TYR90      -0.2866
     92  N         -5.2030  -17.5480    4.9290 N.3   110  ILE110     -0.1245
     93  CA        -5.3570  -16.3540    5.7460 C.3   110  ILE110      0.1561
     94  C         -6.1870  -16.6320    7.0020 C.2   110  ILE110      0.2260
     95  O         -5.9480  -16.0020    8.0410 O.2   110  ILE110     -0.2867
     96  CB        -6.0230  -15.1950    4.9850 C.3   110  ILE110      0.0252
     97  CG1       -7.3810  -15.6650    4.4490 C.3   110  ILE110      0.0019
     98  CG2       -5.0500  -14.6540    3.8870 C.3   110  ILE110      0.0019
     99  CD1       -7.4300  -16.5010    3.2520 C.3   110  ILE110      0.0001
    100  N          0.2200   -7.8190   -3.0910 N.3   139  ARG139     -0.1245
    101  CA        -1.1300   -8.2280   -3.4930 C.3   139  ARG139      0.1563
    102  C         -1.4940   -7.5560   -4.8410 C.2   139  ARG139      0.2260
    103  O         -2.0210   -8.1970   -5.7560 O.2   139  ARG139     -0.2867
    104  CB        -2.1520   -7.8240   -2.4020 C.3   139  ARG139      0.0307
    105  CG        -3.6610   -7.9290   -2.7880 C.3   139  ARG139      0.0489
    106  CD        -4.0910   -9.3720   -3.2160 C.3   139  ARG139      0.2205
    107  NE        -5.5270   -9.4030   -3.4910 N.pl3 139  ARG139     -0.0865
    108  CZ        -6.4470   -9.8810   -2.6450 C.cat 139  ARG139      0.5346
    109  NH1       -6.0790  -10.3820   -1.4830 N.pl3 139  ARG139      0.1354
    110  NH2       -7.7280   -9.8270   -2.9540 N.pl3 139  ARG139      0.1354
    111  N          0.4660   -9.2410   -7.6900 N.3   142  ARG142     -0.1231
    112  CA        -0.0430  -10.6170   -7.8810 C.3   142  ARG142      0.1694
    113  C         -1.3780  -10.5890   -8.6570 C.2   142  ARG142      0.2592
    114  O         -1.5770  -11.3510   -9.6390 O.2   142  ARG142     -0.2718
    115  CB        -0.2370  -11.2370   -6.4840 C.3   142  ARG142      0.0321
    116  CG        -0.6150  -12.6930   -6.3690 C.3   142  ARG142      0.0489
    117  CD        -2.1240  -12.9250   -6.5290 C.3   142  ARG142      0.2205
    118  NE        -3.0270  -12.5370   -5.4290 N.pl3 142  ARG142     -0.0865
    119  CZ        -3.0840  -13.1140   -4.2260 C.cat 142  ARG142      0.5346
    120  NH1       -3.9930  -12.7030   -3.3290 N.pl3 142  ARG142      0.1354
    121  NH2       -2.2120  -14.0660   -3.8910 N.pl3 142  ARG142      0.1354
    122  N         -2.2910   -9.7220   -8.2110 N.am  143  ASP143     -0.1974
    123  CA        -3.6170   -9.6240   -8.8180 C.3   143  ASP143      0.1709
    124  C         -3.5880   -9.1730  -10.2580 C.2   143  ASP143      0.2293
    125  O         -4.3160   -9.7200  -11.0960 O.2   143  ASP143     -0.2864
    126  CB        -4.5560   -8.6660   -8.0260 C.3   143  ASP143      0.1436
    127  CG        -5.1230   -9.3140   -6.7350 C.2   143  ASP143      0.3671
    128  OD1       -4.7700  -10.4590   -6.4380 O.co2 143  ASP143     -0.2456
    129  OD2       -5.8960   -8.6550   -6.0230 O.co2 143  ASP143     -0.2456
    130  N         -4.0460  -12.6500  -11.9430 N.3   147  ARG147     -0.1245
    131  CA        -5.4740  -12.8550  -11.7920 C.3   147  ARG147      0.1563
    132  C         -6.4220  -11.9870  -12.6110 C.2   147  ARG147      0.2260
    133  O         -7.6220  -11.9870  -12.3310 O.2   147  ARG147     -0.2867
    134  CB        -5.8020  -12.7870  -10.2840 C.3   147  ARG147      0.0307
    135  CG        -5.0190  -13.8580   -9.5090 C.3   147  ARG147      0.0489
    136  CD        -5.2530  -13.9070   -7.9980 C.3   147  ARG147      0.2205
    137  NE        -4.5090  -15.0310   -7.4480 N.pl3 147  ARG147     -0.0865
    138  CZ        -4.6420  -15.5200   -6.2170 C.cat 147  ARG147      0.5346
    139  NH1       -5.5030  -14.9790   -5.3530 N.pl3 147  ARG147      0.1354
    140  NH2       -3.9080  -16.5790   -5.8510 N.pl3 147  ARG147      0.1354
    141  N         -6.8670   -8.7550  -12.7570 N.3   149  ARG149     -0.1245
    142  CA        -7.5640   -7.6780  -12.0540 C.3   149  ARG149      0.1563
    143  C         -6.9830   -6.3560  -12.5270 C.2   149  ARG149      0.2260
    144  O         -5.8550   -6.3210  -12.9980 O.2   149  ARG149     -0.2867
    145  CB        -7.3370   -7.7710  -10.5450 C.3   149  ARG149      0.0307
    146  CG        -7.5400   -9.1760   -9.9310 C.3   149  ARG149      0.0489
    147  CD        -9.0130   -9.5500   -9.9370 C.3   149  ARG149      0.2205
    148  NE        -9.2580  -10.9440   -9.5320 N.pl3 149  ARG149     -0.0865
    149  CZ        -9.4210  -11.3620   -8.2850 C.cat 149  ARG149      0.5346
    150  NH1       -9.3540  -10.4970   -7.2810 N.pl3 149  ARG149      0.1354
    151  NH2       -9.6860  -12.6600   -8.0410 N.pl3 149  ARG149      0.1354
    152  N        -11.4430   -3.5810   -3.9150 N.3   157  GLN157     -0.1245
    153  CA       -11.6460   -4.8330   -3.1570 C.3   157  GLN157      0.1566
    154  C        -10.8990   -4.7410   -1.8230 C.2   157  GLN157      0.2260
    155  O        -11.4100   -5.1560   -0.7670 O.2   157  GLN157     -0.2867
    156  CB       -11.1170   -6.0600   -3.9460 C.3   157  GLN157      0.0367
    157  CG       -11.5450   -7.4250   -3.3260 C.3   157  GLN157      0.0905
    158  CD       -10.8040   -8.6240   -3.8900 C.2   157  GLN157      0.2608
    159  OE1       -9.8920   -8.4930   -4.7420 O.2   157  GLN157     -0.2717
    160  NE2      -11.1650   -9.8200   -3.3950 N.am  157  GLN157     -0.0878
@<TRIPOS>BOND
     1   144   143    2
     2   141   142    1
     3   132   133    2
     4   132   131    1
     5   143   142    1
     6   142   145    1
     7   130   131    1
     8   131   134    1
     9   125   124    2
    10    80    81    1
    11   145   146    1
    12    71    72    2
    13    71    70    1
    14    87    89   ar
    15    87    85   ar
    16   134   135    1
    17   124   123    1
    18    89    90   ar
    19   147   146    1
    20   147   148    1
    21    81    84    1
    22    81    82    1
    23    84    85    1
    24    69    70    1
    25   114   113    2
    26   148   149    2
    27   135   136    1
    28    82    83    2
    29    85    86   ar
    30    70    73    1
    31    90    91    1
    32    90    88   ar
    33   123   122    1
    34   123   126    1
    35   113   122   am
    36   113   112    1
    37    73    74    1
    38    60    59    2
    39    59    58    1
    40   149   151    1
    41   149   150    1
    42    86    88   ar
    43   126   127    1
    44   136   137    1
    45   112   111    1
    46   112   115    1
    47   137   138    2
    48    74    76   ar
    49    74    75   ar
    50    58    57    1
    51    58    61    1
    52    76    78   ar
    53   127   128   ar
    54   127   129   ar
    55    66    64   ar
    56    66    67   ar
    57   117   116    1
    58   117   118    1
    59    68    67    1
    60   115   116    1
    61    64    62   ar
    62    67    65   ar
    63   138   140    1
    64   138   139    1
    65    75    77   ar
    66    62    61    1
    67    62    63   ar
    68    78    79   ar
    69    65    63   ar
    70   103   102    2
    71    48    47    1
    72   118   119    2
    73    77    79   ar
    74   102   101    1
    75   159   158    2
    76    47    45   ar
    77    47    46   ar
    78    45    43   ar
    79   119   121    1
    80   119   120    1
    81   156   157    1
    82   156   153    1
    83   152   153    1
    84   158   160   am
    85   158   157    1
    86    46    44   ar
    87   101   100    1
    88   101   104    1
    89   107   106    1
    90   107   108    2
    91    43    42   ar
    92   106   105    1
    93   153   154    1
    94   110   108    1
    95   105   104    1
    96    44    42   ar
    97    24    22   ar
    98   108   109    1
    99    42    41    1
   100    28    27    2
   101    20    19    2
   102    29    30    1
   103    29    26    1
   104    32    30   ar
   105    32    34   ar
   106   154   155    2
   107    30    31   ar
   108    27    26    1
   109    34    35   ar
   110    22    23   ar
   111    22    21    1
   112    19    18    1
   113    41    38    1
   114    26    25    1
   115    21    18    1
   116    31    33   ar
   117    35    33   ar
   118    35    36    1
   119    18    17    1
   120    37    38    1
   121    38    39    1
   122     6     5    1
   123    56    54   ar
   124    39    40    2
   125    39    49   am
   126     5     7    1
   127     5     2    1
   128     3     2    1
   129     3     4    2
   130    54    55   ar
   131    54    53    1
   132    49    50    1
   133     2     1    1
   134    16    15    1
   135    53    50    1
   136    50    51    1
   137    99    97    1
   138    10    11    2
   139    10     9    1
   140    15    14    1
   141     8     9    1
   142    98    96    1
   143    13    14    1
   144    13    12    1
   145     9    12    1
   146    51    52    2
   147    97    96    1
   148    92    93    1
   149    96    93    1
   150    93    94    1
   151    94    95    2
