@<TRIPOS>MOLECULE
tmp/3w37A00.pdb
 205 201 0 0 0
SMALL
GASTEIGER

@<TRIPOS>ATOM
      1  N          8.0250   -2.9570  -18.9910 N.3   175  ASP175     -0.1225
      2  CA         6.7320   -3.2040  -19.6460 C.3   175  ASP175      0.1805
      3  C          6.5130   -2.0670  -20.6310 C.2   175  ASP175      0.2598
      4  O          5.8380   -1.0760  -20.3330 O.2   175  ASP175     -0.2718
      5  CB         5.6510   -3.2110  -18.5740 C.3   175  ASP175      0.1424
      6  CG         4.2710   -3.5530  -19.1360 C.2   175  ASP175      0.3668
      7  OD1        4.1360   -3.6860  -20.3720 O.co2 175  ASP175     -0.2456
      8  OD2        3.3210   -3.6500  -18.3330 O.co2 175  ASP175     -0.2456
      9  N          7.1630   -2.1690  -21.7820 N.am  176  ILE176     -0.1966
     10  CA         7.0790   -1.1250  -22.8010 C.3   176  ILE176      0.1727
     11  C          6.6600   -1.8610  -24.0720 C.2   176  ILE176      0.2616
     12  O          7.1670   -2.9290  -24.3560 O.2   176  ILE176     -0.2715
     13  CB         8.4620   -0.4380  -23.0120 C.3   176  ILE176      0.0290
     14  CG1        8.7970    0.4090  -21.7780 C.3   176  ILE176      0.0022
     15  CG2        8.4740    0.3760  -24.3370 C.3   176  ILE176      0.0023
     16  CD1       10.1770    1.1030  -21.8990 C.3   176  ILE176      0.0001
     17  N          5.6500   -1.3410  -24.7710 N.am  177  ALA177     -0.1977
     18  CA         5.0940   -2.1380  -25.9000 C.3   177  ALA177      0.1597
     19  C          6.0890   -2.2620  -27.0390 C.2   177  ALA177      0.2287
     20  O          6.7870   -1.2940  -27.3790 O.2   177  ALA177     -0.2864
     21  CB         3.7860   -1.4930  -26.4050 C.3   177  ALA177      0.0319
     22  N          5.4980   -2.3970  -30.0130 N.3   179  PHE179     -0.1227
     23  CA         5.2460   -1.5310  -31.1730 C.3   179  PHE179      0.1736
     24  C          6.1110   -0.2750  -31.1930 C.2   179  PHE179      0.2595
     25  O          6.1730    0.4110  -32.2170 O.2   179  PHE179     -0.2718
     26  CB         3.7470   -1.2210  -31.4170 C.3   179  PHE179      0.0547
     27  CG         3.0380   -0.5270  -30.2630 C.ar  179  PHE179     -0.0202
     28  CD1        2.0530   -1.1840  -29.5520 C.ar  179  PHE179     -0.0042
     29  CD2        3.3230    0.8090  -29.9550 C.ar  179  PHE179     -0.0042
     30  CE1        1.3630   -0.5280  -28.5130 C.ar  179  PHE179     -0.0003
     31  CE2        2.6580    1.4580  -28.9200 C.ar  179  PHE179     -0.0003
     32  CZ         1.6680    0.7870  -28.1930 C.ar  179  PHE179     -0.0000
     33  N          6.8060   -0.0060  -30.0800 N.am  180  ASN180     -0.1974
     34  CA         7.7500    1.1190  -29.9760 C.3   180  ASN180      0.1688
     35  C          9.1150    0.6580  -30.4890 C.2   180  ASN180      0.2292
     36  O          9.6880   -0.2520  -29.9160 O.2   180  ASN180     -0.2864
     37  CB         7.9080    1.5250  -28.4940 C.3   180  ASN180      0.1181
     38  CG         6.6550    2.1960  -27.9470 C.2   180  ASN180      0.2629
     39  OD1        6.2210    3.2360  -28.4630 O.2   180  ASN180     -0.2716
     40  ND2        6.0460    1.5840  -26.9330 N.am  180  ASN180     -0.0877
     41  N         13.2430    1.1890  -28.1010 N.3   183  LEU183     -0.1245
     42  CA        13.2440    1.2050  -26.6310 C.3   183  LEU183      0.1561
     43  C         13.5630   -0.1270  -26.0250 C.2   183  LEU183      0.2260
     44  O         13.3040   -1.1710  -26.6130 O.2   183  LEU183     -0.2867
     45  CB        11.8690    1.6120  -26.0870 C.3   183  LEU183      0.0270
     46  CG        11.3210    2.9200  -26.6790 C.3   183  LEU183      0.0019
     47  CD1       10.0660    3.3610  -25.9180 C.3   183  LEU183      0.0001
     48  CD2       12.3910    4.0320  -26.7040 C.3   183  LEU183      0.0001
     49  N         -7.6980  -10.8760  -25.5820 N.3   272  TRP272     -0.1241
     50  CA        -8.0360  -10.2140  -24.3280 C.3   272  TRP272      0.1605
     51  C         -9.4250   -9.6640  -24.5260 C.2   272  TRP272      0.2264
     52  O         -9.6470   -8.8590  -25.4380 O.2   272  TRP272     -0.2867
     53  CB        -7.0300   -9.0960  -24.0470 C.3   272  TRP272      0.0550
     54  CG        -7.3250   -8.3620  -22.7860 C.ar  272  TRP272      0.0003
     55  CD1       -8.0530   -8.8090  -21.7450 C.ar  272  TRP272      0.0946
     56  CD2       -6.9390   -7.0160  -22.4800 C.ar  272  TRP272      0.0152
     57  NE1       -8.1430   -7.8150  -20.7660 N.ar  272  TRP272     -0.2442
     58  CE2       -7.4440   -6.7170  -21.2040 C.ar  272  TRP272      0.0810
     59  CE3       -6.2030   -6.0400  -23.1710 C.ar  272  TRP272      0.0012
     60  CZ2       -7.2520   -5.4650  -20.5890 C.ar  272  TRP272      0.0191
     61  CZ3       -6.0220   -4.7880  -22.5600 C.ar  272  TRP272      0.0001
     62  CH2       -6.5360   -4.5230  -21.2750 C.ar  272  TRP272      0.0015
     63  N         -7.3260  -15.2490  -21.5880 N.3   300  ASP300     -0.1225
     64  CA        -6.6010  -14.1540  -20.9880 C.3   300  ASP300      0.1805
     65  C         -7.2780  -13.8610  -19.6420 C.2   300  ASP300      0.2597
     66  O         -8.0960  -14.6520  -19.1630 O.2   300  ASP300     -0.2718
     67  CB        -6.6940  -12.9550  -21.9280 C.3   300  ASP300      0.1424
     68  CG        -5.5370  -11.9950  -21.7890 C.2   300  ASP300      0.3668
     69  OD1       -5.0810  -11.4590  -22.8410 O.co2 300  ASP300     -0.2456
     70  OD2       -5.0640  -11.7770  -20.6510 O.co2 300  ASP300     -0.2456
     71  N         -6.9640  -12.7150  -19.0340 N.am  301  ILE301     -0.1980
     72  CA        -7.3430  -12.4720  -17.6320 C.3   301  ILE301      0.1595
     73  C         -8.8420  -12.4140  -17.3520 C.2   301  ILE301      0.2287
     74  O         -9.2880  -12.4360  -16.2010 O.2   301  ILE301     -0.2864
     75  CB        -6.6730  -11.1770  -17.1340 C.3   301  ILE301      0.0276
     76  CG1       -7.0490   -9.9940  -18.0470 C.3   301  ILE301      0.0022
     77  CG2       -5.1490  -11.3690  -17.1380 C.3   301  ILE301      0.0022
     78  CD1       -6.4870   -8.6140  -17.4810 C.3   301  ILE301      0.0001
     79  N         -3.6450  -17.7540  -18.8380 N.3   339  ILE339     -0.1245
     80  CA        -2.6330  -16.8050  -18.4140 C.3   339  ILE339      0.1561
     81  C         -2.5130  -16.7850  -16.8820 C.2   339  ILE339      0.2260
     82  O         -3.4840  -17.0250  -16.1560 O.2   339  ILE339     -0.2867
     83  CB        -2.9770  -15.3710  -18.9590 C.3   339  ILE339      0.0252
     84  CG1       -1.7440  -14.4100  -18.8990 C.3   339  ILE339      0.0019
     85  CG2       -4.2500  -14.8100  -18.2450 C.3   339  ILE339      0.0019
     86  CD1       -2.0220  -13.0550  -19.5810 C.3   339  ILE339      0.0001
     87  N         -3.4120   -5.7760  -12.4460 N.3   375  TRP375     -0.1241
     88  CA        -4.8260   -5.8380  -12.8440 C.3   375  TRP375      0.1605
     89  C         -5.8520   -5.9650  -11.7190 C.2   375  TRP375      0.2264
     90  O         -6.9170   -5.3460  -11.7990 O.2   375  TRP375     -0.2867
     91  CB        -5.0670   -6.9800  -13.8920 C.3   375  TRP375      0.0550
     92  CG        -4.2060   -6.8680  -15.0990 C.ar  375  TRP375      0.0003
     93  CD1       -3.2890   -7.7840  -15.5270 C.ar  375  TRP375      0.0946
     94  CD2       -4.1790   -5.7880  -16.0710 C.ar  375  TRP375      0.0152
     95  NE1       -2.6920   -7.3450  -16.6800 N.ar  375  TRP375     -0.2442
     96  CE2       -3.2190   -6.1300  -17.0410 C.ar  375  TRP375      0.0810
     97  CE3       -4.8750   -4.5860  -16.2050 C.ar  375  TRP375      0.0012
     98  CZ2       -2.8990   -5.2930  -18.1250 C.ar  375  TRP375      0.0191
     99  CZ3       -4.5660   -3.7490  -17.2900 C.ar  375  TRP375      0.0001
    100  CH2       -3.5930   -4.1180  -18.2340 C.ar  375  TRP375      0.0015
    101  N          0.7020  -19.5100  -19.6960 N.3   410  TRP410     -0.1241
    102  CA         1.2440  -18.3050  -20.2940 C.3   410  TRP410      0.1605
    103  C          1.5630  -17.4010  -19.1060 C.2   410  TRP410      0.2264
    104  O          0.6480  -17.0130  -18.3660 O.2   410  TRP410     -0.2867
    105  CB         0.1270  -17.7120  -21.1360 C.3   410  TRP410      0.0550
    106  CG         0.3850  -16.3420  -21.7170 C.ar  410  TRP410      0.0003
    107  CD1        1.5770  -15.6990  -21.8560 C.ar  410  TRP410      0.0946
    108  CD2       -0.6200  -15.4760  -22.2500 C.ar  410  TRP410      0.0152
    109  NE1        1.3650  -14.4600  -22.4520 N.ar  410  TRP410     -0.2442
    110  CE2        0.0300  -14.3110  -22.7100 C.ar  410  TRP410      0.0810
    111  CE3       -2.0100  -15.5950  -22.4190 C.ar  410  TRP410      0.0012
    112  CZ2       -0.6690  -13.2320  -23.2870 C.ar  410  TRP410      0.0191
    113  CZ3       -2.7110  -14.5290  -22.9910 C.ar  410  TRP410      0.0001
    114  CH2       -2.0360  -13.3600  -23.4100 C.ar  410  TRP410      0.0015
    115  N          2.7620  -13.7340  -17.8750 N.3   412  ASP412     -0.1225
    116  CA         2.8340  -12.3900  -18.4340 C.3   412  ASP412      0.1805
    117  C          3.2130  -11.4170  -17.3250 C.2   412  ASP412      0.2597
    118  O          3.2820  -11.8060  -16.1550 O.2   412  ASP412     -0.2718
    119  CB         1.4060  -12.0600  -18.9690 C.3   412  ASP412      0.1424
    120  CG         1.3550  -10.7650  -19.7600 C.2   412  ASP412      0.3668
    121  OD1        2.3930  -10.4110  -20.3740 O.co2 412  ASP412     -0.2456
    122  OD2        0.2720  -10.0980  -19.7490 O.co2 412  ASP412     -0.2456
    123  N          3.4780  -10.1710  -17.7070 N.am  413  MET413     -0.1979
    124  CA         3.6790   -9.0550  -16.7670 C.3   413  MET413      0.1605
    125  C          4.8200   -9.3100  -15.7810 C.2   413  MET413      0.2287
    126  O          4.8180   -8.7750  -14.6700 O.2   413  MET413     -0.2864
    127  CB         2.3870   -8.7540  -15.9790 C.3   413  MET413      0.0413
    128  CG         1.1370   -8.6940  -16.8110 C.3   413  MET413      0.0598
    129  SD         1.0850   -7.2590  -17.8460 S.3   413  MET413     -0.1393
    130  CE         0.9280   -5.9620  -16.6080 C.3   413  MET413      0.0692
    131  N          1.9850   -0.8460  -12.0560 N.3   419  PHE419     -0.1241
    132  CA         1.3000    0.2980  -12.6390 C.3   419  PHE419      0.1605
    133  C          1.5790    1.6080  -11.9010 C.2   419  PHE419      0.2264
    134  O          1.1770    2.7190  -12.3430 O.2   419  PHE419     -0.2867
    135  CB        -0.2080    0.0530  -12.6350 C.3   419  PHE419      0.0534
    136  CG        -0.6530   -1.0770  -13.5270 C.ar  419  PHE419     -0.0203
    137  CD1        0.2290   -1.7310  -14.3750 C.ar  419  PHE419     -0.0042
    138  CD2       -1.9790   -1.4980  -13.4700 C.ar  419  PHE419     -0.0042
    139  CE1       -0.2090   -2.8000  -15.1840 C.ar  419  PHE419     -0.0003
    140  CE2       -2.4280   -2.5370  -14.2900 C.ar  419  PHE419     -0.0003
    141  CZ        -1.5400   -3.1740  -15.1440 C.ar  419  PHE419     -0.0000
    142  N          6.6400  -13.5960  -21.1370 N.3   495  ARG495     -0.1245
    143  CA         6.9210  -12.2720  -21.6990 C.3   495  ARG495      0.1563
    144  C          8.3460  -11.8220  -21.3790 C.2   495  ARG495      0.2260
    145  O          9.1530  -11.5960  -22.2870 O.2   495  ARG495     -0.2867
    146  CB         5.9400  -11.2050  -21.2080 C.3   495  ARG495      0.0307
    147  CG         6.0090   -9.9940  -22.1830 C.3   495  ARG495      0.0489
    148  CD         4.8160   -9.0630  -21.9840 C.3   495  ARG495      0.2205
    149  NE         4.9720   -8.2960  -20.7350 N.pl3 495  ARG495     -0.0865
    150  CZ         4.1220   -7.3500  -20.3620 C.cat 495  ARG495      0.5346
    151  NH1        3.0750   -7.0860  -21.1390 N.pl3 495  ARG495      0.1354
    152  NH2        4.3340   -6.6440  -19.2340 N.pl3 495  ARG495      0.1354
    153  N          6.9440  -14.5840  -26.9610 N.3   508  TRP508     -0.1241
    154  CA         6.3460  -13.9420  -28.1260 C.3   508  TRP508      0.1605
    155  C          6.7460  -12.4960  -28.0780 C.2   508  TRP508      0.2264
    156  O          7.1740  -12.0290  -27.0280 O.2   508  TRP508     -0.2867
    157  CB         4.8160  -14.1510  -28.1350 C.3   508  TRP508      0.0550
    158  CG         3.9810  -13.1370  -27.3920 C.ar  508  TRP508      0.0003
    159  CD1        3.1160  -12.2070  -27.9670 C.ar  508  TRP508      0.0946
    160  CD2        3.8740  -12.9520  -25.9650 C.ar  508  TRP508      0.0152
    161  NE1        2.5090  -11.4660  -26.9830 N.ar  508  TRP508     -0.2442
    162  CE2        2.9610  -11.8730  -25.7560 C.ar  508  TRP508      0.0810
    163  CE3        4.4750  -13.5610  -24.8530 C.ar  508  TRP508      0.0012
    164  CZ2        2.6140  -11.4270  -24.4880 C.ar  508  TRP508      0.0191
    165  CZ3        4.1330  -13.1040  -23.5630 C.ar  508  TRP508      0.0001
    166  CH2        3.1980  -12.0440  -23.4020 C.ar  508  TRP508      0.0015
    167  N          3.4310   -6.7570  -26.8810 N.3   511  ASP511     -0.1239
    168  CA         2.3510   -5.9010  -27.3660 C.3   511  ASP511      0.1674
    169  C          2.7920   -5.2080  -28.6100 C.2   511  ASP511      0.2266
    170  O          3.2480   -4.0350  -28.5640 O.2   511  ASP511     -0.2867
    171  CB         1.9600   -4.8740  -26.2650 C.3   511  ASP511      0.1410
    172  CG         1.3860   -5.5540  -25.0450 C.2   511  ASP511      0.3668
    173  OD1        1.3870   -4.9840  -23.9420 O.co2 511  ASP511     -0.2456
    174  OD2        0.9230   -6.6970  -25.1620 O.co2 511  ASP511     -0.2456
    175  N         -1.5160   -7.0200  -31.9310 N.3   544  PHE544     -0.1227
    176  CA        -2.1790   -6.9750  -30.6200 C.3   544  PHE544      0.1736
    177  C         -2.9570   -5.6810  -30.4700 C.2   544  PHE544      0.2595
    178  O         -4.2050   -5.6860  -30.3450 O.2   544  PHE544     -0.2718
    179  CB        -1.1490   -7.1500  -29.4900 C.3   544  PHE544      0.0547
    180  CG        -1.7350   -6.9220  -28.1050 C.ar  544  PHE544     -0.0202
    181  CD1       -2.5390   -7.8970  -27.5210 C.ar  544  PHE544     -0.0042
    182  CD2       -1.4960   -5.7210  -27.4260 C.ar  544  PHE544     -0.0042
    183  CE1       -3.1100   -7.7050  -26.2610 C.ar  544  PHE544     -0.0003
    184  CE2       -2.0560   -5.5100  -26.1410 C.ar  544  PHE544     -0.0003
    185  CZ        -2.8660   -6.5130  -25.5600 C.ar  544  PHE544     -0.0000
    186  N         -2.2480   -4.5520  -30.4940 N.am  545  ALA545     -0.1980
    187  CA        -2.9050   -3.2590  -30.2600 C.3   545  ALA545      0.1597
    188  C         -3.4300   -2.6930  -31.5740 C.2   545  ALA545      0.2287
    189  O         -2.8560   -2.9720  -32.6460 O.2   545  ALA545     -0.2864
    190  CB        -1.9150   -2.2940  -29.6120 C.3   545  ALA545      0.0319
    191  N         -3.6320  -13.2390  -31.4830 N.3   569  HIS569     -0.1241
    192  CA        -4.0670  -12.6460  -30.2090 C.3   569  HIS569      0.1621
    193  C         -4.3150  -11.1620  -30.4120 C.2   569  HIS569      0.2264
    194  O         -3.7510  -10.5410  -31.3320 O.2   569  HIS569     -0.2867
    195  CB        -2.9600  -12.9110  -29.1930 C.3   569  HIS569      0.0745
    196  CG        -3.1960  -12.2490  -27.8620 C.ar  569  HIS569      0.0817
    197  ND1       -4.4030  -12.2860  -27.2140 N.ar  569  HIS569     -0.2268
    198  CD2       -2.3480  -11.5270  -27.0810 C.ar  569  HIS569      0.1154
    199  CE1       -4.2990  -11.6230  -26.0650 C.ar  569  HIS569      0.1986
    200  NE2       -3.0730  -11.1500  -25.9670 N.ar  569  HIS569     -0.2212
    201  N         -5.8470   -7.2040  -28.4650 N.3   571  ALA571     -0.1245
    202  CA        -6.2480   -6.4230  -27.2880 C.3   571  ALA571      0.1562
    203  C         -7.7710   -6.2870  -27.2100 C.2   571  ALA571      0.2260
    204  O         -8.4620   -6.4570  -28.1990 O.2   571  ALA571     -0.2867
    205  CB        -5.5850   -5.0320  -27.3190 C.3   571  ALA571      0.0290
@<TRIPOS>BOND
     1   189   188    2
     2    25    24    2
     3   175   176    1
     4   188   187    1
     5   191   192    1
     6    26    23    1
     7    26    27    1
     8   194   193    2
     9    24    23    1
    10    24    33   am
    11    23    22    1
    12   176   177    1
    13   176   179    1
    14   186   177   am
    15   186   187    1
    16    35    34    1
    17    35    36    2
    18   177   178    2
    19   193   192    1
    20    27    29   ar
    21    27    28   ar
    22   187   190    1
    23   192   195    1
    24    33    34    1
    25    34    37    1
    26    29    31   ar
    27    28    30   ar
    28   179   180    1
    29   195   196    1
    30    31    32   ar
    31   169   170    2
    32   169   168    1
    33    30    32   ar
    34    37    38    1
    35   201   202    1
    36    39    38    2
    37   204   203    2
    38   157   154    1
    39   157   158    1
    40   154   155    1
    41   154   153    1
    42   180   181   ar
    43   180   182   ar
    44    41    42    1
    45   155   156    2
    46   159   158   ar
    47   159   161   ar
    48    38    40   am
    49   196   197   ar
    50   196   198   ar
    51   181   183   ar
    52   182   184   ar
    53   158   160   ar
    54    20    19    2
    55   168   167    1
    56   168   171    1
    57   205   202    1
    58   202   203    1
    59   197   199   ar
    60   198   200   ar
    61    19    18    1
    62   161   162   ar
    63    48    46    1
    64    46    45    1
    65    46    47    1
    66    42    45    1
    67    42    43    1
    68    44    43    2
    69    21    18    1
    70   171   172    1
    71   183   185   ar
    72   184   185   ar
    73   199   200   ar
    74   160   162   ar
    75   160   163   ar
    76    18    17    1
    77   162   164   ar
    78    49    50    1
    79    52    51    2
    80   174   172   ar
    81   172   173   ar
    82   163   165   ar
    83    17    11   am
    84    51    50    1
    85   164   166   ar
    86    12    11    2
    87    15    13    1
    88    50    53    1
    89    11    10    1
    90    53    54    1
    91   165   166   ar
    92   114   112   ar
    93   114   113   ar
    94   112   110   ar
    95    59    61   ar
    96    59    56   ar
    97    13    10    1
    98    13    14    1
    99   113   111   ar
   100    69    68   ar
   101    10     9    1
   102    54    56   ar
   103    54    55   ar
   104   110   109   ar
   105   110   108   ar
   106    61    62   ar
   107    56    58   ar
   108   109   107   ar
   109   111   108   ar
   110   145   144    2
   111   108   106   ar
   112   147   148    1
   113   147   146    1
   114   148   149    1
   115    67    68    1
   116    67    64    1
   117    16    14    1
   118   107   106   ar
   119    68    70   ar
   120     9     3   am
   121    55    57   ar
   122   106   105    1
   123   143   144    1
   124   143   146    1
   125   143   142    1
   126    63    64    1
   127    62    60   ar
   128    58    57   ar
   129    58    60   ar
   130   151   150    1
   131   105   102    1
   132    64    65    1
   133   149   150    2
   134     3     4    2
   135     3     2    1
   136   121   120   ar
   137     7     6   ar
   138   150   152    1
   139   102   101    1
   140   102   103    1
   141   120   122   ar
   142   120   119    1
   143     2     1    1
   144     2     5    1
   145    65    66    2
   146    65    71   am
   147    86    84    1
   148     6     5    1
   149     6     8   ar
   150   103   104    2
   151    71    72    1
   152   119   116    1
   153    83    84    1
   154    83    80    1
   155    83    85    1
   156    79    80    1
   157   116   115    1
   158   116   117    1
   159    80    81    1
   160   100    98   ar
   161   100    99   ar
   162    98    96   ar
   163    76    78    1
   164    76    75    1
   165   129   128    1
   166   129   130    1
   167   123   117   am
   168   123   124    1
   169    72    73    1
   170    72    75    1
   171    73    74    2
   172   117   118    2
   173    99    97   ar
   174    77    75    1
   175    96    95   ar
   176    96    94   ar
   177    81    82    2
   178   128   127    1
   179   124   127    1
   180   124   125    1
   181    95    93   ar
   182    97    94   ar
   183    94    92   ar
   184   125   126    2
   185    93    92   ar
   186   139   141   ar
   187   139   137   ar
   188   141   140   ar
   189    92    91    1
   190   137   136   ar
   191   140   138   ar
   192    91    88    1
   193   136   138   ar
   194   136   135    1
   195    88    87    1
   196    88    89    1
   197   132   135    1
   198   132   131    1
   199   132   133    1
   200   134   133    2
   201    90    89    2
