@<TRIPOS>MOLECULE
tmp/3w3gB00.pdb
 149 144 0 0 0
SMALL
GASTEIGER

@<TRIPOS>ATOM
      1  N          1.7700   46.4470   30.1600 N.3   166  PHE166     -0.1241
      2  CA         2.7620   46.1530   31.1900 C.3   166  PHE166      0.1605
      3  C          3.5230   47.4260   31.6270 C.2   166  PHE166      0.2264
      4  O          4.7540   47.4890   31.6080 O.2   166  PHE166     -0.2867
      5  CB         3.6970   45.0130   30.7340 C.3   166  PHE166      0.0534
      6  CG         2.9850   43.7350   30.4210 C.ar  166  PHE166     -0.0203
      7  CD1        2.6470   43.4080   29.1070 C.ar  166  PHE166     -0.0042
      8  CD2        2.6380   42.8250   31.4500 C.ar  166  PHE166     -0.0042
      9  CE1        1.9830   42.2000   28.8130 C.ar  166  PHE166     -0.0003
     10  CE2        1.9730   41.6290   31.1660 C.ar  166  PHE166     -0.0003
     11  CZ         1.6380   41.3160   29.8440 C.ar  166  PHE166     -0.0000
     12  N         -4.5110   49.4100   16.0560 N.3   182  LYS182     -0.1245
     13  CA        -4.2880   48.4460   17.1290 C.3   182  LYS182      0.1561
     14  C         -3.8290   49.1580   18.3800 C.2   182  LYS182      0.2260
     15  O         -2.8340   49.8690   18.3470 O.2   182  LYS182     -0.2867
     16  CB        -3.2500   47.4040   16.6990 C.3   182  LYS182      0.0271
     17  CG        -3.6170   46.7010   15.4020 C.3   182  LYS182      0.0035
     18  CD        -2.6260   45.6130   15.0360 C.3   182  LYS182      0.0206
     19  CE        -3.2850   44.6030   14.1050 C.3   182  LYS182      0.1093
     20  NZ        -2.2840   43.5750   13.7280 N.3   182  LYS182     -0.1314
     21  N         -2.8800   48.3510   22.3320 N.3   184  PHE184     -0.1241
     22  CA        -2.5510   47.3720   23.3800 C.3   184  PHE184      0.1605
     23  C         -2.4270   47.9900   24.7750 C.2   184  PHE184      0.2264
     24  O         -1.4990   48.7660   25.0530 O.2   184  PHE184     -0.2867
     25  CB        -1.2670   46.5830   23.0270 C.3   184  PHE184      0.0534
     26  CG        -1.3830   45.7380   21.7880 C.ar  184  PHE184     -0.0203
     27  CD1       -1.8060   44.4030   21.8670 C.ar  184  PHE184     -0.0042
     28  CD2       -1.0580   46.2640   20.5240 C.ar  184  PHE184     -0.0042
     29  CE1       -1.9040   43.6130   20.7130 C.ar  184  PHE184     -0.0003
     30  CE2       -1.1600   45.4840   19.3700 C.ar  184  PHE184     -0.0003
     31  CZ        -1.5730   44.1490   19.4680 C.ar  184  PHE184     -0.0000
     32  N         -2.8390   45.8740   27.8120 N.3   186  SER186     -0.1217
     33  CA        -2.8330   44.7690   28.7590 C.3   186  SER186      0.1889
     34  C         -2.0040   45.1400   29.9950 C.2   186  SER186      0.2288
     35  O         -0.9170   45.7210   29.8710 O.2   186  SER186     -0.2866
     36  CB        -2.2500   43.5030   28.1190 C.3   186  SER186      0.2089
     37  OG        -2.4610   42.3670   28.9540 O.3   186  SER186     -0.2183
     38  N         -8.2890   46.6100   16.6070 N.3   206  LEU206     -0.1245
     39  CA        -7.8550   45.8390   17.7790 C.3   206  LEU206      0.1561
     40  C         -7.6790   46.6620   19.0420 C.2   206  LEU206      0.2260
     41  O         -6.8980   47.6310   19.0870 O.2   206  LEU206     -0.2867
     42  CB        -6.5490   45.0750   17.5030 C.3   206  LEU206      0.0270
     43  CG        -6.0570   44.1650   18.6750 C.3   206  LEU206      0.0019
     44  CD1       -5.2310   43.0250   18.1590 C.3   206  LEU206      0.0001
     45  CD2       -5.2510   44.8740   19.7440 C.3   206  LEU206      0.0001
     46  N         -6.8330   45.8340   23.2450 N.3   208  ASP208     -0.1239
     47  CA        -6.4600   44.8390   24.2530 C.3   208  ASP208      0.1674
     48  C         -6.4810   45.4440   25.6560 C.2   208  ASP208      0.2266
     49  O         -5.6270   46.2560   26.0000 O.2   208  ASP208     -0.2867
     50  CB        -5.0670   44.2630   23.9310 C.3   208  ASP208      0.1410
     51  CG        -4.5380   43.2630   24.9910 C.2   208  ASP208      0.3668
     52  OD1       -5.3070   42.8060   25.8800 O.co2 208  ASP208     -0.2456
     53  OD2       -3.3230   42.9170   24.9060 O.co2 208  ASP208     -0.2456
     54  N         -6.8020   43.3310   28.4760 N.3   210  SER210     -0.1217
     55  CA        -6.6400   42.1430   29.3230 C.3   210  SER210      0.1889
     56  C         -5.8090   42.4450   30.5330 C.2   210  SER210      0.2288
     57  O         -4.9880   43.3610   30.5110 O.2   210  SER210     -0.2866
     58  CB        -5.9610   41.0280   28.5260 C.3   210  SER210      0.2089
     59  OG        -4.6750   41.4390   28.0540 O.3   210  SER210     -0.2183
     60  N        -10.9330   42.7300   16.8740 N.3   247  TYR247     -0.1227
     61  CA       -10.2620   41.9570   17.9390 C.3   247  TYR247      0.1736
     62  C        -10.4690   42.6750   19.2520 C.2   247  TYR247      0.2595
     63  O        -10.1330   43.8760   19.3820 O.2   247  TYR247     -0.2718
     64  CB        -8.7540   41.8270   17.6700 C.3   247  TYR247      0.0548
     65  CG        -8.3990   41.0580   16.4100 C.ar  247  TYR247     -0.0200
     66  CD1       -8.2610   41.7180   15.1830 C.ar  247  TYR247     -0.0009
     67  CD2       -8.1850   39.6790   16.4400 C.ar  247  TYR247     -0.0009
     68  CE1       -7.9430   41.0370   14.0270 C.ar  247  TYR247      0.0417
     69  CE2       -7.8630   38.9850   15.2750 C.ar  247  TYR247      0.0417
     70  CZ        -7.7440   39.6730   14.0770 C.ar  247  TYR247      0.1957
     71  OH        -7.4240   39.0070   12.9110 O.3   247  TYR247     -0.2866
     72  N        -11.0650   41.9670   20.2150 N.am  248  LEU248     -0.1966
     73  CA       -11.2340   42.5280   21.5370 C.3   248  LEU248      0.1728
     74  C        -10.7210   41.5560   22.5920 C.2   248  LEU248      0.2616
     75  O        -11.1860   40.4330   22.6690 O.2   248  LEU248     -0.2715
     76  CB       -12.6960   42.9590   21.8020 C.3   248  LEU248      0.0311
     77  CG       -13.0150   43.5380   23.1860 C.3   248  LEU248      0.0022
     78  CD1      -12.3550   44.8970   23.4520 C.3   248  LEU248      0.0001
     79  CD2      -14.5130   43.6370   23.4450 C.3   248  LEU248      0.0001
     80  N         -9.7520   42.0020   23.3890 N.am  249  ASN249     -0.1972
     81  CA        -9.1850   41.1740   24.4110 C.3   249  ASN249      0.1688
     82  C         -9.5480   41.6630   25.7870 C.2   249  ASN249      0.2292
     83  O         -9.0230   42.6670   26.2450 O.2   249  ASN249     -0.2864
     84  CB        -7.6760   41.0670   24.2860 C.3   249  ASN249      0.1181
     85  CG        -7.1090   39.8530   25.0530 C.2   249  ASN249      0.2629
     86  OD1       -7.7370   39.3560   25.9900 O.2   249  ASN249     -0.2716
     87  ND2       -5.9140   39.3940   24.6730 N.am  249  ASN249     -0.0877
     88  N        -12.9740   38.3260   16.8300 N.3   271  VAL271     -0.1245
     89  CA       -12.2750   37.5620   17.8370 C.3   271  VAL271      0.1561
     90  C        -12.5090   38.2360   19.1910 C.2   271  VAL271      0.2260
     91  O        -12.1420   39.4010   19.3690 O.2   271  VAL271     -0.2867
     92  CB       -10.7740   37.4390   17.5190 C.3   271  VAL271      0.0252
     93  CG1      -10.0660   36.5920   18.5830 C.3   271  VAL271      0.0019
     94  CG2      -10.5450   36.8540   16.1150 C.3   271  VAL271      0.0019
     95  N        -11.9190   37.5540   23.2750 N.3   273  ASP273     -0.1239
     96  CA       -11.2420   36.8220   24.3480 C.3   273  ASP273      0.1674
     97  C        -11.8770   37.1620   25.6840 C.2   273  ASP273      0.2266
     98  O        -11.8370   38.3140   26.1070 O.2   273  ASP273     -0.2867
     99  CB        -9.7430   37.1180   24.3790 C.3   273  ASP273      0.1410
    100  CG        -8.9530   36.2230   23.4190 C.2   273  ASP273      0.3668
    101  OD1       -8.2760   35.2660   23.8800 O.co2 273  ASP273     -0.2456
    102  OD2       -9.0130   36.4650   22.1820 O.co2 273  ASP273     -0.2456
    103  N          6.4550   39.4520   24.1210 N.3   395  HIS395     -0.1226
    104  CA         5.5360   39.6530   22.9750 C.3   395  HIS395      0.1752
    105  C          4.4310   38.6310   22.8660 C.2   395  HIS395      0.2597
    106  O          3.6460   38.6840   21.9250 O.2   395  HIS395     -0.2718
    107  CB         6.3040   39.6810   21.6460 C.3   395  HIS395      0.0759
    108  CG         7.2010   40.8800   21.5000 C.ar  395  HIS395      0.0818
    109  ND1        6.7300   42.1040   21.1640 N.ar  395  HIS395     -0.2268
    110  CD2        8.5790   41.0220   21.6900 C.ar  395  HIS395      0.1154
    111  CE1        7.7550   42.9770   21.1380 C.ar  395  HIS395      0.1986
    112  NE2        8.8840   42.3100   21.4640 N.ar  395  HIS395     -0.2212
    113  N          4.3680   37.6980   23.8210 N.am  396  SER396     -0.1938
    114  CA         3.4220   36.5720   23.8070 C.3   396  SER396      0.2055
    115  C          1.9720   36.9850   23.8500 C.2   396  SER396      0.2643
    116  O          1.6070   38.0080   24.4600 O.2   396  SER396     -0.2714
    117  CB         3.6660   35.6400   25.0140 C.3   396  SER396      0.2130
    118  OG         4.8900   34.9320   24.8910 O.3   396  SER396     -0.2179
    119  N          1.1460   36.1660   23.2070 N.am  397  ASN397     -0.1957
    120  CA        -0.2680   36.0920   23.5670 C.3   397  ASN397      0.1819
    121  C         -0.3330   35.2120   24.8210 C.2   397  ASN397      0.2621
    122  O         -0.1820   34.0160   24.7240 O.2   397  ASN397     -0.2715
    123  CB        -1.1080   35.5180   22.4190 C.3   397  ASN397      0.1195
    124  CG        -2.5970   35.5470   22.7110 C.2   397  ASN397      0.2630
    125  OD1       -3.0230   35.4310   23.8710 O.2   397  ASN397     -0.2716
    126  ND2       -3.4030   35.6910   21.6580 N.am  397  ASN397     -0.0877
    127  N         -0.5040   35.8410   25.9890 N.am  398  PHE398     -0.1960
    128  CA        -0.3840   35.2070   27.3060 C.3   398  PHE398      0.1771
    129  C         -1.6380   34.4680   27.7470 C.2   398  PHE398      0.2619
    130  O         -1.5440   33.5500   28.5430 O.2   398  PHE398     -0.2715
    131  CB        -0.0880   36.2540   28.4000 C.3   398  PHE398      0.0574
    132  CG         1.3240   36.7570   28.4100 C.ar  398  PHE398     -0.0200
    133  CD1        1.6250   38.0300   27.9120 C.ar  398  PHE398     -0.0042
    134  CD2        2.3580   35.9630   28.9040 C.ar  398  PHE398     -0.0042
    135  CE1        2.9270   38.5120   27.9020 C.ar  398  PHE398     -0.0003
    136  CE2        3.6690   36.4280   28.8940 C.ar  398  PHE398     -0.0003
    137  CZ         3.9570   37.7090   28.4010 C.ar  398  PHE398     -0.0000
    138  N         -2.8120   34.8720   27.2610 N.am  399  TYR399     -0.1974
    139  CA        -4.0470   34.3320   27.8140 C.3   399  TYR399      0.1639
    140  C         -4.6930   33.2640   26.9450 C.2   399  TYR399      0.2290
    141  O         -5.4530   32.4290   27.4320 O.2   399  TYR399     -0.2864
    142  CB        -5.0360   35.4670   28.1560 C.3   399  TYR399      0.0560
    143  CG        -4.5080   36.4440   29.1940 C.ar  399  TYR399     -0.0198
    144  CD1       -4.4750   36.1040   30.5560 C.ar  399  TYR399     -0.0009
    145  CD2       -4.0530   37.7300   28.8180 C.ar  399  TYR399     -0.0009
    146  CE1       -3.9600   36.9690   31.5100 C.ar  399  TYR399      0.0417
    147  CE2       -3.5720   38.6250   29.7750 C.ar  399  TYR399      0.0417
    148  CZ        -3.5260   38.2380   31.1130 C.ar  399  TYR399      0.1957
    149  OH        -3.0530   39.1180   32.0480 O.3   399  TYR399     -0.2866
@<TRIPOS>BOND
     1    71    70    1
     2    20    19    1
     3    68    70   ar
     4    68    66   ar
     5    70    69   ar
     6    19    18    1
     7    18    17    1
     8    66    65   ar
     9    69    67   ar
    10    17    16    1
    11    12    13    1
    12    94    92    1
    13    65    67   ar
    14    65    64    1
    15    38    39    1
    16    16    13    1
    17    88    89    1
    18    60    61    1
    19    13    14    1
    20    42    39    1
    21    42    43    1
    22    92    89    1
    23    92    93    1
    24    64    61    1
    25    39    40    1
    26    89    90    1
    27    61    62    1
    28    44    43    1
    29    15    14    2
    30    43    45    1
    31    40    41    2
    32    90    91    2
    33    62    63    2
    34    62    72   am
    35    30    31   ar
    36    30    28   ar
    37    31    29   ar
    38    72    73    1
    39    28    26   ar
    40    29    27   ar
    41   111   109   ar
    42   111   112   ar
    43   109   108   ar
    44   112   110   ar
    45   108   107    1
    46   108   110   ar
    47    73    76    1
    48    73    74    1
    49   107   104    1
    50   126   124   am
    51    26    27   ar
    52    26    25    1
    53    76    77    1
    54   106   105    2
    55   102   100   ar
    56    21    22    1
    57   123   124    1
    58   123   120    1
    59    74    75    2
    60    74    80   am
    61   124   125    2
    62   105   104    1
    63   105   113   am
    64   104   103    1
    65    25    22    1
    66    77    79    1
    67    77    78    1
    68   119   120    1
    69   119   115   am
    70    46    47    1
    71    95    96    1
    72    22    23    1
    73    80    81    1
    74   100   101   ar
    75   100    99    1
    76   120   121    1
    77   114   113    1
    78   114   115    1
    79   114   117    1
    80   115   116    2
    81    50    47    1
    82    50    51    1
    83    47    48    1
    84    84    81    1
    85    84    85    1
    86    96    99    1
    87    96    97    1
    88    81    82    1
    89    87    85   am
    90   122   121    2
    91    23    24    2
    92   121   127   am
    93   118   117    1
    94    53    51   ar
    95    51    52   ar
    96    85    86    2
    97    48    49    2
    98    97    98    2
    99    82    83    2
   100   127   128    1
   101   140   141    2
   102   140   139    1
   103   138   129   am
   104   138   139    1
   105   128   129    1
   106   128   131    1
   107   129   130    2
   108    32    33    1
   109   139   142    1
   110   135   133   ar
   111   135   137   ar
   112   133   132   ar
   113    59    58    1
   114    36    33    1
   115    36    37    1
   116   142   143    1
   117   131   132    1
   118   137   136   ar
   119   132   134   ar
   120    54    55    1
   121    58    55    1
   122    33    34    1
   123     9     7   ar
   124     9    11   ar
   125   145   143   ar
   126   145   147   ar
   127   136   134   ar
   128     7     6   ar
   129   143   144   ar
   130    55    56    1
   131   147   148   ar
   132    11    10   ar
   133    35    34    2
   134     1     2    1
   135     6     5    1
   136     6     8   ar
   137    57    56    2
   138   144   146   ar
   139     5     2    1
   140   148   146   ar
   141   148   149    1
   142    10     8   ar
   143     2     3    1
   144     4     3    2
