@<TRIPOS>MOLECULE
tmp/3w3jB00.pdb
 101 97 0 0 0
SMALL
GASTEIGER

@<TRIPOS>ATOM
      1  N         31.9170   13.3340   -9.2010 N.3   216  PHE216     -0.1227
      2  CA        30.7690   12.4490   -9.0050 C.3   216  PHE216      0.1736
      3  C         30.6970   11.9120   -7.5860 C.2   216  PHE216      0.2595
      4  O         31.6820   11.4000   -7.0570 O.2   216  PHE216     -0.2718
      5  CB        30.7730   11.2810   -9.9870 C.3   216  PHE216      0.0547
      6  CG        29.6800   10.2910   -9.7290 C.ar  216  PHE216     -0.0202
      7  CD1       28.3650   10.5980  -10.0500 C.ar  216  PHE216     -0.0042
      8  CD2       29.9630    9.0660   -9.1470 C.ar  216  PHE216     -0.0042
      9  CE1       27.3370    9.6910   -9.7940 C.ar  216  PHE216     -0.0003
     10  CE2       28.9500    8.1470   -8.8840 C.ar  216  PHE216     -0.0003
     11  CZ        27.6330    8.4550   -9.2200 C.ar  216  PHE216     -0.0000
     12  N         29.5190   12.0160   -6.9750 N.am  217  ASN217     -0.1974
     13  CA        29.3190   11.5790   -5.5980 C.3   217  ASN217      0.1688
     14  C         30.2150   12.2740   -4.5600 C.2   217  ASN217      0.2292
     15  O         30.4640   11.7370   -3.4710 O.2   217  ASN217     -0.2864
     16  CB        29.4680   10.0640   -5.4760 C.3   217  ASN217      0.1181
     17  CG        28.7920    9.5280   -4.2460 C.2   217  ASN217      0.2629
     18  OD1       27.6660    9.9390   -3.9220 O.2   217  ASN217     -0.2716
     19  ND2       29.4720    8.6340   -3.5290 N.am  217  ASN217     -0.0877
     20  N         39.2200    4.3690   -5.0910 N.3   301  PHE301     -0.1241
     21  CA        38.1300    5.1550   -5.6450 C.3   301  PHE301      0.1605
     22  C         38.3680    5.6090   -7.0750 C.2   301  PHE301      0.2264
     23  O         38.1530    6.7700   -7.4200 O.2   301  PHE301     -0.2867
     24  CB        37.7670    6.3000   -4.7010 C.3   301  PHE301      0.0534
     25  CG        37.1440    5.8210   -3.4240 C.ar  301  PHE301     -0.0203
     26  CD1       35.8180    5.4140   -3.4000 C.ar  301  PHE301     -0.0042
     27  CD2       37.8950    5.7230   -2.2610 C.ar  301  PHE301     -0.0042
     28  CE1       35.2350    4.9480   -2.2360 C.ar  301  PHE301     -0.0003
     29  CE2       37.3290    5.2570   -1.0870 C.ar  301  PHE301     -0.0003
     30  CZ        35.9940    4.8670   -1.0700 C.ar  301  PHE301     -0.0000
     31  N         36.8250    3.6760   -9.3760 N.3   303  TYR303     -0.1241
     32  CA        35.7340    2.9120   -9.9710 C.3   303  TYR303      0.1605
     33  C         35.1130    3.6050  -11.1620 C.2   303  TYR303      0.2264
     34  O         35.0270    4.8340  -11.2140 O.2   303  TYR303     -0.2867
     35  CB        34.6370    2.6040   -8.9430 C.3   303  TYR303      0.0534
     36  CG        33.8420    3.8020   -8.4640 C.ar  303  TYR303     -0.0201
     37  CD1       34.2430    4.5190   -7.3440 C.ar  303  TYR303     -0.0009
     38  CD2       32.6750    4.1910   -9.1060 C.ar  303  TYR303     -0.0009
     39  CE1       33.5240    5.5970   -6.8920 C.ar  303  TYR303      0.0417
     40  CE2       31.9390    5.2760   -8.6540 C.ar  303  TYR303      0.0417
     41  CZ        32.3730    5.9680   -7.5420 C.ar  303  TYR303      0.1957
     42  OH        31.6640    7.0500   -7.0770 O.3   303  TYR303     -0.2866
     43  N         29.5030    0.7890  -13.0580 N.3   307  SER307     -0.1202
     44  CA        30.1190   -0.4970  -13.3780 C.3   307  SER307      0.2020
     45  C         30.1530   -1.4520  -12.1710 C.2   307  SER307      0.2618
     46  O         30.1450   -1.0100  -11.0280 O.2   307  SER307     -0.2717
     47  CB        31.5320   -0.2750  -13.9190 C.3   307  SER307      0.2103
     48  OG        32.0720   -1.4750  -14.4220 O.3   307  SER307     -0.2182
     49  N         30.1670   -2.7570  -12.4420 N.am  308  TYR308     -0.1975
     50  CA        30.3280   -3.7970  -11.4230 C.3   308  TYR308      0.1639
     51  C         31.0370   -4.9780  -12.0750 C.2   308  TYR308      0.2290
     52  O         30.4480   -6.0570  -12.2090 O.2   308  TYR308     -0.2864
     53  CB        28.9650   -4.2680  -10.9150 C.3   308  TYR308      0.0560
     54  CG        28.9760   -4.9820   -9.5700 C.ar  308  TYR308     -0.0198
     55  CD1       30.1170   -5.0400   -8.7840 C.ar  308  TYR308     -0.0009
     56  CD2       27.8210   -5.5930   -9.0900 C.ar  308  TYR308     -0.0009
     57  CE1       30.1070   -5.6940   -7.5450 C.ar  308  TYR308      0.0417
     58  CE2       27.7940   -6.2430   -7.8710 C.ar  308  TYR308      0.0417
     59  CZ        28.9300   -6.2950   -7.0980 C.ar  308  TYR308      0.1957
     60  OH        28.8710   -6.9530   -5.8780 O.3   308  TYR308     -0.2866
     61  N         37.2920    0.9500   -3.3440 N.3   331  GLY331     -0.1225
     62  CA        36.4350    1.5940   -4.3160 C.3   331  GLY331      0.1811
     63  C         36.8330    1.4230   -5.7710 C.2   331  GLY331      0.2280
     64  O         36.6370    2.3390   -6.5690 O.2   331  GLY331     -0.2866
     65  N         35.6200   -1.4640   -7.0240 N.3   333  VAL333     -0.1245
     66  CA        34.3400   -2.1580   -7.2370 C.3   333  VAL333      0.1561
     67  C         34.4180   -3.3270   -8.2190 C.2   333  VAL333      0.2260
     68  O         34.4630   -3.1350   -9.4390 O.2   333  VAL333     -0.2867
     69  CB        33.1800   -1.2260   -7.6680 C.3   333  VAL333      0.0252
     70  CG1       31.8710   -1.9710   -7.5140 C.3   333  VAL333      0.0019
     71  CG2       33.1380    0.0360   -6.8210 C.3   333  VAL333      0.0019
     72  N         35.5800   -1.6120    0.8110 N.3   358  ILE358     -0.1245
     73  CA        34.5880   -0.9290    0.0000 C.3   358  ILE358      0.1561
     74  C         34.6920   -1.2620   -1.4920 C.2   358  ILE358      0.2260
     75  O         34.7900   -0.3700   -2.3320 O.2   358  ILE358     -0.2867
     76  CB        34.6490    0.6030    0.2070 C.3   358  ILE358      0.0252
     77  CG1       34.8980    0.9420    1.6770 C.3   358  ILE358      0.0019
     78  CG2       33.3510    1.2550   -0.2400 C.3   358  ILE358      0.0019
     79  CD1       35.0690    2.4380    1.9590 C.3   358  ILE358      0.0001
     80  N         32.5710   -3.9860   -2.6570 N.3   360  PHE360     -0.1241
     81  CA        31.3680   -4.7700   -2.9080 C.3   360  PHE360      0.1605
     82  C         31.7270   -6.1450   -3.4380 C.2   360  PHE360      0.2264
     83  O         31.0560   -6.6620   -4.3280 O.2   360  PHE360     -0.2867
     84  CB        30.4710   -4.0200   -3.8930 C.3   360  PHE360      0.0534
     85  CG        29.8390   -2.7970   -3.2950 C.ar  360  PHE360     -0.0203
     86  CD1       28.6700   -2.9110   -2.5550 C.ar  360  PHE360     -0.0042
     87  CD2       30.4300   -1.5430   -3.4300 C.ar  360  PHE360     -0.0042
     88  CE1       28.0800   -1.7860   -1.9780 C.ar  360  PHE360     -0.0003
     89  CE2       29.8440   -0.4110   -2.8640 C.ar  360  PHE360     -0.0003
     90  CZ        28.6580   -0.5360   -2.1370 C.ar  360  PHE360     -0.0000
     91  N         31.0150   -7.5870    0.3930 N.3   384  ARG384     -0.1245
     92  CA        29.8130   -8.4130    0.4080 C.3   384  ARG384      0.1563
     93  C         30.1780   -9.8610    0.6230 C.2   384  ARG384      0.2260
     94  O         29.4500  -10.7480    0.1820 O.2   384  ARG384     -0.2867
     95  CB        29.0770   -8.3140   -0.9360 C.3   384  ARG384      0.0307
     96  CG        28.3230   -7.0180   -1.1750 C.3   384  ARG384      0.0489
     97  CD        27.6850   -7.0210   -2.5620 C.3   384  ARG384      0.2205
     98  NE        26.4580   -6.2270   -2.6130 N.pl3 384  ARG384     -0.0865
     99  CZ        25.7130   -6.0660   -3.6990 C.cat 384  ARG384      0.5346
    100  NH1       24.6070   -5.3300   -3.6390 N.pl3 384  ARG384      0.1354
    101  NH2       26.0750   -6.6420   -4.8390 N.pl3 384  ARG384      0.1354
@<TRIPOS>BOND
     1    48    47    1
     2    47    44    1
     3    44    43    1
     4    44    45    1
     5    49    45   am
     6    49    50    1
     7    52    51    2
     8    45    46    2
     9    51    50    1
    10    50    53    1
    11    34    33    2
    12    33    32    1
    13    53    54    1
    14     7     9   ar
    15     7     6   ar
    16     5     6    1
    17     5     2    1
    18    32    31    1
    19    32    35    1
    20     9    11   ar
    21     6     8   ar
    22    54    56   ar
    23    54    55   ar
    24    68    67    2
    25    11    10   ar
    26     1     2    1
    27     8    10   ar
    28    38    40   ar
    29    38    36   ar
    30    56    58   ar
    31     2     3    1
    32    35    36    1
    33    55    57   ar
    34    40    41   ar
    35    36    37   ar
    36    67    66    1
    37    58    59   ar
    38    69    70    1
    39    69    66    1
    40    69    71    1
    41     3     4    2
    42     3    12   am
    43    57    59   ar
    44    41    42    1
    45    41    39   ar
    46    23    22    2
    47    37    39   ar
    48    66    65    1
    49    59    60    1
    50    22    21    1
    51    12    13    1
    52    64    63    2
    53    63    62    1
    54    21    20    1
    55    21    24    1
    56    13    16    1
    57    13    14    1
    58    16    17    1
    59   101    99    1
    60    24    25    1
    61    14    15    2
    62    83    82    2
    63    62    61    1
    64    17    18    2
    65    17    19   am
    66    84    85    1
    67    84    81    1
    68    99   100    1
    69    99    98    2
    70    82    81    1
    71    87    85   ar
    72    87    89   ar
    73    25    26   ar
    74    25    27   ar
    75    26    28   ar
    76    85    86   ar
    77    81    80    1
    78    89    90   ar
    79    98    97    1
    80    97    96    1
    81    86    88   ar
    82    75    74    2
    83    27    29   ar
    84    28    30   ar
    85    90    88   ar
    86    74    73    1
    87    96    95    1
    88    29    30   ar
    89    95    92    1
    90    78    76    1
    91    73    76    1
    92    73    72    1
    93    94    93    2
    94    76    77    1
    95    91    92    1
    96    92    93    1
    97    77    79    1
