@<TRIPOS>MOLECULE
tmp/3w3kB00.pdb
 105 101 0 0 0
SMALL
GASTEIGER

@<TRIPOS>ATOM
      1  N         33.1410   12.4750   -8.1730 N.3   214  PHE214     -0.1227
      2  CA        32.0040   11.5860   -7.9650 C.3   214  PHE214      0.1736
      3  C         31.9650   11.0970   -6.5200 C.2   214  PHE214      0.2595
      4  O         32.9750   10.6230   -5.9920 O.2   214  PHE214     -0.2718
      5  CB        32.0090   10.3920   -8.9180 C.3   214  PHE214      0.0547
      6  CG        30.8980    9.4070   -8.6380 C.ar  214  PHE214     -0.0202
      7  CD1       29.5750    9.7450   -8.8950 C.ar  214  PHE214     -0.0042
      8  CD2       31.1730    8.1660   -8.0870 C.ar  214  PHE214     -0.0042
      9  CE1       28.5450    8.8580   -8.6210 C.ar  214  PHE214     -0.0003
     10  CE2       30.1500    7.2690   -7.8100 C.ar  214  PHE214     -0.0003
     11  CZ        28.8300    7.6140   -8.0810 C.ar  214  PHE214     -0.0000
     12  N         30.8040   11.2560   -5.8850 N.am  215  ASN215     -0.1974
     13  CA        30.5890   10.8710   -4.4850 C.3   215  ASN215      0.1688
     14  C         31.5250   11.5610   -3.4880 C.2   215  ASN215      0.2292
     15  O         31.9710   10.9480   -2.5240 O.2   215  ASN215     -0.2864
     16  CB        30.6760    9.3470   -4.3100 C.3   215  ASN215      0.1181
     17  CG        29.9530    8.8580   -3.0640 C.2   215  ASN215      0.2629
     18  OD1       28.8340    9.2850   -2.7740 O.2   215  ASN215     -0.2716
     19  ND2       30.5920    7.9610   -2.3200 N.am  215  ASN215     -0.0877
     20  N         40.6410    3.5240   -3.9780 N.3   299  PHE299     -0.1241
     21  CA        39.5060    4.2200   -4.5860 C.3   299  PHE299      0.1605
     22  C         39.7040    4.6010   -6.0610 C.2   299  PHE299      0.2264
     23  O         39.4100    5.7170   -6.4960 O.2   299  PHE299     -0.2867
     24  CB        39.0450    5.3960   -3.7170 C.3   299  PHE299      0.0534
     25  CG        38.3840    4.9600   -2.4330 C.ar  299  PHE299     -0.0203
     26  CD1       37.0930    4.4680   -2.4420 C.ar  299  PHE299     -0.0042
     27  CD2       39.0610    5.0190   -1.2180 C.ar  299  PHE299     -0.0042
     28  CE1       36.4780    4.0480   -1.2680 C.ar  299  PHE299     -0.0003
     29  CE2       38.4470    4.6000   -0.0370 C.ar  299  PHE299     -0.0003
     30  CZ        37.1540    4.1140   -0.0680 C.ar  299  PHE299     -0.0000
     31  N         38.1700    2.6030   -8.3160 N.3   301  TYR301     -0.1241
     32  CA        37.0480    1.8620   -8.8980 C.3   301  TYR301      0.1605
     33  C         36.4150    2.5830  -10.0700 C.2   301  TYR301      0.2264
     34  O         36.2660    3.8050  -10.0660 O.2   301  TYR301     -0.2867
     35  CB        35.9400    1.6330   -7.8720 C.3   301  TYR301      0.0534
     36  CG        35.2350    2.9140   -7.4530 C.ar  301  TYR301     -0.0201
     37  CD1       35.7970    3.7550   -6.4950 C.ar  301  TYR301     -0.0009
     38  CD2       34.0120    3.2850   -8.0170 C.ar  301  TYR301     -0.0009
     39  CE1       35.1730    4.9310   -6.1110 C.ar  301  TYR301      0.0417
     40  CE2       33.3750    4.4560   -7.6340 C.ar  301  TYR301      0.0417
     41  CZ        33.9640    5.2740   -6.6800 C.ar  301  TYR301      0.1957
     42  OH        33.3460    6.4390   -6.2880 O.3   301  TYR301     -0.2866
     43  N         30.1130    2.3550  -10.9300 N.3   304  GLY304     -0.1210
     44  CA        29.1110    1.3720  -11.2950 C.3   304  GLY304      0.1956
     45  C         29.6490    0.0570  -11.8320 C.2   304  GLY304      0.2613
     46  O         28.8980   -0.7440  -12.3880 O.2   304  GLY304     -0.2717
     47  N         30.9460   -0.1780  -11.6750 N.am  305  SER305     -0.1938
     48  CA        31.5250   -1.4320  -12.1300 C.3   305  SER305      0.2055
     49  C         31.8280   -2.3790  -10.9560 C.2   305  SER305      0.2643
     50  O         32.2690   -1.9440   -9.8860 O.2   305  SER305     -0.2714
     51  CB        32.7800   -1.1630  -12.9550 C.3   305  SER305      0.2130
     52  OG        33.3320   -2.3660  -13.4460 O.3   305  SER305     -0.2179
     53  N         31.5840   -3.6700  -11.1780 N.am  306  TYR306     -0.1973
     54  CA        31.7610   -4.7070  -10.1710 C.3   306  TYR306      0.1639
     55  C         32.3500   -5.9610  -10.7990 C.2   306  TYR306      0.2290
     56  O         31.6730   -6.9880  -10.8620 O.2   306  TYR306     -0.2864
     57  CB        30.4040   -5.0610   -9.5760 C.3   306  TYR306      0.0560
     58  CG        30.4260   -5.7890   -8.2450 C.ar  306  TYR306     -0.0198
     59  CD1       31.5600   -5.7890   -7.4270 C.ar  306  TYR306     -0.0009
     60  CD2       29.2970   -6.4680   -7.8020 C.ar  306  TYR306     -0.0009
     61  CE1       31.5560   -6.4490   -6.1930 C.ar  306  TYR306      0.0417
     62  CE2       29.2820   -7.1270   -6.5950 C.ar  306  TYR306      0.0417
     63  CZ        30.4080   -7.1210   -5.7940 C.ar  306  TYR306      0.1957
     64  OH        30.3530   -7.7850   -4.5970 O.3   306  TYR306     -0.2866
     65  N         38.5900    0.2150   -2.1820 N.3   329  GLY329     -0.1225
     66  CA        37.6230    0.7290   -3.1300 C.3   329  GLY329      0.1811
     67  C         38.0460    0.4770   -4.5610 C.2   329  GLY329      0.2280
     68  O         37.9310    1.3630   -5.3920 O.2   329  GLY329     -0.2866
     69  N         36.6850   -2.3230   -5.7390 N.3   331  VAL331     -0.1245
     70  CA        35.3650   -2.9090   -6.0230 C.3   331  VAL331      0.1561
     71  C         35.3430   -4.1080   -6.9720 C.2   331  VAL331      0.2260
     72  O         35.1830   -3.9490   -8.1810 O.2   331  VAL331     -0.2867
     73  CB        34.3400   -1.8520   -6.4680 C.3   331  VAL331      0.0252
     74  CG1       32.9620   -2.4580   -6.5330 C.3   331  VAL331      0.0019
     75  CG2       34.3590   -0.6750   -5.4970 C.3   331  VAL331      0.0019
     76  N         36.8980   -2.3000    2.0400 N.3   356  ILE356     -0.1245
     77  CA        35.8530   -1.6340    1.2540 C.3   356  ILE356      0.1561
     78  C         35.8880   -1.9920   -0.2370 C.2   356  ILE356      0.2260
     79  O         35.9140   -1.1080   -1.0940 O.2   356  ILE356     -0.2867
     80  CB        35.8470   -0.0870    1.4730 C.3   356  ILE356      0.0252
     81  CG1       36.1050    0.2610    2.9460 C.3   356  ILE356      0.0019
     82  CG2       34.5090    0.5060    1.0620 C.3   356  ILE356      0.0019
     83  CD1       36.1760    1.7630    3.2340 C.3   356  ILE356      0.0001
     84  N         33.7140   -4.7650   -1.3610 N.3   358  PHE358     -0.1241
     85  CA        32.5520   -5.6400   -1.5710 C.3   358  PHE358      0.1605
     86  C         32.9320   -7.0290   -2.0750 C.2   358  PHE358      0.2264
     87  O         32.1920   -7.6470   -2.8440 O.2   358  PHE358     -0.2867
     88  CB        31.4980   -5.0010   -2.4910 C.3   358  PHE358      0.0534
     89  CG        30.8710   -3.7750   -1.9090 C.ar  358  PHE358     -0.0203
     90  CD1       31.4340   -2.5340   -2.1170 C.ar  358  PHE358     -0.0042
     91  CD2       29.7350   -3.8680   -1.1200 C.ar  358  PHE358     -0.0042
     92  CE1       30.8680   -1.4010   -1.5670 C.ar  358  PHE358     -0.0003
     93  CE2       29.1670   -2.7430   -0.5730 C.ar  358  PHE358     -0.0003
     94  CZ        29.7350   -1.5030   -0.7960 C.ar  358  PHE358     -0.0000
     95  N         32.1940   -8.1760    1.6800 N.3   382  ARG382     -0.1245
     96  CA        31.0740   -9.1140    1.6190 C.3   382  ARG382      0.1563
     97  C         31.3750  -10.5690    1.9660 C.2   382  ARG382      0.2260
     98  O         30.6030  -11.4410    1.5790 O.2   382  ARG382     -0.2867
     99  CB        30.3100   -9.0210    0.2880 C.3   382  ARG382      0.0307
    100  CG        29.7440   -7.6470   -0.0010 C.3   382  ARG382      0.0489
    101  CD        29.1470   -7.0060    1.2490 C.3   382  ARG382      0.2205
    102  NE        28.2600   -7.9300    1.9480 N.pl3 382  ARG382     -0.0865
    103  CZ        26.9420   -7.9710    1.7980 C.cat 382  ARG382      0.5346
    104  NH1       26.2370   -8.8690    2.4690 N.pl3 382  ARG382      0.1354
    105  NH2       26.3300   -7.1210    0.9800 N.pl3 382  ARG382      0.1354
@<TRIPOS>BOND
     1    52    51    1
     2    51    48    1
     3    46    45    2
     4    48    47    1
     5    48    49    1
     6    45    47   am
     7    45    44    1
     8    44    43    1
     9    53    49   am
    10    53    54    1
    11    49    50    2
    12    56    55    2
    13    55    54    1
    14    54    57    1
    15    33    34    2
    16    33    32    1
    17    57    58    1
    18     5     6    1
    19     5     2    1
    20    32    31    1
    21    32    35    1
    22     7     6   ar
    23     7     9   ar
    24     6     8   ar
    25     9    11   ar
    26    58    60   ar
    27    58    59   ar
    28    72    71    2
    29     1     2    1
    30     8    10   ar
    31    11    10   ar
    32    38    40   ar
    33    38    36   ar
    34     2     3    1
    35    35    36    1
    36    60    62   ar
    37    40    41   ar
    38    36    37   ar
    39    59    61   ar
    40    71    70    1
    41    41    42    1
    42    41    39   ar
    43    62    63   ar
    44    74    73    1
    45     3     4    2
    46     3    12   am
    47    23    22    2
    48    37    39   ar
    49    73    70    1
    50    73    75    1
    51    61    63   ar
    52    22    21    1
    53    70    69    1
    54    12    13    1
    55    63    64    1
    56    68    67    2
    57    21    20    1
    58    21    24    1
    59    67    66    1
    60    13    16    1
    61    13    14    1
    62    16    17    1
    63    24    25    1
    64    14    15    2
    65    66    65    1
    66    17    18    2
    67    17    19   am
    68    87    86    2
    69    88    89    1
    70    88    85    1
    71    26    25   ar
    72    26    28   ar
    73    25    27   ar
    74    90    89   ar
    75    90    92   ar
    76    86    85    1
    77    89    91   ar
    78    85    84    1
    79    92    94   ar
    80    28    30   ar
    81    27    29   ar
    82    91    93   ar
    83    79    78    2
    84    94    93   ar
    85    78    77    1
    86    30    29   ar
    87   100    99    1
    88   100   101    1
    89    99    96    1
    90   105   103    1
    91    82    80    1
    92   101   102    1
    93    77    80    1
    94    77    76    1
    95    80    81    1
    96    98    97    2
    97    96    95    1
    98    96    97    1
    99   103   102    2
   100   103   104    1
   101    81    83    1
