@<TRIPOS>MOLECULE
tmp/3w3kB05.pdb
 133 124 0 0 0
SMALL
GASTEIGER

@<TRIPOS>ATOM
      1  N         44.6210   -2.8100   15.6410 N.3   405  LYS405     -0.1231
      2  CA        44.9670   -2.3600   16.9800 C.3   405  LYS405      0.1678
      3  C         46.3510   -2.8720   17.3600 C.2   405  LYS405      0.2434
      4  O         46.6310   -4.0630   17.2070 O.2   405  LYS405     -0.2733
      5  CB        43.9420   -2.8530   17.9930 C.3   405  LYS405      0.0284
      6  CG        43.0570   -1.7590   18.5340 C.3   405  LYS405      0.0035
      7  CD        43.1630   -1.6850   20.0470 C.3   405  LYS405      0.0206
      8  CE        42.4700   -2.8730   20.7130 C.3   405  LYS405      0.1093
      9  NZ        42.3610   -2.7070   22.2000 N.3   405  LYS405     -0.1314
     10  N         47.2250   -1.9660   17.8290 N.am  406  PRO406     -0.2718
     11  CA        48.6210   -2.3090   18.1460 C.3   406  PRO406      0.1535
     12  C         48.7430   -3.4080   19.1900 C.2   406  PRO406      0.2598
     13  O         49.6470   -4.2340   19.1060 O.2   406  PRO406     -0.2715
     14  CB        49.1920   -0.9940   18.6810 C.3   406  PRO406      0.0310
     15  CG        48.3930    0.0480   18.0030 C.3   406  PRO406      0.0237
     16  CD        46.9910   -0.5130   17.8950 C.3   406  PRO406      0.0939
     17  N         47.8330   -3.4320   20.1530 N.am  407  GLN407     -0.1978
     18  CA        47.8950   -4.4490   21.2020 C.3   407  GLN407      0.1601
     19  C         47.6650   -5.8360   20.6130 C.2   407  GLN407      0.2287
     20  O         48.1940   -6.8290   21.1160 O.2   407  GLN407     -0.2864
     21  CB        46.8800   -4.1590   22.3050 C.3   407  GLN407      0.0394
     22  CG        47.1700   -2.9050   23.1210 C.3   407  GLN407      0.0908
     23  CD        46.5630   -1.6470   22.5130 C.2   407  GLN407      0.2608
     24  OE1       46.2970   -1.5820   21.3120 O.2   407  GLN407     -0.2717
     25  NE2       46.3410   -0.6410   23.3480 N.am  407  GLN407     -0.0878
     26  N         45.1370  -13.2610   20.4450 N.3   463  TYR463     -0.1241
     27  CA        44.2380  -12.1370   20.6770 C.3   463  TYR463      0.1605
     28  C         43.0470  -12.2660   19.7490 C.2   463  TYR463      0.2264
     29  O         43.1790  -12.1690   18.5300 O.2   463  TYR463     -0.2867
     30  CB        44.9820  -10.8320   20.4090 C.3   463  TYR463      0.0534
     31  CG        44.2810   -9.5500   20.8230 C.ar  463  TYR463     -0.0201
     32  CD1       43.0220   -9.2150   20.3170 C.ar  463  TYR463     -0.0009
     33  CD2       44.9060   -8.6380   21.6770 C.ar  463  TYR463     -0.0009
     34  CE1       42.3960   -8.0330   20.6660 C.ar  463  TYR463      0.0417
     35  CE2       44.2780   -7.4440   22.0320 C.ar  463  TYR463      0.0417
     36  CZ        43.0220   -7.1520   21.5190 C.ar  463  TYR463      0.1957
     37  OH        42.3890   -5.9770   21.8640 O.3   463  TYR463     -0.2866
     38  N         33.7790   -9.0660   19.0530 N.3   467  THR467     -0.1203
     39  CA        32.7910   -8.0440   19.3940 C.3   467  THR467      0.1994
     40  C         31.7240   -7.8230   18.3050 C.2   467  THR467      0.2617
     41  O         31.9130   -8.1990   17.1450 O.2   467  THR467     -0.2717
     42  CB        33.4260   -6.6730   19.6440 C.3   467  THR467      0.1784
     43  OG1       33.9600   -6.1690   18.4150 O.3   467  THR467     -0.2211
     44  CG2       34.5260   -6.7490   20.6890 C.3   467  THR467      0.0376
     45  N         30.5920   -7.2550   18.7280 N.am  468  ASN468     -0.1974
     46  CA        29.4860   -6.8560   17.8530 C.3   468  ASN468      0.1688
     47  C         28.9720   -7.9830   16.9800 C.2   468  ASN468      0.2292
     48  O         28.7510   -7.8170   15.7760 O.2   468  ASN468     -0.2864
     49  CB        29.8560   -5.6430   16.9990 C.3   468  ASN468      0.1181
     50  CG        30.2130   -4.4350   17.8410 C.2   468  ASN468      0.2629
     51  OD1       31.3800   -4.2040   18.1530 O.2   468  ASN468     -0.2716
     52  ND2       29.2070   -3.6670   18.2250 N.am  468  ASN468     -0.0877
     53  N         44.1400  -12.5010   25.1730 N.3   487  VAL487     -0.1245
     54  CA        43.1060  -11.4920   25.1820 C.3   487  VAL487      0.1561
     55  C         41.8630  -11.9590   24.4250 C.2   487  VAL487      0.2260
     56  O         41.9390  -12.3950   23.2690 O.2   487  VAL487     -0.2867
     57  CB        43.6130  -10.2000   24.5200 C.3   487  VAL487      0.0252
     58  CG1       42.5050   -9.1230   24.5040 C.3   487  VAL487      0.0019
     59  CG2       44.8940   -9.7170   25.2140 C.3   487  VAL487      0.0019
     60  N         37.9800  -10.5570   23.4660 N.3   489  ASP489     -0.1239
     61  CA        36.9960   -9.4830   23.5160 C.3   489  ASP489      0.1674
     62  C         35.6320   -9.9810   23.0670 C.2   489  ASP489      0.2266
     63  O         35.4190  -10.2530   21.8870 O.2   489  ASP489     -0.2867
     64  CB        37.4370   -8.3060   22.6500 C.3   489  ASP489      0.1410
     65  CG        36.7440   -7.0110   23.0340 C.2   489  ASP489      0.3668
     66  OD1       35.7030   -7.0770   23.7250 O.co2 489  ASP489     -0.2456
     67  OD2       37.2330   -5.9290   22.6350 O.co2 489  ASP489     -0.2456
     68  N         32.7480   -8.1660   23.7630 N.3   491  SER491     -0.1202
     69  CA        31.8340   -7.0210   23.9000 C.3   491  SER491      0.2020
     70  C         30.7110   -6.9990   22.8530 C.2   491  SER491      0.2618
     71  O         30.8930   -7.4780   21.7310 O.2   491  SER491     -0.2717
     72  CB        32.5910   -5.6850   23.8280 C.3   491  SER491      0.2103
     73  OG        33.6620   -5.6210   24.7490 O.3   491  SER491     -0.2182
     74  N         29.5570   -6.4500   23.2380 N.am  492  TYR492     -0.1975
     75  CA        28.4170   -6.2410   22.3180 C.3   492  TYR492      0.1639
     76  C         27.9160   -7.5440   21.6760 C.2   492  TYR492      0.2290
     77  O         27.7360   -7.6240   20.4650 O.2   492  TYR492     -0.2864
     78  CB        28.7490   -5.1900   21.2450 C.3   492  TYR492      0.0560
     79  CG        28.9930   -3.8130   21.8190 C.ar  492  TYR492     -0.0198
     80  CD1       27.9300   -2.9550   22.0770 C.ar  492  TYR492     -0.0009
     81  CD2       30.2780   -3.3760   22.1200 C.ar  492  TYR492     -0.0009
     82  CE1       28.1340   -1.7000   22.6190 C.ar  492  TYR492      0.0417
     83  CE2       30.4940   -2.1140   22.6740 C.ar  492  TYR492      0.0417
     84  CZ        29.4110   -1.2880   22.9220 C.ar  492  TYR492      0.1957
     85  OH        29.5950   -0.0390   23.4580 O.3   492  TYR492     -0.2866
     86  N         43.3190  -10.9200   29.7800 N.3   517  VAL517     -0.1245
     87  CA        42.3340   -9.8570   29.6810 C.3   517  VAL517      0.1561
     88  C         41.0770  -10.4020   29.0030 C.2   517  VAL517      0.2260
     89  O         41.1520  -11.0160   27.9280 O.2   517  VAL517     -0.2867
     90  CB        42.8850   -8.7140   28.8160 C.3   517  VAL517      0.0252
     91  CG1       41.8770   -7.5600   28.7150 C.3   517  VAL517      0.0019
     92  CG2       44.2210   -8.2400   29.3600 C.3   517  VAL517      0.0019
     93  N         37.0700   -9.1430   28.0010 N.3   519  ASN519     -0.1240
     94  CA        36.0880   -8.0670   27.9270 C.3   519  ASN519      0.1653
     95  C         34.6690   -8.5970   27.6720 C.2   519  ASN519      0.2266
     96  O         34.3280   -9.0050   26.5540 O.2   519  ASN519     -0.2867
     97  CB        36.4810   -7.0450   26.8390 C.3   519  ASN519      0.1155
     98  CG        35.7400   -5.7200   26.9880 C.2   519  ASN519      0.2627
     99  OD1       34.7640   -5.6450   27.7320 O.2   519  ASN519     -0.2716
    100  ND2       36.1630   -4.6830   26.2580 N.am  519  ASN519     -0.0877
    101  N         31.9650   -6.5590   28.2380 N.3   521  SER521     -0.1217
    102  CA        31.1490   -5.3430   28.2420 C.3   521  SER521      0.1889
    103  C         29.9270   -5.3280   27.3110 C.2   521  SER521      0.2288
    104  O         29.9450   -5.9090   26.2200 O.2   521  SER521     -0.2866
    105  CB        31.9980   -4.0860   27.9890 C.3   521  SER521      0.2089
    106  OG        32.4050   -4.0020   26.6330 O.3   521  SER521     -0.2183
    107  N         42.6290   -9.0020   33.9740 N.3   541  GLU541     -0.1245
    108  CA        41.6670   -7.9220   33.8460 C.3   541  GLU541      0.1567
    109  C         40.3120   -8.4010   33.3080 C.2   541  GLU541      0.2260
    110  O         40.2490   -9.1530   32.3320 O.2   541  GLU541     -0.2867
    111  CB        42.2460   -6.8310   32.9490 C.3   541  GLU541      0.0388
    112  CG        41.2550   -5.7690   32.5310 C.3   541  GLU541      0.1160
    113  CD        41.8470   -4.7840   31.5430 C.2   541  GLU541      0.3649
    114  OE1       42.8330   -5.1360   30.8570 O.co2 541  GLU541     -0.2457
    115  OE2       41.3310   -3.6560   31.4480 O.co2 541  GLU541     -0.2457
    116  N         36.5440   -6.8350   32.1180 N.3   543  VAL543     -0.1245
    117  CA        35.6980   -5.6840   31.8720 C.3   543  VAL543      0.1561
    118  C         34.2600   -6.1730   31.8740 C.2   543  VAL543      0.2260
    119  O         33.8410   -6.9160   30.9850 O.2   543  VAL543     -0.2867
    120  CB        36.0680   -5.0200   30.5320 C.3   543  VAL543      0.0252
    121  CG1       35.1630   -3.8320   30.2470 C.3   543  VAL543      0.0019
    122  CG2       37.5300   -4.5870   30.5700 C.3   543  VAL543      0.0019
    123  N         42.4110   -6.1250   37.9500 N.3   572  ARG572     -0.1245
    124  CA        41.6420   -5.0160   37.3970 C.3   572  ARG572      0.1563
    125  C         40.2250   -5.4540   37.0690 C.2   572  ARG572      0.2260
    126  O         40.0090   -6.3910   36.2950 O.2   572  ARG572     -0.2867
    127  CB        42.3040   -4.4260   36.1450 C.3   572  ARG572      0.0307
    128  CG        41.5200   -3.2510   35.5520 C.3   572  ARG572      0.0489
    129  CD        42.1880   -2.6370   34.3070 C.3   572  ARG572      0.2205
    130  NE        41.7700   -1.2500   34.0790 N.pl3 572  ARG572     -0.0865
    131  CZ        40.7100   -0.8840   33.3560 C.cat 572  ARG572      0.5346
    132  NH1       39.9330   -1.7990   32.7680 N.pl3 572  ARG572      0.1354
    133  NH2       40.4200    0.4070   33.2190 N.pl3 572  ARG572      0.1354
@<TRIPOS>BOND
     1     1     2    1
     2    48    47    2
     3     2     3    1
     4     2     5    1
     5    47    46    1
     6    49    50    1
     7    49    46    1
     8    41    40    2
     9     4     3    2
    10     3    10   am
    11    10    16    1
    12    10    11    1
    13    50    51    2
    14    50    52   am
    15    46    45    1
    16    16    15    1
    17     5     6    1
    18    15    14    1
    19    11    14    1
    20    11    12    1
    21    40    45   am
    22    40    39    1
    23    43    42    1
    24    29    28    2
    25     6     7    1
    26    38    39    1
    27    13    12    2
    28    12    17   am
    29    39    42    1
    30    42    44    1
    31    28    27    1
    32     7     8    1
    33    17    18    1
    34    32    34   ar
    35    32    31   ar
    36    30    27    1
    37    30    31    1
    38    26    27    1
    39    77    76    2
    40    19    20    2
    41    19    18    1
    42    34    36   ar
    43     8     9    1
    44    31    33   ar
    45    18    21    1
    46    78    79    1
    47    78    75    1
    48    24    23    2
    49    36    37    1
    50    36    35   ar
    51    76    75    1
    52    33    35   ar
    53    71    70    2
    54    79    80   ar
    55    79    81   ar
    56    63    62    2
    57    80    82   ar
    58    81    83   ar
    59    21    22    1
    60    75    74    1
    61    23    22    1
    62    23    25   am
    63    82    84   ar
    64    67    65   ar
    65    64    65    1
    66    64    61    1
    67    83    84   ar
    68    70    74   am
    69    70    69    1
    70    84    85    1
    71    65    66   ar
    72    62    61    1
    73    56    55    2
    74    60    61    1
    75    68    69    1
    76    72    69    1
    77    72    73    1
    78    55    54    1
    79    58    57    1
    80    57    54    1
    81    57    59    1
    82    53    54    1
    83   104   103    2
    84   100    98   am
    85    96    95    2
    86   106   105    1
    87    97    98    1
    88    97    94    1
    89    98    99    2
    90   103   102    1
    91    95    94    1
    92    94    93    1
    93    89    88    2
    94   105   102    1
    95   101   102    1
    96    91    90    1
    97    90    92    1
    98    90    87    1
    99    88    87    1
   100    87    86    1
   101   121   120    1
   102   120   122    1
   103   120   117    1
   104   114   113   ar
   105   119   118    2
   106   115   113   ar
   107   113   112    1
   108   117   118    1
   109   117   116    1
   110   110   109    2
   111   112   111    1
   112   132   131    1
   113   111   108    1
   114   133   131    1
   115   109   108    1
   116   131   130    2
   117   108   107    1
   118   130   129    1
   119   129   128    1
   120   128   127    1
   121   127   124    1
   122   126   125    2
   123   125   124    1
   124   124   123    1
