@<TRIPOS>MOLECULE
tmp/3w3kB02.pdb
 190 185 0 0 0
SMALL
GASTEIGER

@<TRIPOS>ATOM
      1  N         53.2140   27.9590    6.8470 N.3   129  TYR129     -0.1241
      2  CA        51.9440   27.3150    6.5530 C.3   129  TYR129      0.1605
      3  C         50.8920   28.3650    6.2280 C.2   129  TYR129      0.2264
      4  O         50.4900   29.1380    7.0970 O.2   129  TYR129     -0.2867
      5  CB        51.4770   26.4920    7.7590 C.3   129  TYR129      0.0534
      6  CG        52.5070   25.5320    8.3040 C.ar  129  TYR129     -0.0201
      7  CD1       53.4740   25.9610    9.2090 C.ar  129  TYR129     -0.0009
      8  CD2       52.5100   24.1950    7.9230 C.ar  129  TYR129     -0.0009
      9  CE1       54.4190   25.0900    9.7140 C.ar  129  TYR129      0.0417
     10  CE2       53.4520   23.3140    8.4250 C.ar  129  TYR129      0.0417
     11  CZ        54.4010   23.7690    9.3220 C.ar  129  TYR129      0.1957
     12  OH        55.3410   22.9090    9.8280 O.3   129  TYR129     -0.2866
     13  N         60.0550   23.9640    4.3830 N.3   158  LEU158     -0.1245
     14  CA        58.6840   23.5460    4.1350 C.3   158  LEU158      0.1561
     15  C         57.8230   24.7450    3.7830 C.2   158  LEU158      0.2260
     16  O         57.8810   25.7760    4.4520 O.2   158  LEU158     -0.2867
     17  CB        58.1050   22.8480    5.3740 C.3   158  LEU158      0.0270
     18  CG        56.7580   22.1260    5.2490 C.3   158  LEU158      0.0019
     19  CD1       56.6610   20.9840    6.2600 C.3   158  LEU158      0.0001
     20  CD2       55.5970   23.0880    5.4440 C.3   158  LEU158      0.0001
     21  N         48.3690   24.6490    0.4270 N.3   162  SER162     -0.1202
     22  CA        47.1950   23.8280    0.1070 C.3   162  SER162      0.2020
     23  C         45.8560   24.4540    0.5010 C.2   162  SER162      0.2618
     24  O         45.7860   25.2850    1.4060 O.2   162  SER162     -0.2717
     25  CB        47.3100   22.4350    0.7450 C.3   162  SER162      0.2103
     26  OG        48.5890   21.8730    0.5030 O.3   162  SER162     -0.2182
     27  N         44.8020   24.0510   -0.2070 N.am  163  PHE163     -0.1975
     28  CA        43.4440   24.5430    0.0260 C.3   163  PHE163      0.1639
     29  C         43.3760   26.0610   -0.0810 C.2   163  PHE163      0.2290
     30  O         42.8920   26.7570    0.8150 O.2   163  PHE163     -0.2864
     31  CB        42.8710   24.0040    1.3440 C.3   163  PHE163      0.0560
     32  CG        42.6720   22.5160    1.3320 C.ar  163  PHE163     -0.0200
     33  CD1       41.4900   21.9680    0.8570 C.ar  163  PHE163     -0.0042
     34  CD2       43.6830   21.6620    1.7480 C.ar  163  PHE163     -0.0042
     35  CE1       41.3080   20.6010    0.8070 C.ar  163  PHE163     -0.0003
     36  CE2       43.5060   20.2900    1.7080 C.ar  163  PHE163     -0.0003
     37  CZ        42.3040   19.7610    1.2290 C.ar  163  PHE163     -0.0000
     38  N         60.0080   20.3170    1.4460 N.3   179  LYS179     -0.1245
     39  CA        58.6420   19.8610    1.2780 C.3   179  LYS179      0.1561
     40  C         57.7880   20.9910    0.7260 C.2   179  LYS179      0.2260
     41  O         57.8450   22.1140    1.2150 O.2   179  LYS179     -0.2867
     42  CB        58.0940   19.4060    2.6340 C.3   179  LYS179      0.0271
     43  CG        59.0860   18.5670    3.4290 C.3   179  LYS179      0.0035
     44  CD        58.4560   17.9440    4.6750 C.3   179  LYS179      0.0206
     45  CE        59.4290   16.9740    5.3200 C.3   179  LYS179      0.1093
     46  NZ        58.7770   16.0380    6.2740 N.3   179  LYS179     -0.1314
     47  N         53.7860   21.8150   -0.3100 N.3   181  PHE181     -0.1241
     48  CA        52.3930   21.3610   -0.3160 C.3   181  PHE181      0.1605
     49  C         51.5110   22.2450   -1.2090 C.2   181  PHE181      0.2264
     50  O         51.2370   23.4040   -0.8900 O.2   181  PHE181     -0.2867
     51  CB        51.8420   21.3200    1.1160 C.3   181  PHE181      0.0534
     52  CG        52.5410   20.3310    2.0190 C.ar  181  PHE181     -0.0203
     53  CD1       53.6840   20.6940    2.7260 C.ar  181  PHE181     -0.0042
     54  CD2       52.0400   19.0490    2.1870 C.ar  181  PHE181     -0.0042
     55  CE1       54.3180   19.7950    3.5670 C.ar  181  PHE181     -0.0003
     56  CE2       52.6690   18.1430    3.0310 C.ar  181  PHE181     -0.0003
     57  CZ        53.8180   18.5220    3.7220 C.ar  181  PHE181     -0.0000
     58  N         48.4270   20.8960   -2.4710 N.3   183  SER183     -0.1217
     59  CA        47.1520   20.1820   -2.5420 C.3   183  SER183      0.1889
     60  C         45.9490   21.1010   -2.7420 C.2   183  SER183      0.2288
     61  O         45.9290   22.2040   -2.2120 O.2   183  SER183     -0.2866
     62  CB        46.9390   19.3340   -1.2840 C.3   183  SER183      0.2089
     63  OG        45.8110   18.4830   -1.4290 O.3   183  SER183     -0.2183
     64  N         59.6090   16.1510   -0.6440 N.3   203  LEU203     -0.1245
     65  CA        58.1560   15.9590   -0.6760 C.3   203  LEU203      0.1561
     66  C         57.4840   16.9460   -1.6160 C.2   203  LEU203      0.2260
     67  O         57.7800   18.1360   -1.5910 O.2   203  LEU203     -0.2867
     68  CB        57.5200   16.0620    0.7260 C.3   203  LEU203      0.0270
     69  CG        55.9900   15.8690    0.8420 C.3   203  LEU203      0.0019
     70  CD1       55.6050   15.3910    2.2410 C.3   203  LEU203      0.0001
     71  CD2       55.1620   17.1180    0.5030 C.3   203  LEU203      0.0001
     72  N         53.3930   17.7110   -2.7850 N.3   205  ASP205     -0.1239
     73  CA        51.9770   17.3480   -2.7310 C.3   205  ASP205      0.1674
     74  C         51.1810   18.1510   -3.7600 C.2   205  ASP205      0.2266
     75  O         50.9860   19.3490   -3.6030 O.2   205  ASP205     -0.2867
     76  CB        51.4320   17.5620   -1.3050 C.3   205  ASP205      0.1410
     77  CG        49.9610   17.1740   -1.1650 C.2   205  ASP205      0.3668
     78  OD1       49.4000   16.5280   -2.0840 O.co2 205  ASP205     -0.2456
     79  OD2       49.3640   17.5090   -0.1180 O.co2 205  ASP205     -0.2456
     80  N         48.1480   16.7420   -4.7800 N.3   207  SER207     -0.1217
     81  CA        46.8610   16.0650   -4.6620 C.3   207  SER207      0.1889
     82  C         45.6820   17.0280   -4.7600 C.2   207  SER207      0.2288
     83  O         45.8020   18.2020   -4.4180 O.2   207  SER207     -0.2866
     84  CB        46.7770   15.2910   -3.3400 C.3   207  SER207      0.2089
     85  OG        46.4890   16.1590   -2.2500 O.3   207  SER207     -0.2183
     86  N         58.4740   11.5330   -0.9220 N.3   244  TYR244     -0.1227
     87  CA        57.0200   11.5140   -0.9110 C.3   244  TYR244      0.1736
     88  C         56.4500   12.2660   -2.1360 C.2   244  TYR244      0.2595
     89  O         56.9460   13.3370   -2.5140 O.2   244  TYR244     -0.2718
     90  CB        56.5140   12.0930    0.4110 C.3   244  TYR244      0.0548
     91  CG        57.1790   11.4730    1.6300 C.ar  244  TYR244     -0.0200
     92  CD1       58.4290   11.9140    2.0640 C.ar  244  TYR244     -0.0009
     93  CD2       56.5560   10.4520    2.3430 C.ar  244  TYR244     -0.0009
     94  CE1       59.0360   11.3630    3.1630 C.ar  244  TYR244      0.0417
     95  CE2       57.1640    9.8920    3.4440 C.ar  244  TYR244      0.0417
     96  CZ        58.4040   10.3530    3.8430 C.ar  244  TYR244      0.1957
     97  OH        59.0290    9.8120    4.9370 O.3   244  TYR244     -0.2866
     98  N         55.4640   11.6580   -2.7930 N.am  245  LEU245     -0.1966
     99  CA        54.7630   12.2690   -3.9270 C.3   245  LEU245      0.1728
    100  C         53.2770   11.9690   -3.8080 C.2   245  LEU245      0.2616
    101  O         52.8730   10.7980   -3.8360 O.2   245  LEU245     -0.2715
    102  CB        55.2930   11.7220   -5.2570 C.3   245  LEU245      0.0311
    103  CG        54.6290   12.2480   -6.5370 C.3   245  LEU245      0.0022
    104  CD1       54.7390   13.7670   -6.6390 C.3   245  LEU245      0.0001
    105  CD2       55.2470   11.5780   -7.7600 C.3   245  LEU245      0.0001
    106  N         52.4560   13.0050   -3.6790 N.am  246  ASN246     -0.1972
    107  CA        51.0300   12.7700   -3.4620 C.3   246  ASN246      0.1688
    108  C         50.2650   13.2460   -4.6850 C.2   246  ASN246      0.2292
    109  O         50.1310   14.4470   -4.9280 O.2   246  ASN246     -0.2864
    110  CB        50.5300   13.4750   -2.1840 C.3   246  ASN246      0.1181
    111  CG        49.1360   12.9870   -1.7400 C.2   246  ASN246      0.2629
    112  OD1       48.4240   12.3560   -2.5220 O.2   246  ASN246     -0.2716
    113  ND2       48.7370   13.2840   -0.4850 N.am  246  ASN246     -0.0877
    114  N         57.2150    6.7990   -0.7790 N.3   268  VAL268     -0.1245
    115  CA        55.7630    6.7580   -0.6630 C.3   268  VAL268      0.1561
    116  C         55.0970    7.4240   -1.8700 C.2   268  VAL268      0.2260
    117  O         55.3810    8.5830   -2.2020 O.2   268  VAL268     -0.2867
    118  CB        55.2820    7.4160    0.6540 C.3   268  VAL268      0.0252
    119  CG1       53.7510    7.3740    0.7710 C.3   268  VAL268      0.0019
    120  CG2       55.9200    6.7230    1.8390 C.3   268  VAL268      0.0019
    121  N         51.2940    8.2120   -3.4220 N.3   270  ASP270     -0.1239
    122  CA        49.8540    8.2350   -3.2320 C.3   270  ASP270      0.1674
    123  C         49.1250    8.5210   -4.5530 C.2   270  ASP270      0.2266
    124  O         49.2170    9.6120   -5.1150 O.2   270  ASP270     -0.2867
    125  CB        49.4860    9.2560   -2.1580 C.3   270  ASP270      0.1410
    126  CG        49.8450    8.7790   -0.7480 C.2   270  ASP270      0.3668
    127  OD1       50.9110    8.1530   -0.5660 O.co2 270  ASP270     -0.2456
    128  OD2       49.0530    9.0220    0.1810 O.co2 270  ASP270     -0.2456
    129  N         40.4910   18.1560    9.7130 N.3   391  ASP391     -0.1225
    130  CA        41.6700   18.5850   10.4340 C.3   391  ASP391      0.1790
    131  C         42.7070   19.0000    9.4070 C.2   391  ASP391      0.2440
    132  O         43.1540   18.1710    8.6120 O.2   391  ASP391     -0.2733
    133  CB        42.1950   17.4480   11.3140 C.3   391  ASP391      0.1423
    134  CG        43.4690   17.8120   12.0450 C.2   391  ASP391      0.3668
    135  OD1       43.8480   18.9990   12.0500 O.co2 391  ASP391     -0.2456
    136  OD2       44.0930   16.9040   12.6300 O.co2 391  ASP391     -0.2456
    137  N         43.0820   20.2900    9.4160 N.am  392  PRO392     -0.2718
    138  CA        44.0720   20.8220    8.4670 C.3   392  PRO392      0.1535
    139  C         45.4610   20.2400    8.6850 C.2   392  PRO392      0.2599
    140  O         46.2910   20.3250    7.7900 O.2   392  PRO392     -0.2715
    141  CB        44.0770   22.3260    8.7610 C.3   392  PRO392      0.0310
    142  CG        43.5270   22.4480   10.1440 C.3   392  PRO392      0.0237
    143  CD        42.5550   21.3360   10.3090 C.3   392  PRO392      0.0939
    144  N         45.7050   19.6600    9.8570 N.am  393  HIS393     -0.1960
    145  CA        46.9970   19.0420   10.1620 C.3   393  HIS393      0.1787
    146  C         47.0180   17.5280    9.9140 C.2   393  HIS393      0.2621
    147  O         48.0060   16.8590   10.1940 O.2   393  HIS393     -0.2715
    148  CB        47.4240   19.3730   11.6000 C.3   393  HIS393      0.0785
    149  CG        47.5980   20.8370   11.8440 C.ar  393  HIS393      0.0821
    150  ND1       48.7270   21.5250   11.4480 N.ar  393  HIS393     -0.2267
    151  CD2       46.7790   21.7540   12.4120 C.ar  393  HIS393      0.1154
    152  CE1       48.6010   22.7980   11.7740 C.ar  393  HIS393      0.1986
    153  NE2       47.4290   22.9650   12.3610 N.ar  393  HIS393     -0.2212
    154  N         45.9260   16.9950    9.3880 N.am  394  SER394     -0.1936
    155  CA        45.8320   15.5650    9.1340 C.3   394  SER394      0.2055
    156  C         45.7600   15.2810    7.6350 C.2   394  SER394      0.2643
    157  O         45.3820   16.1550    6.8540 O.2   394  SER394     -0.2714
    158  CB        44.5950   14.9950    9.8300 C.3   394  SER394      0.2130
    159  OG        44.1180   13.8480    9.1510 O.3   394  SER394     -0.2179
    160  N         46.1550   14.0680    7.2450 N.am  395  ASN395     -0.1957
    161  CA        45.9790   13.5950    5.8760 C.3   395  ASN395      0.1819
    162  C         44.5250   13.6750    5.4890 C.2   395  ASN395      0.2621
    163  O         43.6540   13.1640    6.1910 O.2   395  ASN395     -0.2715
    164  CB        46.4420   12.1460    5.7350 C.3   395  ASN395      0.1195
    165  CG        46.7320   11.7520    4.2840 C.2   395  ASN395      0.2630
    166  OD1       45.8350   11.7150    3.4330 O.2   395  ASN395     -0.2716
    167  ND2       47.9950   11.4350    4.0070 N.am  395  ASN395     -0.0877
    168  N         44.2710   14.3240    4.3620 N.am  396  PHE396     -0.1960
    169  CA        42.9240   14.5580    3.8720 C.3   396  PHE396      0.1771
    170  C         42.3140   13.3360    3.1860 C.2   396  PHE396      0.2619
    171  O         41.0990   13.1430    3.2110 O.2   396  PHE396     -0.2715
    172  CB        42.9630   15.7300    2.8910 C.3   396  PHE396      0.0574
    173  CG        41.6220   16.1470    2.3760 C.ar  396  PHE396     -0.0200
    174  CD1       40.7170   16.7890    3.2050 C.ar  396  PHE396     -0.0042
    175  CD2       41.2780   15.9310    1.0530 C.ar  396  PHE396     -0.0042
    176  CE1       39.4800   17.1960    2.7310 C.ar  396  PHE396     -0.0003
    177  CE2       40.0440   16.3380    0.5660 C.ar  396  PHE396     -0.0003
    178  CZ        39.1400   16.9720    1.4130 C.ar  396  PHE396     -0.0000
    179  N         43.1450   12.5530    2.5080 N.am  397  TYR397     -0.1974
    180  CA        42.6300   11.4250    1.7280 C.3   397  TYR397      0.1639
    181  C         42.4110   10.0920    2.4580 C.2   397  TYR397      0.2290
    182  O         41.4500    9.3760    2.1650 O.2   397  TYR397     -0.2864
    183  CB        43.3580   11.2980    0.3840 C.3   397  TYR397      0.0560
    184  CG        43.1010   12.5330   -0.4550 C.ar  397  TYR397     -0.0198
    185  CD1       41.8930   12.7030   -1.1130 C.ar  397  TYR397     -0.0009
    186  CD2       44.0370   13.5590   -0.5300 C.ar  397  TYR397     -0.0009
    187  CE1       41.6350   13.8460   -1.8510 C.ar  397  TYR397      0.0417
    188  CE2       43.7910   14.7040   -1.2700 C.ar  397  TYR397      0.0417
    189  CZ        42.5890   14.8390   -1.9300 C.ar  397  TYR397      0.1957
    190  OH        42.3340   15.9720   -2.6730 O.3   397  TYR397     -0.2866
@<TRIPOS>BOND
     1   105   103    1
     2   104   103    1
     3   103   102    1
     4   102    99    1
     5   124   123    2
     6   109   108    2
     7    80    81    1
     8    82    81    1
     9    82    83    2
    10   108   107    1
    11    81    84    1
    12   123   122    1
    13    99   100    1
    14    99    98    1
    15   101   100    2
    16   100   106   am
    17    74    75    2
    18    74    73    1
    19   106   107    1
    20   107   110    1
    21   121   122    1
    22    84    85    1
    23   122   125    1
    24    98    88   am
    25    72    73    1
    26    60    59    1
    27    60    61    2
    28    73    76    1
    29   190   189    1
    30    59    58    1
    31    59    62    1
    32   112   111    2
    33    89    88    2
    34   117   116    2
    35   110   111    1
    36   125   126    1
    37    88    87    1
    38    78    77   ar
    39   189   187   ar
    40   189   188   ar
    41   116   115    1
    42   187   185   ar
    43   111   113   am
    44    66    67    2
    45    66    65    1
    46    63    62    1
    47    76    77    1
    48   188   186   ar
    49    49    50    2
    50    49    48    1
    51    77    79   ar
    52   185   184   ar
    53    86    87    1
    54    87    90    1
    55   114   115    1
    56   126   127   ar
    57   126   128   ar
    58    65    64    1
    59    65    68    1
    60   115   118    1
    61   186   184   ar
    62   184   183    1
    63    48    47    1
    64    48    51    1
    65    27    28    1
    66    27    23   am
    67    29    28    1
    68    29    30    2
    69    28    31    1
    70    22    21    1
    71    22    23    1
    72    22    25    1
    73   183   180    1
    74    90    91    1
    75    23    24    2
    76    71    69    1
    77    26    25    1
    78   177   175   ar
    79   177   178   ar
    80   118   119    1
    81   118   120    1
    82    40    41    2
    83    40    39    1
    84    68    69    1
    85    35    33   ar
    86    35    37   ar
    87    69    70    1
    88    33    32   ar
    89   175   173   ar
    90    51    52    1
    91    37    36   ar
    92    39    38    1
    93    39    42    1
    94    32    31    1
    95    32    34   ar
    96   178   176   ar
    97    91    92   ar
    98    91    93   ar
    99    36    34   ar
   100   180   181    1
   101   180   179    1
   102    52    54   ar
   103    52    53   ar
   104    92    94   ar
   105   182   181    2
   106    54    56   ar
   107    93    95   ar
   108   173   172    1
   109   173   174   ar
   110   179   170   am
   111    42    43    1
   112    53    55   ar
   113   176   174   ar
   114   172   169    1
   115    56    57   ar
   116    94    96   ar
   117   170   171    2
   118   170   169    1
   119    43    44    1
   120   166   165    2
   121    95    96   ar
   122    55    57   ar
   123    15    14    1
   124    15    16    2
   125    96    97    1
   126   169   168    1
   127   167   165   am
   128    14    13    1
   129    14    17    1
   130   165   164    1
   131   168   162   am
   132    44    45    1
   133    18    17    1
   134    18    20    1
   135    18    19    1
   136    45    46    1
   137   162   161    1
   138   162   163    2
   139   164   161    1
   140   161   160    1
   141     3     2    1
   142     3     4    2
   143     2     1    1
   144     2     5    1
   145   157   156    2
   146   160   156   am
   147   156   155    1
   148     5     6    1
   149   140   139    2
   150     8     6   ar
   151     8    10   ar
   152     6     7   ar
   153    10    11   ar
   154   138   139    1
   155   138   141    1
   156   138   137    1
   157   132   131    2
   158   139   144   am
   159   141   142    1
   160   155   154    1
   161   155   158    1
   162   159   158    1
   163     7     9   ar
   164    11     9   ar
   165    11    12    1
   166   154   146   am
   167   131   137   am
   168   131   130    1
   169   137   143    1
   170   129   130    1
   171   144   145    1
   172   146   145    1
   173   146   147    2
   174   142   143    1
   175   145   148    1
   176   130   133    1
   177   133   134    1
   178   150   152   ar
   179   150   149   ar
   180   148   149    1
   181   152   153   ar
   182   149   151   ar
   183   134   135   ar
   184   134   136   ar
   185   153   151   ar
