@<TRIPOS>MOLECULE
tmp/3w3mA02.pdb
 128 118 0 0 0
SMALL
GASTEIGER

@<TRIPOS>ATOM
      1  N        -11.4980  -33.7170   17.9850 N.3   382  TYR382     -0.1241
      2  CA       -11.3930  -34.5790   16.8170 C.3   382  TYR382      0.1605
      3  C        -11.7030  -33.7890   15.5520 C.2   382  TYR382      0.2264
      4  O        -12.8620  -33.5280   15.2220 O.2   382  TYR382     -0.2867
      5  CB       -12.3590  -35.7570   16.9740 C.3   382  TYR382      0.0534
      6  CG       -12.1850  -36.8630   15.9600 C.ar  382  TYR382     -0.0201
      7  CD1      -11.2470  -37.8690   16.1530 C.ar  382  TYR382     -0.0009
      8  CD2      -12.9730  -36.9110   14.8180 C.ar  382  TYR382     -0.0009
      9  CE1      -11.0920  -38.8850   15.2290 C.ar  382  TYR382      0.0417
     10  CE2      -12.8270  -37.9220   13.8910 C.ar  382  TYR382      0.0417
     11  CZ       -11.8860  -38.9050   14.1000 C.ar  382  TYR382      0.1957
     12  OH       -11.7410  -39.9100   13.1730 O.3   382  TYR382     -0.2866
     13  N        -10.3820  -34.7970   12.5200 N.3   384  SER384     -0.1217
     14  CA        -9.9750  -35.6870   11.4360 C.3   384  SER384      0.1889
     15  C        -10.8330  -35.5600   10.1780 C.2   384  SER384      0.2288
     16  O        -12.0300  -35.2920   10.2560 O.2   384  SER384     -0.2866
     17  CB        -9.9650  -37.1420   11.9110 C.3   384  SER384      0.2089
     18  OG        -9.5760  -38.0180   10.8660 O.3   384  SER384     -0.2183
     19  N        -16.2970  -47.6250   17.4120 N.3   405  ARG405     -0.1245
     20  CA       -14.9050  -47.5570   17.8490 C.3   405  ARG405      0.1563
     21  C        -14.5950  -46.1830   18.4330 C.2   405  ARG405      0.2260
     22  O        -15.2760  -45.2080   18.1140 O.2   405  ARG405     -0.2867
     23  CB       -13.9530  -47.8520   16.6800 C.3   405  ARG405      0.0307
     24  CG       -13.9090  -46.7610   15.6180 C.3   405  ARG405      0.0489
     25  CD       -12.7100  -46.8860   14.6840 C.3   405  ARG405      0.2205
     26  NE       -11.9930  -45.6170   14.5680 N.pl3 405  ARG405     -0.0865
     27  CZ       -11.9600  -44.8580   13.4750 C.cat 405  ARG405      0.5346
     28  NH1      -12.5940  -45.2360   12.3710 N.pl3 405  ARG405      0.1354
     29  NH2      -11.2790  -43.7190   13.4840 N.pl3 405  ARG405      0.1354
     30  N        -12.7560  -42.5900   18.9250 N.3   407  LEU407     -0.1231
     31  CA       -12.2560  -41.6110   17.9690 C.3   407  LEU407      0.1693
     32  C        -10.7350  -41.6450   17.9590 C.2   407  LEU407      0.2592
     33  O        -10.1100  -41.8170   16.9120 O.2   407  LEU407     -0.2718
     34  CB       -12.7380  -40.2100   18.3390 C.3   407  LEU407      0.0284
     35  CG       -14.2520  -40.0050   18.3490 C.3   407  LEU407      0.0019
     36  CD1      -14.6080  -38.6040   18.8250 C.3   407  LEU407      0.0001
     37  CD2      -14.8300  -40.2740   16.9670 C.3   407  LEU407      0.0001
     38  N        -10.1500  -41.4890   19.1410 N.am  408  ILE408     -0.1966
     39  CA        -8.7070  -41.5600   19.3000 C.3   408  ILE408      0.1727
     40  C         -8.3300  -42.9350   19.8300 C.2   408  ILE408      0.2616
     41  O         -9.0440  -43.5050   20.6550 O.2   408  ILE408     -0.2715
     42  CB        -8.1910  -40.5000   20.2930 C.3   408  ILE408      0.0290
     43  CG1       -8.8190  -39.1370   20.0070 C.3   408  ILE408      0.0022
     44  CG2       -6.6750  -40.4030   20.2280 C.3   408  ILE408      0.0023
     45  CD1       -8.3050  -38.4900   18.7530 C.3   408  ILE408      0.0001
     46  N         -7.2130  -43.4620   19.3390 N.am  409  LYS409     -0.1977
     47  CA        -6.6450  -44.7110   19.8270 C.3   409  LYS409      0.1596
     48  C         -6.3960  -44.6060   21.3330 C.2   409  LYS409      0.2287
     49  O         -5.7010  -43.6940   21.7850 O.2   409  LYS409     -0.2864
     50  CB        -5.3390  -44.9860   19.0770 C.3   409  LYS409      0.0298
     51  CG        -4.7390  -46.3720   19.2530 C.3   409  LYS409      0.0038
     52  CD        -3.5720  -46.5470   18.2820 C.3   409  LYS409      0.0206
     53  CE        -2.5200  -47.5230   18.7980 C.3   409  LYS409      0.1093
     54  NZ        -2.8540  -48.9480   18.5280 N.3   409  LYS409     -0.1314
     55  N         -3.1780  -43.6390   22.9620 N.3   412  CYS412     -0.1235
     56  CA        -2.8290  -42.2290   22.8380 C.3   412  CYS412      0.1677
     57  C         -3.5990  -41.3560   23.8290 C.2   412  CYS412      0.2270
     58  O         -3.0200  -40.4930   24.4900 O.2   412  CYS412     -0.2867
     59  CB        -3.0790  -41.7530   21.4050 C.3   412  CYS412      0.0956
     60  SG        -2.2910  -40.1850   20.9880 S.3   412  CYS412     -0.0801
     61  N         -6.6210  -34.4390   17.2490 N.3   420  ASP420     -0.1239
     62  CA        -6.5290  -35.2620   16.0500 C.3   420  ASP420      0.1674
     63  C         -6.6890  -34.3920   14.8090 C.2   420  ASP420      0.2266
     64  O         -7.7890  -33.9550   14.4760 O.2   420  ASP420     -0.2867
     65  CB        -7.6190  -36.3380   16.0790 C.3   420  ASP420      0.1410
     66  CG        -7.3470  -37.4790   15.1160 C.2   420  ASP420      0.3668
     67  OD1       -6.8940  -37.2140   13.9840 O.co2 420  ASP420     -0.2456
     68  OD2       -7.5860  -38.6460   15.4950 O.co2 420  ASP420     -0.2456
     69  N         -5.5200  -35.6250   11.8710 N.3   422  SER422     -0.1202
     70  CA        -5.3090  -36.6270   10.8230 C.3   422  SER422      0.2020
     71  C         -6.1930  -36.4250    9.6020 C.2   422  SER422      0.2618
     72  O         -7.2920  -35.8790    9.7020 O.2   422  SER422     -0.2717
     73  CB        -5.5480  -38.0380   11.3590 C.3   422  SER422      0.2103
     74  OG        -6.9380  -38.2960   11.4900 O.3   422  SER422     -0.2182
     75  N         -5.6840  -36.8420    8.4470 N.am  423  LEU423     -0.1979
     76  CA        -6.4240  -36.7510    7.1940 C.3   423  LEU423      0.1596
     77  C         -6.7610  -35.3020    6.8550 C.2   423  LEU423      0.2287
     78  O         -7.9040  -34.9670    6.5480 O.2   423  LEU423     -0.2864
     79  CB        -7.6780  -37.6330    7.2340 C.3   423  LEU423      0.0297
     80  CG        -7.3830  -39.1360    7.2240 C.3   423  LEU423      0.0022
     81  CD1       -8.5910  -39.9540    7.6460 C.3   423  LEU423      0.0001
     82  CD2       -6.9170  -39.5550    5.8420 C.3   423  LEU423      0.0001
     83  N         -2.4200  -36.3530   16.7280 N.3   444  ASN444     -0.1240
     84  CA        -2.4730  -37.1480   15.5040 C.3   444  ASN444      0.1653
     85  C         -2.2540  -36.2830   14.2630 C.2   444  ASN444      0.2266
     86  O         -3.1270  -35.5100   13.8660 O.2   444  ASN444     -0.2867
     87  CB        -3.8120  -37.8920   15.4060 C.3   444  ASN444      0.1155
     88  CG        -3.7510  -39.0910   14.4700 C.2   444  ASN444      0.2627
     89  OD1       -2.8980  -39.1570   13.5850 O.2   444  ASN444     -0.2716
     90  ND2       -4.6600  -40.0450   14.6630 N.am  444  ASN444     -0.0877
     91  N         -1.3370  -37.7840   11.3360 N.3   446  SER446     -0.1202
     92  CA        -1.3940  -38.7570   10.2420 C.3   446  SER446      0.2020
     93  C         -2.0270  -38.2150    8.9600 C.2   446  SER446      0.2618
     94  O         -2.9830  -37.4500    9.0110 O.2   446  SER446     -0.2717
     95  CB        -2.1470  -40.0150   10.6860 C.3   446  SER446      0.2103
     96  OG        -2.2590  -40.9490    9.6250 O.3   446  SER446     -0.2182
     97  N         -1.4490  -38.5890    7.8190 N.am  447  ALA447     -0.1979
     98  CA        -2.0270  -38.3180    6.4980 C.3   447  ALA447      0.1597
     99  C         -2.1670  -36.8400    6.1480 C.2   447  ALA447      0.2287
    100  O         -3.1510  -36.4350    5.5350 O.2   447  ALA447     -0.2864
    101  CB        -3.3680  -39.0250    6.3490 C.3   447  ALA447      0.0319
    102  N          2.6080  -38.9430   22.9540 N.3   467  TYR467     -0.1241
    103  CA         2.3350  -39.8750   21.8630 C.3   467  TYR467      0.1605
    104  C          2.1380  -39.0670   20.5810 C.2   467  TYR467      0.2264
    105  O          1.2480  -38.2170   20.5080 O.2   467  TYR467     -0.2867
    106  CB         1.0720  -40.6830   22.2060 C.3   467  TYR467      0.0534
    107  CG         0.7990  -41.9300   21.3780 C.ar  467  TYR467     -0.0201
    108  CD1        0.8930  -41.9190   19.9910 C.ar  467  TYR467     -0.0009
    109  CD2        0.4230  -43.1190   21.9940 C.ar  467  TYR467     -0.0009
    110  CE1        0.6320  -43.0560   19.2450 C.ar  467  TYR467      0.0417
    111  CE2        0.1600  -44.2600   21.2550 C.ar  467  TYR467      0.0417
    112  CZ         0.2650  -44.2230   19.8830 C.ar  467  TYR467      0.1957
    113  OH         0.0040  -45.3570   19.1440 O.3   467  TYR467     -0.2866
    114  N          1.6450  -39.1810   16.3690 N.3   469  ASP469     -0.1239
    115  CA         1.3690  -39.9480   15.1620 C.3   469  ASP469      0.1674
    116  C          1.7150  -39.1160   13.9290 C.2   469  ASP469      0.2266
    117  O          0.9950  -38.1810   13.5770 O.2   469  ASP469     -0.2867
    118  CB        -0.1130  -40.3400   15.1350 C.3   469  ASP469      0.1410
    119  CG        -0.4040  -41.4870   14.1860 C.2   469  ASP469      0.3668
    120  OD1        0.3500  -41.6640   13.2070 O.co2 469  ASP469     -0.2456
    121  OD2       -1.3950  -42.2130   14.4200 O.co2 469  ASP469     -0.2456
    122  N          2.2860  -40.8570   10.9950 N.3   471  THR471     -0.1218
    123  CA         2.0830  -41.8670    9.9490 C.3   471  THR471      0.1862
    124  C          1.4840  -41.3630    8.6370 C.2   471  THR471      0.2287
    125  O          0.6640  -40.4440    8.6250 O.2   471  THR471     -0.2866
    126  CB         1.1780  -43.0190   10.4350 C.3   471  THR471      0.1770
    127  OG1       -0.0170  -42.4860   11.0210 O.3   471  THR471     -0.2211
    128  CG2        1.8960  -43.8630   11.4500 C.3   471  THR471      0.0375
@<TRIPOS>BOND
     1   100    99    2
     2    82    80    1
     3    99    98    1
     4   101    98    1
     5    98    97    1
     6    78    77    2
     7    77    76    1
     8    76    79    1
     9    76    75    1
    10    80    79    1
    11    80    81    1
    12    97    93   am
    13    75    71   am
    14   125   124    2
    15   124   123    1
    16    93    94    2
    17    93    92    1
    18    71    72    2
    19    71    70    1
    20    96    95    1
    21   123   126    1
    22   123   122    1
    23    15    16    2
    24    15    14    1
    25    92    95    1
    26    92    91    1
    27   126   127    1
    28   126   128    1
    29    70    73    1
    30    70    69    1
    31    18    17    1
    32    73    74    1
    33    14    17    1
    34    14    13    1
    35    28    27    1
    36    12    11    1
    37   120   119   ar
    38    27    29    1
    39    27    26    2
    40   117   116    2
    41    89    88    2
    42    86    85    2
    43    10    11   ar
    44    10     8   ar
    45   116   115    1
    46    67    66   ar
    47    11     9   ar
    48   119   121   ar
    49   119   118    1
    50    85    84    1
    51    88    90   am
    52    88    87    1
    53    64    63    2
    54    26    25    1
    55    25    24    1
    56    63    62    1
    57     8     6   ar
    58    66    68   ar
    59    66    65    1
    60   118   115    1
    61   115   114    1
    62     4     3    2
    63     9     7   ar
    64    87    84    1
    65    84    83    1
    66     3     2    1
    67    24    23    1
    68     6     7   ar
    69     6     5    1
    70    62    65    1
    71    62    61    1
    72    23    20    1
    73     2     5    1
    74     2     1    1
    75    33    32    2
    76    37    35    1
    77    19    20    1
    78    20    21    1
    79    32    31    1
    80    32    38   am
    81    31    34    1
    82    31    30    1
    83    22    21    2
    84    52    53    1
    85    52    51    1
    86    34    35    1
    87    35    36    1
    88    54    53    1
    89    45    43    1
    90    50    51    1
    91    50    47    1
    92    38    39    1
    93   113   112    1
    94   110   112   ar
    95   110   108   ar
    96    39    40    1
    97    39    42    1
    98    46    47    1
    99    46    40   am
   100    47    48    1
   101    40    41    2
   102   112   111   ar
   103   108   107   ar
   104    43    42    1
   105    44    42    1
   106   105   104    2
   107   104   103    1
   108    60    59    1
   109   111   109   ar
   110    48    49    2
   111   107   109   ar
   112   107   106    1
   113    59    56    1
   114   103   106    1
   115   103   102    1
   116    56    55    1
   117    56    57    1
   118    57    58    2
