@<TRIPOS>MOLECULE
tmp/3w3mA00.pdb
 113 109 0 0 0
SMALL
GASTEIGER

@<TRIPOS>ATOM
      1  N        -30.6300  -39.5410    0.3090 N.3   219  PHE219     -0.1227
      2  CA       -29.5930  -39.0000   -0.5680 C.3   219  PHE219      0.1736
      3  C        -28.2150  -39.5590   -0.2200 C.2   219  PHE219      0.2595
      4  O        -27.7830  -39.5080    0.9340 O.2   219  PHE219     -0.2718
      5  CB       -29.5630  -37.4710   -0.5480 C.3   219  PHE219      0.0547
      6  CG       -28.4570  -36.8820   -1.3850 C.ar  219  PHE219     -0.0202
      7  CD1      -28.2790  -37.2850   -2.7050 C.ar  219  PHE219     -0.0042
      8  CD2      -27.5930  -35.9310   -0.8560 C.ar  219  PHE219     -0.0042
      9  CE1      -27.2600  -36.7510   -3.4810 C.ar  219  PHE219     -0.0003
     10  CE2      -26.5730  -35.3890   -1.6270 C.ar  219  PHE219     -0.0003
     11  CZ       -26.4060  -35.8010   -2.9420 C.ar  219  PHE219     -0.0000
     12  N        -27.5440  -40.1010   -1.2330 N.am  220  ASN220     -0.1974
     13  CA       -26.1920  -40.6440   -1.0990 C.3   220  ASN220      0.1688
     14  C        -26.0800  -41.8060   -0.1070 C.2   220  ASN220      0.2292
     15  O        -25.0160  -42.0540    0.4570 O.2   220  ASN220     -0.2864
     16  CB       -25.2010  -39.5270   -0.7520 C.3   220  ASN220      0.1181
     17  CG       -23.7660  -39.9110   -1.0360 C.2   220  ASN220      0.2629
     18  OD1      -23.4860  -40.6700   -1.9650 O.2   220  ASN220     -0.2716
     19  ND2      -22.8460  -39.3940   -0.2300 N.am  220  ASN220     -0.0877
     20  N        -24.2570  -35.4030   10.2670 N.3   304  PHE304     -0.1241
     21  CA       -24.7900  -35.5630    8.9100 C.3   304  PHE304      0.1605
     22  C        -26.1720  -34.9520    8.6780 C.2   304  PHE304      0.2264
     23  O        -27.0180  -35.5430    8.0080 O.2   304  PHE304     -0.2867
     24  CB       -24.7540  -37.0330    8.4780 C.3   304  PHE304      0.0534
     25  CG       -23.3700  -37.5460    8.2110 C.ar  304  PHE304     -0.0203
     26  CD1      -22.6410  -37.0720    7.1300 C.ar  304  PHE304     -0.0042
     27  CD2      -22.7950  -38.5030    9.0340 C.ar  304  PHE304     -0.0042
     28  CE1      -21.3610  -37.5400    6.8720 C.ar  304  PHE304     -0.0003
     29  CE2      -21.5140  -38.9790    8.7820 C.ar  304  PHE304     -0.0003
     30  CZ       -20.7960  -38.4950    7.6980 C.ar  304  PHE304     -0.0000
     31  N        -26.4270  -32.0040    7.1640 N.3   306  TYR306     -0.1227
     32  CA       -26.1130  -30.9990    6.1490 C.3   306  TYR306      0.1736
     33  C        -27.2190  -30.7640    5.1330 C.2   306  TYR306      0.2595
     34  O        -27.9170  -31.6920    4.7310 O.2   306  TYR306     -0.2718
     35  CB       -24.8450  -31.4040    5.3950 C.3   306  TYR306      0.0548
     36  CG       -24.9990  -32.6110    4.4910 C.ar  306  TYR306     -0.0200
     37  CD1      -24.8260  -33.9000    4.9830 C.ar  306  TYR306     -0.0009
     38  CD2      -25.2980  -32.4610    3.1410 C.ar  306  TYR306     -0.0009
     39  CE1      -24.9600  -35.0020    4.1590 C.ar  306  TYR306      0.0417
     40  CE2      -25.4360  -33.5560    2.3120 C.ar  306  TYR306      0.0417
     41  CZ       -25.2660  -34.8230    2.8250 C.ar  306  TYR306      0.1957
     42  OH       -25.4020  -35.9130    1.9970 O.3   306  TYR306     -0.2866
     43  N        -27.3720  -29.5080    4.7300 N.am  307  ILE307     -0.1980
     44  CA       -28.2670  -29.1540    3.6390 C.3   307  ILE307      0.1595
     45  C        -27.5670  -29.4760    2.3260 C.2   307  ILE307      0.2287
     46  O        -26.3820  -29.1810    2.1650 O.2   307  ILE307     -0.2864
     47  CB       -28.6120  -27.6580    3.6650 C.3   307  ILE307      0.0276
     48  CG1      -28.6710  -27.1500    5.1080 C.3   307  ILE307      0.0022
     49  CG2      -29.9270  -27.4060    2.9500 C.3   307  ILE307      0.0022
     50  CD1      -28.7540  -25.6410    5.2300 C.3   307  ILE307      0.0001
     51  N        -25.9200  -29.5470   -1.2020 N.3   309  GLY309     -0.1210
     52  CA       -25.2760  -28.5750   -2.0670 C.3   309  GLY309      0.1956
     53  C        -24.7550  -27.3350   -1.3650 C.2   309  GLY309      0.2613
     54  O        -24.1600  -26.4630   -2.0000 O.2   309  GLY309     -0.2717
     55  N        -24.9650  -27.2560   -0.0550 N.am  310  SER310     -0.1938
     56  CA       -24.5840  -26.0660    0.7030 C.3   310  SER310      0.2055
     57  C        -23.1700  -26.1500    1.2800 C.2   310  SER310      0.2643
     58  O        -22.7680  -27.1850    1.8090 O.2   310  SER310     -0.2714
     59  CB       -25.5920  -25.8000    1.8230 C.3   310  SER310      0.2130
     60  OG       -25.3330  -24.5570    2.4540 O.3   310  SER310     -0.2179
     61  N        -22.4280  -25.0480    1.1760 N.am  311  TYR311     -0.1973
     62  CA       -21.0830  -24.9450    1.7430 C.3   311  TYR311      0.1639
     63  C        -20.9030  -23.6000    2.4530 C.2   311  TYR311      0.2290
     64  O        -20.0980  -22.7730    2.0180 O.2   311  TYR311     -0.2864
     65  CB       -20.0380  -25.0800    0.6330 C.3   311  TYR311      0.0560
     66  CG       -18.6300  -25.3630    1.1150 C.ar  311  TYR311     -0.0198
     67  CD1      -18.3960  -25.8830    2.3810 C.ar  311  TYR311     -0.0009
     68  CD2      -17.5340  -25.1040    0.3030 C.ar  311  TYR311     -0.0009
     69  CE1      -17.1080  -26.1440    2.8210 C.ar  311  TYR311      0.0417
     70  CE2      -16.2450  -25.3600    0.7340 C.ar  311  TYR311      0.0417
     71  CZ       -16.0370  -25.8800    1.9930 C.ar  311  TYR311      0.1957
     72  OH       -14.7540  -26.1360    2.4240 O.3   311  TYR311     -0.2866
     73  N        -20.3340  -33.8170    9.2430 N.3   334  GLY334     -0.1225
     74  CA       -21.0600  -33.6030    8.0130 C.3   334  GLY334      0.1811
     75  C        -22.0660  -32.4830    8.1780 C.2   334  GLY334      0.2280
     76  O        -23.1720  -32.5610    7.6530 O.2   334  GLY334     -0.2866
     77  N        -20.8080  -29.6900    7.2300 N.3   336  VAL336     -0.1245
     78  CA       -20.2170  -29.0080    6.0630 C.3   336  VAL336      0.1561
     79  C        -20.1810  -27.4660    6.0760 C.2   336  VAL336      0.2260
     80  O        -21.0340  -26.8090    5.4890 O.2   336  VAL336     -0.2867
     81  CB       -20.6230  -29.6180    4.6770 C.3   336  VAL336      0.0252
     82  CG1      -22.1060  -29.6320    4.4760 C.3   336  VAL336      0.0019
     83  CG2      -19.9360  -28.8630    3.5460 C.3   336  VAL336      0.0019
     84  N        -15.2110  -34.7280    9.0620 N.3   361  ILE361     -0.1245
     85  CA       -15.9260  -34.6940    7.7810 C.3   361  ILE361      0.1561
     86  C        -16.7500  -33.4120    7.5600 C.2   361  ILE361      0.2260
     87  O        -17.8730  -33.4590    7.0570 O.2   361  ILE361     -0.2867
     88  CB       -16.7930  -35.9750    7.5680 C.3   361  ILE361      0.0252
     89  CG1      -16.0610  -37.2150    8.0960 C.3   361  ILE361      0.0019
     90  CG2      -17.1210  -36.1800    6.0960 C.3   361  ILE361      0.0019
     91  CD1      -16.7770  -38.5290    7.8170 C.3   361  ILE361      0.0001
     92  N        -15.2500  -30.5690    5.8940 N.3   363  PHE363     -0.1241
     93  CA       -14.5860  -29.8000    4.8330 C.3   363  PHE363      0.1605
     94  C        -14.1490  -28.4070    5.2940 C.2   363  PHE363      0.2264
     95  O        -14.2100  -27.4410    4.5310 O.2   363  PHE363     -0.2867
     96  CB       -15.4680  -29.7050    3.5810 C.3   363  PHE363      0.0534
     97  CG       -15.7370  -31.0310    2.9300 C.ar  363  PHE363     -0.0203
     98  CD1      -14.8500  -31.5530    2.0000 C.ar  363  PHE363     -0.0042
     99  CD2      -16.8750  -31.7560    3.2470 C.ar  363  PHE363     -0.0042
    100  CE1      -15.0880  -32.7760    1.4040 C.ar  363  PHE363     -0.0003
    101  CE2      -17.1240  -32.9800    2.6510 C.ar  363  PHE363     -0.0003
    102  CZ       -16.2300  -33.4890    1.7270 C.ar  363  PHE363     -0.0000
    103  N        -10.3250  -30.0830    5.4530 N.3   387  ARG387     -0.1245
    104  CA        -9.4570  -29.3620    4.5190 C.3   387  ARG387      0.1563
    105  C         -8.4050  -28.4370    5.1480 C.2   387  ARG387      0.2260
    106  O         -7.7510  -27.6780    4.4340 O.2   387  ARG387     -0.2867
    107  CB       -10.2760  -28.6400    3.4440 C.3   387  ARG387      0.0307
    108  CG       -10.5340  -29.5090    2.2230 C.3   387  ARG387      0.0489
    109  CD       -11.9640  -29.3870    1.7270 C.3   387  ARG387      0.2205
    110  NE       -12.2390  -28.0750    1.1480 N.pl3 387  ARG387     -0.0865
    111  CZ       -12.1280  -27.7920   -0.1460 C.cat 387  ARG387      0.5346
    112  NH1      -12.4000  -26.5710   -0.5850 N.pl3 387  ARG387      0.1354
    113  NH2      -11.7450  -28.7300   -1.0030 N.pl3 387  ARG387      0.1354
@<TRIPOS>BOND
     1     9    11   ar
     2     9     7   ar
     3    11    10   ar
     4     7     6   ar
     5    52    53    1
     6    52    51    1
     7    54    53    2
     8    18    17    2
     9    10     8   ar
    10     6     8   ar
    11     6     5    1
    12    53    55   am
    13    12    13    1
    14    12     3   am
    15    13    16    1
    16    13    14    1
    17    17    16    1
    18    17    19   am
    19   113   111    1
    20   112   111    1
    21     2     5    1
    22     2     3    1
    23     2     1    1
    24     3     4    2
    25   111   110    2
    26    14    15    2
    27    55    56    1
    28    68    70   ar
    29    68    66   ar
    30    65    66    1
    31    65    62    1
    32    56    57    1
    33    56    59    1
    34    70    71   ar
    35    66    67   ar
    36   110   109    1
    37    61    57   am
    38    61    62    1
    39    57    58    2
    40   100   102   ar
    41   100    98   ar
    42   102   101   ar
    43   109   108    1
    44    62    63    1
    45    59    60    1
    46    71    72    1
    47    71    69   ar
    48    42    41    1
    49    98    97   ar
    50    64    63    2
    51    46    45    2
    52   108   107    1
    53    40    41   ar
    54    40    38   ar
    55    45    44    1
    56    67    69   ar
    57   101    99   ar
    58    41    39   ar
    59    97    99   ar
    60    97    96    1
    61    49    47    1
    62    38    36   ar
    63   107   104    1
    64    83    81    1
    65    96    93    1
    66    44    47    1
    67    44    43    1
    68    47    48    1
    69    39    37   ar
    70   106   105    2
    71    82    81    1
    72    36    37   ar
    73    36    35    1
    74   104   105    1
    75   104   103    1
    76    95    94    2
    77    81    78    1
    78    43    33   am
    79    34    33    2
    80    93    94    1
    81    93    92    1
    82    48    50    1
    83    33    32    1
    84    35    32    1
    85    80    79    2
    86    78    79    1
    87    78    77    1
    88    90    88    1
    89    32    31    1
    90    28    26   ar
    91    28    30   ar
    92    87    86    2
    93    26    25   ar
    94    86    85    1
    95    88    85    1
    96    88    89    1
    97    76    75    2
    98    30    29   ar
    99    85    84    1
   100    91    89    1
   101    23    22    2
   102    74    75    1
   103    74    73    1
   104    25    24    1
   105    25    27   ar
   106    24    21    1
   107    22    21    1
   108    29    27   ar
   109    21    20    1
