@<TRIPOS>MOLECULE
tmp/3w3oB00.pdb
 136 126 0 0 0
SMALL
GASTEIGER

@<TRIPOS>ATOM
      1  N        -15.7030  -16.7780   16.0770 N.3    44  LYS44      -0.1231
      2  CA       -14.3130  -16.7860   15.6310 C.3    44  LYS44       0.1693
      3  C        -14.2960  -16.7050   14.0980 C.2    44  LYS44       0.2592
      4  O        -15.0970  -17.3640   13.4700 O.2    44  LYS44      -0.2718
      5  CB       -13.6500  -18.0930   16.0700 C.3    44  LYS44       0.0285
      6  CG       -12.2710  -18.3460   15.4590 C.3    44  LYS44       0.0035
      7  CD       -11.2740  -17.3120   15.9370 C.3    44  LYS44       0.0206
      8  CE        -9.8950  -17.4810   15.3260 C.3    44  LYS44       0.1093
      9  NZ        -8.8570  -16.4220   15.6040 N.3    44  LYS44      -0.1314
     10  N        -13.4120  -15.9140   13.5220 N.am   45  SER45      -0.1952
     11  CA       -13.2960  -15.8280   12.0670 C.3    45  SER45       0.1924
     12  C        -13.0560  -17.2460   11.5800 C.2    45  SER45       0.2314
     13  O        -12.1350  -17.9370   12.0890 O.2    45  SER45      -0.2863
     14  CB       -12.0910  -14.9380   11.6740 C.3    45  SER45       0.2116
     15  OG       -12.3540  -13.5710   11.8970 O.3    45  SER45      -0.2180
     16  N         -8.9780  -25.3520   10.9310 N.3    51  ARG51      -0.1245
     17  CA        -7.5690  -25.1370   11.0600 C.3    51  ARG51       0.1563
     18  C         -7.1660  -25.3100   12.5190 C.2    51  ARG51       0.2260
     19  O         -7.8680  -24.8660   13.4290 O.2    51  ARG51      -0.2867
     20  CB        -7.1610  -23.7100   10.6540 C.3    51  ARG51       0.0307
     21  CG        -7.4690  -23.3600    9.2230 C.3    51  ARG51       0.0489
     22  CD        -7.3330  -21.8600    8.9370 C.3    51  ARG51       0.2205
     23  NE        -6.0400  -21.2970    9.3950 N.pl3  51  ARG51      -0.0865
     24  CZ        -4.9310  -21.2060    8.6560 C.cat  51  ARG51       0.5346
     25  NH1       -4.9040  -21.6570    7.4050 N.pl3  51  ARG51       0.1354
     26  NH2       -3.8420  -20.6430    9.1600 N.pl3  51  ARG51       0.1354
     27  N         -1.5650  -21.7740   14.5940 N.3    54  ASN54      -0.1240
     28  CA        -0.1190  -21.7740   14.8160 C.3    54  ASN54       0.1653
     29  C          0.3050  -22.5210   16.0580 C.2    54  ASN54       0.2266
     30  O         -0.5120  -22.7960   16.9600 O.2    54  ASN54      -0.2867
     31  CB         0.3810  -20.3120   14.8600 C.3    54  ASN54       0.1155
     32  CG         0.3110  -19.6490   13.5140 C.2    54  ASN54       0.2627
     33  OD1        0.1250  -20.3230   12.4810 O.2    54  ASN54      -0.2716
     34  ND2        0.4420  -18.3270   13.4950 N.am   54  ASN54      -0.0877
     35  N         -0.7710  -11.7300   19.9660 N.3    68  ASN68      -0.1225
     36  CA        -1.2010  -13.0090   19.4970 C.3    68  ASN68       0.1785
     37  C         -0.7750  -13.2520   18.0640 C.2    68  ASN68       0.2598
     38  O         -0.7430  -12.3350   17.2330 O.2    68  ASN68      -0.2718
     39  CB        -2.7370  -13.1910   19.6130 C.3    68  ASN68       0.1169
     40  CG        -3.4820  -12.6630   18.3990 C.2    68  ASN68       0.2627
     41  OD1       -3.5720  -13.3200   17.3620 O.2    68  ASN68      -0.2716
     42  ND2       -3.9830  -11.4400   18.5090 N.am   68  ASN68      -0.0877
     43  N         -0.5040  -14.5360   17.7810 N.am   69  SER69      -0.1938
     44  CA        -0.3660  -14.9870   16.4290 C.3    69  SER69       0.2055
     45  C         -1.0840  -16.3140   16.4370 C.2    69  SER69       0.2643
     46  O         -0.4440  -17.3900   16.2720 O.2    69  SER69      -0.2714
     47  CB         1.1280  -15.1720   16.0430 C.3    69  SER69       0.2130
     48  OG         1.2270  -15.5610   14.6530 O.3    69  SER69      -0.2179
     49  N         -2.4120  -16.2440   16.5790 N.am   70  MET70      -0.1962
     50  CA        -3.1750  -17.4810   16.7200 C.3    70  MET70       0.1736
     51  C         -3.0640  -18.3060   15.4350 C.2    70  MET70       0.2617
     52  O         -3.0290  -19.5550   15.4770 O.2    70  MET70      -0.2715
     53  CB        -4.6590  -17.2120   17.0300 C.3    70  MET70       0.0427
     54  CG        -4.8970  -16.2580   18.1940 C.3    70  MET70       0.0599
     55  SD        -4.3080  -16.9910   19.7090 S.3    70  MET70      -0.1393
     56  CE        -5.4070  -18.3720   19.9220 C.3    70  MET70       0.0692
     57  N         -3.1200  -17.6470   14.2880 N.am   71  GLY71      -0.1940
     58  CA        -3.1040  -18.3650   12.9710 C.3    71  GLY71       0.2014
     59  C         -4.4610  -18.8740   12.4750 C.2    71  GLY71       0.2638
     60  O         -4.5650  -19.8970   11.7910 O.2    71  GLY71      -0.2714
     61  N         -5.5160  -18.1820   12.8770 N.am   72  LEU72      -0.1977
     62  CA        -6.8690  -18.5280   12.5060 C.3    72  LEU72       0.1596
     63  C         -7.2710  -19.9790   12.8310 C.2    72  LEU72       0.2287
     64  O         -7.9260  -20.6730   12.0310 O.2    72  LEU72      -0.2864
     65  CB        -6.9850  -18.2330   11.0040 C.3    72  LEU72       0.0297
     66  CG        -8.2890  -17.9230   10.3080 C.3    72  LEU72       0.0022
     67  CD1       -9.1830  -16.9560   11.0470 C.3    72  LEU72       0.0001
     68  CD2       -7.9630  -17.3730    8.8930 C.3    72  LEU72       0.0001
     69  N        -13.2920  -15.2560    7.3110 N.3   100  SER100     -0.1217
     70  CA       -11.9620  -14.8480    7.0130 C.3   100  SER100      0.1889
     71  C        -11.3000  -15.8510    6.0720 C.2   100  SER100      0.2288
     72  O        -10.3410  -16.4420    6.4110 O.2   100  SER100     -0.2866
     73  CB       -11.1670  -14.7050    8.3060 C.3   100  SER100      0.2089
     74  OG        -9.9110  -14.1370    8.1000 O.3   100  SER100     -0.2183
     75  N         -9.0490  -17.2210    2.9780 N.3   102  LEU102     -0.1245
     76  CA        -7.7070  -16.9120    2.5790 C.3   102  LEU102      0.1561
     77  C         -7.5620  -16.4110    1.1270 C.2   102  LEU102      0.2260
     78  O         -6.5020  -16.0020    0.7040 O.2   102  LEU102     -0.2867
     79  CB        -6.8140  -18.0910    2.8860 C.3   102  LEU102      0.0270
     80  CG        -6.8420  -18.5060    4.3670 C.3   102  LEU102      0.0019
     81  CD1       -6.1440  -19.8010    4.6340 C.3   102  LEU102      0.0001
     82  CD2       -6.2380  -17.4620    5.2250 C.3   102  LEU102      0.0001
     83  N        -13.7660  -10.2600    7.5730 N.3   128  ASN128     -0.1240
     84  CA       -12.5360   -9.8420    8.1350 C.3   128  ASN128      0.1653
     85  C        -11.5640   -9.4860    7.0360 C.2   128  ASN128      0.2266
     86  O        -11.0290  -10.3700    6.3730 O.2   128  ASN128     -0.2867
     87  CB       -11.9810  -10.9490    8.9970 C.3   128  ASN128      0.1155
     88  CG       -10.6690  -10.5940    9.6980 C.2   128  ASN128      0.2627
     89  OD1      -10.0620   -9.5670    9.5010 O.2   128  ASN128     -0.2716
     90  ND2      -10.2380  -11.5020   10.5450 N.am  128  ASN128     -0.0877
     91  N         -8.7170   -8.2210    7.4880 N.3   130  SER130     -0.1202
     92  CA        -7.4770   -8.0290    8.2030 C.3   130  SER130      0.2020
     93  C         -6.4450   -9.1580    8.1550 C.2   130  SER130      0.2619
     94  O         -5.5580   -9.1280    8.9940 O.2   130  SER130     -0.2717
     95  CB        -7.6820   -7.5990    9.6710 C.3   130  SER130      0.2103
     96  OG        -8.8310   -6.7980    9.9110 O.3   130  SER130     -0.2182
     97  N         -6.5290  -10.1130    7.2270 N.am  131  CYS131     -0.1956
     98  CA        -5.5310  -11.1790    7.0700 C.3   131  CYS131      0.1828
     99  C         -4.2040  -10.8150    6.3960 C.2   131  CYS131      0.2467
    100  O         -4.2510  -10.0650    5.4650 O.2   131  CYS131     -0.2730
    101  CB        -6.1080  -12.2600    6.2210 C.3   131  CYS131      0.0996
    102  SG        -7.5630  -12.9860    6.9680 S.3   131  CYS131     -0.0797
    103  N         -2.9940  -11.4250    6.8380 N.am  132  PRO132     -0.2726
    104  CA        -1.7520  -10.9150    6.1420 C.3   132  PRO132      0.1402
    105  C         -0.9180  -11.4630    4.8430 C.2   132  PRO132      0.2269
    106  O         -0.9100  -10.8100    3.8290 O.2   132  PRO132     -0.2865
    107  CB        -0.7360  -10.8460    7.2900 C.3   132  PRO132      0.0296
    108  CG        -1.3620  -11.5090    8.4980 C.3   132  PRO132      0.0237
    109  CD        -2.4840  -12.3080    7.9810 C.3   132  PRO132      0.0939
    110  N         -9.0820   -4.0710   14.1690 N.3   195  ASN195     -0.1225
    111  CA        -8.3190   -5.3000   14.4500 C.3   195  ASN195      0.1785
    112  C         -7.0380   -5.0190   15.2540 C.2   195  ASN195      0.2597
    113  O         -6.6960   -3.8580   15.4890 O.2   195  ASN195     -0.2718
    114  CB        -8.0650   -6.0970   13.1310 C.3   195  ASN195      0.1169
    115  CG        -8.0570   -7.6060   13.3370 C.2   195  ASN195      0.2627
    116  OD1       -7.3850   -8.1570   14.2590 O.2   195  ASN195     -0.2716
    117  ND2       -8.8080   -8.2940   12.5040 N.am  195  ASN195     -0.0877
    118  N         -6.3610   -6.0660   15.7280 N.am  196  SER196     -0.1952
    119  CA        -5.0670   -5.9320   16.4330 C.3   196  SER196      0.1924
    120  C         -4.0220   -5.0940   15.6480 C.2   196  SER196      0.2314
    121  O         -4.0000   -5.0320   14.3990 O.2   196  SER196     -0.2863
    122  CB        -4.5420   -7.3140   16.8810 C.3   196  SER196      0.2116
    123  OG        -4.2240   -8.0890   15.7570 O.3   196  SER196     -0.2180
    124  N          6.2300  -16.9690   14.1340 N.3   215  LYS215     -0.1245
    125  CA         6.6970  -15.7640   13.4660 C.3   215  LYS215      0.1561
    126  C          7.7930  -15.0110   14.2310 C.2   215  LYS215      0.2260
    127  O          7.7580  -13.8220   14.2910 O.2   215  LYS215     -0.2867
    128  CB         5.4820  -14.8650   13.2030 C.3   215  LYS215      0.0271
    129  CG         4.6580  -15.3050   12.0080 C.3   215  LYS215      0.0035
    130  CD         3.3350  -14.5290   11.7600 C.3   215  LYS215      0.0206
    131  CE         3.2090  -13.0350   12.1770 C.3   215  LYS215      0.1093
    132  NZ         2.4300  -13.0390   13.4960 N.3   215  LYS215     -0.1314
    133  N         -0.0140   -9.6730   16.5820 N.3   220  GLY220     -0.1225
    134  CA        -0.8920   -8.5430   16.6770 C.3   220  GLY220      0.1811
    135  C         -1.1080   -8.0850   18.1110 C.2   220  GLY220      0.2280
    136  O         -1.2420   -8.8810   19.0150 O.2   220  GLY220     -0.2866
@<TRIPOS>BOND
     1    78    77    2
     2    77    76    1
     3    76    79    1
     4    76    75    1
     5    79    80    1
     6   106   105    2
     7    80    81    1
     8    80    82    1
     9   105   104    1
    10   100    99    2
    11    71    72    2
    12    71    70    1
    13   104   103    1
    14   104   107    1
    15   101   102    1
    16   101    98    1
    17    86    85    2
    18    99   103   am
    19    99    98    1
    20   103   109    1
    21    70    69    1
    22    70    73    1
    23    85    84    1
    24    98    97    1
    25    97    93   am
    26   107   108    1
    27    25    24    1
    28    91    92    1
    29    83    84    1
    30   109   108    1
    31    74    73    1
    32    84    87    1
    33    93    92    1
    34    93    94    2
    35    92    95    1
    36    24    26    1
    37    24    23    2
    38    68    66    1
    39    22    21    1
    40    22    23    1
    41    87    88    1
    42    21    20    1
    43    89    88    2
    44    95    96    1
    45    88    90   am
    46    66    65    1
    47    66    67    1
    48    20    17    1
    49    16    17    1
    50    65    62    1
    51    17    18    1
    52    12    11    1
    53    12    13    2
    54    14    15    1
    55    14    11    1
    56   130   129    1
    57   130   131    1
    58    60    59    2
    59   129   128    1
    60    64    63    2
    61    11    10    1
    62   131   132    1
    63    59    61   am
    64    59    58    1
    65    33    32    2
    66   117   115   am
    67    62    63    1
    68    62    61    1
    69    18    19    2
    70    58    57    1
    71   114   115    1
    72   114   111    1
    73   128   125    1
    74   115   116    2
    75   125   124    1
    76   125   126    1
    77     4     3    2
    78    34    32   am
    79    32    31    1
    80    10     3   am
    81     3     2    1
    82   110   111    1
    83   126   127    2
    84    57    51   am
    85   121   120    2
    86   111   112    1
    87    27    28    1
    88    48    47    1
    89    28    31    1
    90    28    29    1
    91   112   113    2
    92   112   118   am
    93     8     9    1
    94     8     7    1
    95    51    52    2
    96    51    50    1
    97     6     7    1
    98     6     5    1
    99     2     5    1
   100     2     1    1
   101   120   119    1
   102   118   119    1
   103   123   122    1
   104    47    44    1
   105    29    30    2
   106    46    45    2
   107    44    45    1
   108    44    43    1
   109   119   122    1
   110    45    49   am
   111    49    50    1
   112   133   134    1
   113   134   135    1
   114    50    53    1
   115    53    54    1
   116    38    37    2
   117    41    40    2
   118    43    37   am
   119    37    36    1
   120   135   136    2
   121    54    55    1
   122    40    42   am
   123    40    39    1
   124    36    39    1
   125    36    35    1
   126    55    56    1
