@<TRIPOS>MOLECULE
tmp/3w3sA00.pdb
 181 166 0 0 0
SMALL
GASTEIGER

@<TRIPOS>ATOM
      1  N        -56.5490   29.7160  107.8000 N.3   309  ALA309     -0.1245
      2  CA       -55.5280   30.0850  106.8160 C.3   309  ALA309      0.1562
      3  C        -56.0650   30.8520  105.6030 C.2   309  ALA309      0.2260
      4  O        -55.4950   31.8580  105.1800 O.2   309  ALA309     -0.2867
      5  CB       -54.7610   28.8480  106.3630 C.3   309  ALA309      0.0290
      6  N        -56.1460   29.7810  102.5510 N.3   311  CYS311     -0.1235
      7  CA       -55.4440   29.4000  101.3200 C.3   311  CYS311      0.1677
      8  C        -55.3870   27.8910  101.0710 C.2   311  CYS311      0.2270
      9  O        -54.8750   27.4320  100.0510 O.2   311  CYS311     -0.2867
     10  CB       -54.0170   29.9230  101.3930 C.3   311  CYS311      0.0956
     11  SG       -53.2230   29.4540  102.9400 S.3   311  CYS311     -0.0801
     12  N        -60.9250   32.6060  113.1460 N.3   341  ARG341     -0.1245
     13  CA       -59.8700   32.3260  114.1000 C.3   341  ARG341      0.1563
     14  C        -60.5200   32.3510  115.4530 C.2   341  ARG341      0.2260
     15  O        -61.2250   33.2920  115.7860 O.2   341  ARG341     -0.2867
     16  CB       -58.7710   33.3890  114.0440 C.3   341  ARG341      0.0307
     17  CG       -58.0340   33.4650  112.7130 C.3   341  ARG341      0.0489
     18  CD       -56.9350   32.4030  112.5860 C.3   341  ARG341      0.2205
     19  NE       -56.3700   32.3860  111.2420 N.pl3 341  ARG341     -0.0865
     20  CZ       -55.5430   33.3120  110.7560 C.cat 341  ARG341      0.5346
     21  NH1      -55.1660   34.3530  111.5000 N.pl3 341  ARG341      0.1354
     22  NH2      -55.0920   33.1950  109.5100 N.pl3 341  ARG341      0.1354
     23  N        -60.0140   33.1980  118.9120 N.3   343  GLU343     -0.1245
     24  CA       -59.2050   33.7610  119.9780 C.3   343  GLU343      0.1567
     25  C        -60.1580   33.7120  121.1590 C.2   343  GLU343      0.2260
     26  O        -61.3660   33.9510  120.9970 O.2   343  GLU343     -0.2867
     27  CB       -58.7130   35.1890  119.6470 C.3   343  GLU343      0.0388
     28  CG       -57.6490   35.2770  118.5060 C.3   343  GLU343      0.1160
     29  CD       -58.1970   35.7830  117.1520 C.2   343  GLU343      0.3649
     30  OE1      -59.3270   36.3170  117.1300 O.co2 343  GLU343     -0.2457
     31  OE2      -57.4980   35.6500  116.1120 O.co2 343  GLU343     -0.2457
     32  N        -60.9190   45.3640  115.5690 N.3   351  GLU351     -0.1231
     33  CA       -59.6490   45.1270  114.9270 C.3   351  GLU351      0.1699
     34  C        -59.2090   43.6620  115.0970 C.2   351  GLU351      0.2592
     35  O        -58.3930   43.1710  114.3240 O.2   351  GLU351     -0.2718
     36  CB       -58.6040   46.1150  115.4480 C.3   351  GLU351      0.0402
     37  CG       -58.1510   45.8690  116.8750 C.3   351  GLU351      0.1161
     38  CD       -59.0630   46.4560  117.9410 C.2   351  GLU351      0.3649
     39  OE1      -59.7600   47.4600  117.6690 O.co2 351  GLU351     -0.2457
     40  OE2      -59.0660   45.9130  119.0720 O.co2 351  GLU351     -0.2457
     41  N        -59.7420   42.9610  116.0970 N.am  352  ARG352     -0.1966
     42  CA       -59.4880   41.5320  116.1970 C.3   352  ARG352      0.1729
     43  C        -60.7650   40.7560  116.3890 C.2   352  ARG352      0.2616
     44  O        -61.3090   40.7380  117.4790 O.2   352  ARG352     -0.2715
     45  CB       -58.5530   41.2490  117.3730 C.3   352  ARG352      0.0348
     46  CG       -57.8890   39.8740  117.3510 C.3   352  ARG352      0.0492
     47  CD       -56.7580   39.7730  118.3800 C.3   352  ARG352      0.2205
     48  NE       -56.3610   38.3800  118.5940 N.pl3 352  ARG352     -0.0865
     49  CZ       -55.6700   37.9380  119.6410 C.cat 352  ARG352      0.5346
     50  NH1      -55.2820   38.7830  120.5880 N.pl3 352  ARG352      0.1354
     51  NH2      -55.3730   36.6470  119.7400 N.pl3 352  ARG352      0.1354
     52  N        -61.1820   40.0260  115.3610 N.am  353  VAL353     -0.1977
     53  CA       -62.4900   39.3570  115.3720 C.3   353  VAL353      0.1596
     54  C        -62.3320   37.9040  115.0150 C.2   353  VAL353      0.2287
     55  O        -61.2990   37.5020  114.4800 O.2   353  VAL353     -0.2864
     56  CB       -63.5090   39.9850  114.3880 C.3   353  VAL353      0.0276
     57  CG1      -63.8270   41.4070  114.7860 C.3   353  VAL353      0.0022
     58  CG2      -62.9740   39.9520  112.9760 C.3   353  VAL353      0.0022
     59  N        -63.8040   37.0140  109.9640 N.3   356  PHE356     -0.1241
     60  CA       -63.2980   38.1410  109.1890 C.3   356  PHE356      0.1605
     61  C        -63.2940   37.8760  107.6900 C.2   356  PHE356      0.2264
     62  O        -63.4000   36.7210  107.2590 O.2   356  PHE356     -0.2867
     63  CB       -61.9090   38.5550  109.6730 C.3   356  PHE356      0.0534
     64  CG       -60.9050   37.4270  109.6930 C.ar  356  PHE356     -0.0203
     65  CD1      -60.1560   37.1330  108.5760 C.ar  356  PHE356     -0.0042
     66  CD2      -60.6970   36.6820  110.8410 C.ar  356  PHE356     -0.0042
     67  CE1      -59.2340   36.1160  108.5990 C.ar  356  PHE356     -0.0003
     68  CE2      -59.7830   35.6540  110.8610 C.ar  356  PHE356     -0.0003
     69  CZ       -59.0550   35.3690  109.7420 C.ar  356  PHE356     -0.0000
     70  N        -61.1750   38.3210  104.1600 N.3   358  ARG358     -0.1245
     71  CA       -59.9420   38.6920  103.4940 C.3   358  ARG358      0.1563
     72  C        -59.8350   38.1890  102.0680 C.2   358  ARG358      0.2260
     73  O        -60.4080   37.1530  101.7030 O.2   358  ARG358     -0.2867
     74  CB       -58.7340   38.2310  104.2920 C.3   358  ARG358      0.0307
     75  CG       -58.2270   36.8580  103.9280 C.3   358  ARG358      0.0489
     76  CD       -57.0650   36.4640  104.7960 C.3   358  ARG358      0.2205
     77  NE       -57.1980   35.0890  105.2630 N.pl3 358  ARG358     -0.0865
     78  CZ       -56.7160   34.6510  106.4190 C.cat 358  ARG358      0.5346
     79  NH1      -56.0890   35.4740  107.2360 N.pl3 358  ARG358      0.1354
     80  NH2      -56.8530   33.3980  106.7720 N.pl3 358  ARG358      0.1354
     81  N        -57.4590   36.4370   99.5770 N.3   360  GLU360     -0.1245
     82  CA       -56.3330   35.5220   99.6990 C.3   360  GLU360      0.1567
     83  C        -55.7410   35.3770   98.3180 C.2   360  GLU360      0.2260
     84  O        -56.4180   34.9560   97.4000 O.2   360  GLU360     -0.2867
     85  CB       -56.7810   34.1570  100.2630 C.3   360  GLU360      0.0388
     86  CG       -55.6870   33.0910  100.4790 C.3   360  GLU360      0.1160
     87  CD       -54.8130   33.3480  101.7230 C.2   360  GLU360      0.3649
     88  OE1      -55.2150   34.2220  102.5250 O.co2 360  GLU360     -0.2457
     89  OE2      -53.7380   32.6800  101.9060 O.co2 360  GLU360     -0.2457
     90  N        -47.3840   31.4420  110.0600 N.3   401  PHE401     -0.1241
     91  CA       -48.6830   30.8840  110.4600 C.3   401  PHE401      0.1605
     92  C        -48.6510   29.3390  110.5650 C.2   401  PHE401      0.2264
     93  O        -49.1360   28.7520  111.5420 O.2   401  PHE401     -0.2867
     94  CB       -49.8110   31.3840  109.5150 C.3   401  PHE401      0.0534
     95  CG       -49.6180   31.0280  108.0420 C.ar  401  PHE401     -0.0203
     96  CD1      -49.8640   29.7590  107.5670 C.ar  401  PHE401     -0.0042
     97  CD2      -49.2510   31.9720  107.1370 C.ar  401  PHE401     -0.0042
     98  CE1      -49.7050   29.4500  106.2420 C.ar  401  PHE401     -0.0003
     99  CE2      -49.0980   31.6390  105.8170 C.ar  401  PHE401     -0.0003
    100  CZ       -49.3240   30.3830  105.3850 C.ar  401  PHE401     -0.0000
    101  N        -46.4890   27.8680  113.3080 N.3   404  GLU404     -0.1245
    102  CA       -46.8040   28.2560  114.7070 C.3   404  GLU404      0.1567
    103  C        -46.5800   27.1700  115.8190 C.2   404  GLU404      0.2260
    104  O        -46.7520   27.4590  117.0040 O.2   404  GLU404     -0.2867
    105  CB       -48.1520   29.0070  114.8310 C.3   404  GLU404      0.0388
    106  CG       -48.0480   30.5500  114.5680 C.3   404  GLU404      0.1160
    107  CD       -49.3650   31.3510  114.8240 C.2   404  GLU404      0.3649
    108  OE1      -49.5310   31.9190  115.9480 O.co2 404  GLU404     -0.2457
    109  OE2      -50.2180   31.4290  113.8910 O.co2 404  GLU404     -0.2457
    110  N        -45.4510   41.5070  107.2440 N.3   422  GLU422     -0.1245
    111  CA       -46.7500   42.0640  107.5620 C.3   422  GLU422      0.1567
    112  C        -46.8530   43.5200  107.1240 C.2   422  GLU422      0.2260
    113  O        -45.9050   44.3070  107.2910 O.2   422  GLU422     -0.2867
    114  CB       -47.0280   41.9380  109.0480 C.3   422  GLU422      0.0388
    115  CG       -47.5490   40.5900  109.4460 C.3   422  GLU422      0.1160
    116  CD       -47.4330   40.3940  110.9300 C.2   422  GLU422      0.3649
    117  OE1      -47.2810   41.4170  111.6350 O.co2 422  GLU422     -0.2457
    118  OE2      -47.4680   39.2300  111.3900 O.co2 422  GLU422     -0.2457
    119  N        -52.0520   44.3820  111.5950 N.3   441  SER441     -0.1202
    120  CA       -51.6400   43.8400  110.3160 C.3   441  SER441      0.2020
    121  C        -52.8270   43.7610  109.3520 C.2   441  SER441      0.2619
    122  O        -53.7950   43.0200  109.5810 O.2   441  SER441     -0.2717
    123  CB       -51.0090   42.4700  110.5280 C.3   441  SER441      0.2103
    124  OG       -50.6950   41.8430  109.2990 O.3   441  SER441     -0.2182
    125  N        -52.7640   44.5240  108.2660 N.am  442  VAL442     -0.1965
    126  CA       -53.8670   44.4990  107.3120 C.3   442  VAL442      0.1727
    127  C        -53.5890   43.5180  106.1930 C.2   442  VAL442      0.2617
    128  O        -54.3970   43.3570  105.2830 O.2   442  VAL442     -0.2715
    129  CB       -54.2370   45.8940  106.7540 C.3   442  VAL442      0.0290
    130  CG1      -54.7620   46.7540  107.8560 C.3   442  VAL442      0.0023
    131  CG2      -53.0560   46.5500  106.0900 C.3   442  VAL442      0.0023
    132  N        -52.4310   42.8760  106.2660 N.am  443  GLY443     -0.1940
    133  CA       -52.1010   41.8220  105.3360 C.3   443  GLY443      0.2014
    134  C        -50.7930   41.1600  105.6910 C.2   443  GLY443      0.2639
    135  O        -49.9550   41.7630  106.3610 O.2   443  GLY443     -0.2714
    136  N        -50.6190   39.9210  105.2330 N.am  444  SER444     -0.1949
    137  CA       -49.3830   39.1750  105.4330 C.3   444  SER444      0.1924
    138  C        -48.8970   38.6540  104.0980 C.2   444  SER444      0.2314
    139  O        -49.6850   38.1690  103.2980 O.2   444  SER444     -0.2863
    140  CB       -49.6200   37.9950  106.3530 C.3   444  SER444      0.2116
    141  OG       -50.3600   37.0120  105.6560 O.3   444  SER444     -0.2180
    142  N        -46.4220   35.9800  102.3510 N.3   446  ASN446     -0.1240
    143  CA       -45.5930   34.8090  102.6290 C.3   446  ASN446      0.1653
    144  C        -45.1840   33.9620  101.4310 C.2   446  ASN446      0.2266
    145  O        -46.0270   33.5260  100.6490 O.2   446  ASN446     -0.2867
    146  CB       -46.2600   33.9000  103.6560 C.3   446  ASN446      0.1155
    147  CG       -47.3190   34.6090  104.4510 C.2   446  ASN446      0.2627
    148  OD1      -47.0620   35.6180  105.0920 O.2   446  ASN446     -0.2716
    149  ND2      -48.5290   34.0880  104.4040 N.am  446  ASN446     -0.0877
    150  N        -48.5100   32.6370   99.6870 N.3   470  CYS470     -0.1235
    151  CA       -49.8000   33.3060   99.6970 C.3   470  CYS470      0.1677
    152  C        -49.6300   34.7030  100.2530 C.2   470  CYS470      0.2270
    153  O        -48.7270   34.9680  101.0380 O.2   470  CYS470     -0.2867
    154  CB       -50.8180   32.5570  100.5510 C.3   470  CYS470      0.0956
    155  SG       -50.4010   32.7710  102.2450 S.3   470  CYS470     -0.0801
    156  N        -52.4210   37.6310  101.9720 N.3   472  GLY472     -0.1225
    157  CA       -53.7790   38.0730  102.1050 C.3   472  GLY472      0.1811
    158  C        -54.0200   39.3620  102.8630 C.2   472  GLY472      0.2280
    159  O        -53.3430   39.7220  103.8320 O.2   472  GLY472     -0.2866
    160  N        -56.6440   41.3840  105.0690 N.3   474  GLY474     -0.1225
    161  CA       -57.8540   41.4400  105.8770 C.3   474  GLY474      0.1811
    162  C        -58.5770   42.7120  105.5270 C.2   474  GLY474      0.2280
    163  O        -58.1610   43.8240  105.8800 O.2   474  GLY474     -0.2866
    164  N        -61.6220   43.4200  106.4490 N.3   476  THR476     -0.1203
    165  CA       -62.2120   43.8560  107.6940 C.3   476  THR476      0.1994
    166  C        -61.2510   44.8520  108.3090 C.2   476  THR476      0.2617
    167  O        -61.6440   45.9470  108.7050 O.2   476  THR476     -0.2717
    168  CB       -62.4130   42.6650  108.6620 C.3   476  THR476      0.1784
    169  OG1      -63.2760   41.6890  108.0610 O.3   476  THR476     -0.2211
    170  CG2      -63.0090   43.1290  110.0020 C.3   476  THR476      0.0376
    171  N        -59.9800   44.4640  108.3570 N.am  477  ARG477     -0.1979
    172  CA       -58.9260   45.2680  108.9720 C.3   477  ARG477      0.1597
    173  C        -58.6670   46.5900  108.2580 C.2   477  ARG477      0.2287
    174  O        -58.6320   47.6530  108.8930 O.2   477  ARG477     -0.2864
    175  CB       -57.6300   44.4660  109.0340 C.3   477  ARG477      0.0334
    176  CG       -57.6300   43.3650  110.0670 C.3   477  ARG477      0.0492
    177  CD       -57.0300   43.8540  111.3550 C.3   477  ARG477      0.2205
    178  NE       -56.9770   42.7940  112.3530 N.pl3 477  ARG477     -0.0865
    179  CZ       -55.9890   41.9200  112.4570 C.cat 477  ARG477      0.5346
    180  NH1      -54.9640   41.9680  111.6210 N.pl3 477  ARG477      0.1354
    181  NH2      -56.0360   40.9900  113.3930 N.pl3 477  ARG477      0.1354
@<TRIPOS>BOND
     1    84    83    2
     2    83    82    1
     3    81    82    1
     4   150   151    1
     5   151   152    1
     6   151   154    1
     7    82    85    1
     8     9     8    2
     9   152   153    2
    10    85    86    1
    11    86    87    1
    12   154   155    1
    13   145   144    2
    14     8     7    1
    15     7    10    1
    16     7     6    1
    17    10    11    1
    18   144   143    1
    19    73    72    2
    20    87    89   ar
    21    87    88   ar
    22   156   157    1
    23    72    71    1
    24   157   158    1
    25   142   143    1
    26   143   146    1
    27   158   159    2
    28   139   138    2
    29    71    70    1
    30    71    74    1
    31   146   147    1
    32    75    74    1
    33    75    76    1
    34   138   137    1
    35   149   147   am
    36   147   148    2
    37    76    77    1
    38   160   161    1
    39     4     3    2
    40   136   137    1
    41   136   134   am
    42    77    78    2
    43   128   127    2
    44   133   134    1
    45   133   132    1
    46   100    99   ar
    47   100    98   ar
    48   137   140    1
    49   162   161    1
    50   162   163    2
    51     3     2    1
    52   141   140    1
    53   134   135    2
    54    99    97   ar
    55   131   129    1
    56   127   132   am
    57   127   126    1
    58    98    96   ar
    59     5     2    1
    60    78    80    1
    61    78    79    1
    62   164   165    1
    63   129   126    1
    64   129   130    1
    65     2     1    1
    66   112   113    2
    67   112   111    1
    68    97    95   ar
    69   110   111    1
    70    62    61    2
    71   126   125    1
    72   111   114    1
    73    96    95   ar
    74    61    60    1
    75   165   166    1
    76   165   168    1
    77    95    94    1
    78   169   168    1
    79   173   174    2
    80   173   172    1
    81   125   121   am
    82   166   171   am
    83   166   167    2
    84   171   172    1
    85    65    67   ar
    86    65    64   ar
    87    67    69   ar
    88   168   170    1
    89   172   175    1
    90   175   176    1
    91   114   115    1
    92    60    63    1
    93    60    59    1
    94   124   123    1
    95   121   122    2
    96   121   120    1
    97   115   116    1
    98    22    20    1
    99    94    91    1
   100    63    64    1
   101    64    66   ar
   102    69    68   ar
   103    90    91    1
   104   176   177    1
   105   120   123    1
   106   120   119    1
   107    91    92    1
   108    92    93    2
   109    20    19    2
   110    20    21    1
   111    66    68   ar
   112   116   118   ar
   113   116   117   ar
   114    19    18    1
   115   177   178    1
   116   180   179    1
   117   178   179    2
   118   179   181    1
   119    18    17    1
   120    17    16    1
   121    58    56    1
   122    12    13    1
   123   101   102    1
   124   109   107   ar
   125    16    13    1
   126    13    14    1
   127    35    34    2
   128    56    57    1
   129    56    53    1
   130    55    54    2
   131   106   107    1
   132   106   105    1
   133   102   105    1
   134   102   103    1
   135   107   108   ar
   136    33    34    1
   137    33    36    1
   138    33    32    1
   139    54    53    1
   140    34    41   am
   141    52    53    1
   142    52    43   am
   143    36    37    1
   144    14    15    2
   145   103   104    2
   146    41    42    1
   147    31    29   ar
   148    42    43    1
   149    42    45    1
   150    43    44    2
   151    37    38    1
   152    30    29   ar
   153    29    28    1
   154    46    45    1
   155    46    47    1
   156    39    38   ar
   157    38    40   ar
   158    47    48    1
   159    28    27    1
   160    48    49    2
   161    23    24    1
   162    49    51    1
   163    49    50    1
   164    27    24    1
   165    24    25    1
   166    26    25    2
