@<TRIPOS>MOLECULE
tmp/3w4iA01.pdb
 88 81 0 0 0
SMALL
GASTEIGER

@<TRIPOS>ATOM
      1  N         39.6340   26.0100   13.0750 N.3    49  ALA49      -0.1231
      2  CA        39.6600   27.4540   12.7870 C.3    49  ALA49       0.1694
      3  C         40.3060   27.7290   11.4430 C.2    49  ALA49       0.2593
      4  O         39.8230   28.5410   10.6770 O.2    49  ALA49      -0.2718
      5  CB        40.3640   28.2250   13.8960 C.3    49  ALA49       0.0304
      6  N         41.3980   27.0520   11.1360 N.am   50  GLY50      -0.1942
      7  CA        41.9280   27.1100    9.7930 C.3    50  GLY50       0.2014
      8  C         43.2680   27.8000    9.7440 C.2    50  GLY50       0.2638
      9  O         43.7780   28.1180    8.6550 O.2    50  GLY50      -0.2714
     10  N         43.8710   28.0260   10.9120 N.am   51  LEU51      -0.1977
     11  CA        45.1780   28.6880   10.9310 C.3    51  LEU51       0.1596
     12  C         46.2480   27.8590   10.2510 C.2    51  LEU51       0.2287
     13  O         46.3750   26.6590   10.5060 O.2    51  LEU51      -0.2864
     14  CB        45.6080   28.9720   12.3630 C.3    51  LEU51       0.0297
     15  CG        46.8690   29.8150   12.5620 C.3    51  LEU51       0.0022
     16  CD1       46.7380   31.2350   11.9040 C.3    51  LEU51       0.0001
     17  CD2       47.2090   29.9490   14.0520 C.3    51  LEU51       0.0001
     18  N         49.6910   26.7120   10.4310 N.3    53  GLN53      -0.1245
     19  CA        50.8780   26.6380   11.2540 C.3    53  GLN53       0.1566
     20  C         51.1840   25.1960   11.5980 C.2    53  GLN53       0.2260
     21  O         50.4270   24.5700   12.3210 O.2    53  GLN53      -0.2867
     22  CB        50.6990   27.4320   12.5550 C.3    53  GLN53       0.0367
     23  CG        52.0160   27.6230   13.3390 C.3    53  GLN53       0.0905
     24  CD        51.8430   28.4750   14.5710 C.2    53  GLN53       0.2608
     25  OE1       51.3990   29.6350   14.4790 O.2    53  GLN53      -0.2717
     26  NE2       52.1750   27.9080   15.7400 N.am   53  GLN53      -0.0878
     27  N         48.5430   32.2080   20.1710 N.3   215  LEU215     -0.1245
     28  CA        48.7020   30.8140   20.5790 C.3   215  LEU215      0.1561
     29  C         49.6580   30.7160   21.7700 C.2   215  LEU215      0.2260
     30  O         50.7450   31.2930   21.7490 O.2   215  LEU215     -0.2867
     31  CB        49.1990   29.9260   19.4280 C.3   215  LEU215      0.0270
     32  CG        48.5510   29.9140   18.0260 C.3   215  LEU215      0.0019
     33  CD1       48.7200   28.5260   17.3800 C.3   215  LEU215      0.0001
     34  CD2       47.0730   30.2910   18.0300 C.3   215  LEU215      0.0001
     35  N         48.5670   22.0460   21.6510 N.3   224  TYR224     -0.1241
     36  CA        47.1180   22.2590   21.5440 C.3   224  TYR224      0.1605
     37  C         46.3430   22.0510   22.8390 C.2   224  TYR224      0.2264
     38  O         45.1200   21.9030   22.8130 O.2   224  TYR224     -0.2867
     39  CB        46.4960   21.4170   20.4080 C.3   224  TYR224      0.0534
     40  CG        47.2020   21.5830   19.0880 C.ar  224  TYR224     -0.0201
     41  CD1       47.5010   22.8490   18.6030 C.ar  224  TYR224     -0.0009
     42  CD2       47.5810   20.4770   18.3340 C.ar  224  TYR224     -0.0009
     43  CE1       48.1660   23.0230   17.4090 C.ar  224  TYR224      0.0417
     44  CE2       48.2320   20.6310   17.1200 C.ar  224  TYR224      0.0417
     45  CZ        48.5280   21.9140   16.6670 C.ar  224  TYR224      0.1957
     46  OH        49.1910   22.1240   15.4680 O.3   224  TYR224     -0.2866
     47  N         44.3270   29.1470   23.2230 N.3   228  TYR228     -0.1241
     48  CA        44.5430   29.8620   21.9910 C.3   228  TYR228      0.1605
     49  C         43.2880   30.6220   21.5400 C.2   228  TYR228      0.2264
     50  O         42.1560   30.3010   21.9270 O.2   228  TYR228     -0.2867
     51  CB        45.1380   28.9600   20.9020 C.3   228  TYR228      0.0534
     52  CG        44.2500   27.8510   20.4010 C.ar  228  TYR228     -0.0201
     53  CD1       43.0780   28.1280   19.6650 C.ar  228  TYR228     -0.0009
     54  CD2       44.5700   26.5220   20.6490 C.ar  228  TYR228     -0.0009
     55  CE1       42.2410   27.0880   19.1930 C.ar  228  TYR228      0.0417
     56  CE2       43.7450   25.4820   20.1930 C.ar  228  TYR228      0.0417
     57  CZ        42.5900   25.7790   19.4600 C.ar  228  TYR228      0.1957
     58  OH        41.8200   24.7730   18.9820 O.3   228  TYR228     -0.2866
     59  N         41.8250   32.5530   18.0250 N.3   230  ILE230     -0.1245
     60  CA        42.0410   32.6530   16.6160 C.3   230  ILE230      0.1561
     61  C         40.8560   33.2890   15.8940 C.2   230  ILE230      0.2260
     62  O         39.8940   32.6010   15.5730 O.2   230  ILE230     -0.2867
     63  CB        42.2450   31.2650   16.0150 C.3   230  ILE230      0.0252
     64  CG1       43.4140   30.5310   16.6970 C.3   230  ILE230      0.0019
     65  CG2       42.3860   31.3830   14.5030 C.3   230  ILE230      0.0019
     66  CD1       43.4980   29.0320   16.3220 C.3   230  ILE230      0.0001
     67  N         41.2980   15.2810   16.2130 N.3   283  ARG283     -0.1245
     68  CA        42.5180   15.3500   15.4200 C.3   283  ARG283      0.1563
     69  C         42.9630   13.9200   15.0900 C.2   283  ARG283      0.2260
     70  O         43.0850   13.0930   15.9760 O.2   283  ARG283     -0.2867
     71  CB        43.6160   16.1240   16.1380 C.3   283  ARG283      0.0307
     72  CG        43.2600   17.6040   16.3800 C.3   283  ARG283      0.0489
     73  CD        44.3200   18.2850   17.2550 C.3   283  ARG283      0.2205
     74  NE        43.8860   19.5430   17.8580 N.pl3 283  ARG283     -0.0865
     75  CZ        43.2150   19.6410   19.0160 C.cat 283  ARG283      0.5346
     76  NH1       42.8830   20.8490   19.4710 N.pl3 283  ARG283      0.1354
     77  NH2       42.8570   18.5500   19.7150 N.pl3 283  ARG283      0.1354
     78  N         46.8190   17.7360   14.0140 N.3   313  GLY313     -0.1225
     79  CA        46.3860   19.0960   14.2190 C.3   313  GLY313      0.1811
     80  C         46.7380   20.0470   13.0840 C.2   313  GLY313      0.2280
     81  O         46.7000   21.2750   13.2900 O.2   313  GLY313     -0.2866
     82  N         46.6310   23.1530    7.2180 N.3   317  THR317     -0.1218
     83  CA        47.9950   23.6180    6.9680 C.3   317  THR317      0.1862
     84  C         48.6880   22.8740    5.8480 C.2   317  THR317      0.2287
     85  O         49.4230   23.4920    5.0910 O.2   317  THR317     -0.2866
     86  CB        48.8810   23.4870    8.2440 C.3   317  THR317      0.1770
     87  OG1       48.2840   24.2490    9.2760 O.3   317  THR317     -0.2211
     88  CG2       50.3160   23.9930    7.9990 C.3   317  THR317      0.0375
@<TRIPOS>BOND
     1    85    84    2
     2    84    83    1
     3    83    82    1
     4    83    86    1
     5    88    86    1
     6    86    87    1
     7     9     8    2
     8     8     7    1
     9     8    10   am
    10     7     6    1
    11    12    13    2
    12    12    11    1
    13    18    19    1
    14     4     3    2
    15    10    11    1
    16    11    14    1
    17     6     3   am
    18    19    20    1
    19    19    22    1
    20     3     2    1
    21    20    21    2
    22    16    15    1
    23    14    15    1
    24    22    23    1
    25    15    17    1
    26     2     1    1
    27     2     5    1
    28    80    81    2
    29    80    79    1
    30    23    24    1
    31    78    79    1
    32    25    24    2
    33    65    63    1
    34    24    26   am
    35    69    68    1
    36    69    70    2
    37    68    71    1
    38    68    67    1
    39    46    45    1
    40    62    61    2
    41    61    60    1
    42    63    60    1
    43    63    64    1
    44    71    72    1
    45    66    64    1
    46    72    73    1
    47    60    59    1
    48    45    44   ar
    49    45    43   ar
    50    44    42   ar
    51    73    74    1
    52    33    32    1
    53    43    41   ar
    54    74    75    2
    55    32    34    1
    56    32    31    1
    57    42    40   ar
    58    41    40   ar
    59    58    57    1
    60    75    76    1
    61    75    77    1
    62    40    39    1
    63    55    57   ar
    64    55    53   ar
    65    31    28    1
    66    57    56   ar
    67    53    52   ar
    68    27    28    1
    69    56    54   ar
    70    52    54   ar
    71    52    51    1
    72    39    36    1
    73    28    29    1
    74    51    48    1
    75    49    50    2
    76    49    48    1
    77    36    35    1
    78    36    37    1
    79    30    29    2
    80    48    47    1
    81    38    37    2
