@<TRIPOS>MOLECULE
tmp/3w4jD01.pdb
 140 136 0 0 0
SMALL
GASTEIGER

@<TRIPOS>ATOM
      1  N         62.0150   34.7380   13.4300 N.3    49  ALA49      -0.1231
      2  CA        62.1400   36.1880   13.1080 C.3    49  ALA49       0.1694
      3  C         62.7890   36.4170   11.7460 C.2    49  ALA49       0.2593
      4  O         62.3830   37.2720   10.9790 O.2    49  ALA49      -0.2718
      5  CB        62.9110   36.9230   14.1740 C.3    49  ALA49       0.0304
      6  N         63.8220   35.6550   11.4640 N.am   50  GLY50      -0.1942
      7  CA        64.4050   35.6270   10.1400 C.3    50  GLY50       0.2014
      8  C         65.6860   36.4060    9.9970 C.2    50  GLY50       0.2638
      9  O         66.0880   36.6970    8.8560 O.2    50  GLY50      -0.2714
     10  N         66.3280   36.7230   11.1370 N.am   51  LEU51      -0.1977
     11  CA        67.6070   37.4600   11.1790 C.3    51  LEU51       0.1596
     12  C         68.7040   36.6140   10.6170 C.2    51  LEU51       0.2287
     13  O         68.7430   35.4420   10.9210 O.2    51  LEU51      -0.2864
     14  CB        67.9760   37.7310   12.6030 C.3    51  LEU51       0.0297
     15  CG        69.2690   38.5060   12.8070 C.3    51  LEU51       0.0022
     16  CD1       69.2680   39.7960   11.9710 C.3    51  LEU51       0.0001
     17  CD2       69.4910   38.7470   14.3380 C.3    51  LEU51       0.0001
     18  N         72.1220   35.2860   10.8910 N.3    53  GLN53      -0.1231
     19  CA        73.2560   35.1600   11.7960 C.3    53  GLN53       0.1686
     20  C         73.5060   33.6830   12.1950 C.2    53  GLN53       0.2472
     21  O         72.7040   33.0810   12.9360 O.2    53  GLN53      -0.2730
     22  CB        73.0570   36.0780   13.0250 C.3    53  GLN53       0.0380
     23  CG        73.9820   35.8410   14.2640 C.3    53  GLN53       0.0905
     24  CD        74.2980   37.1200   14.9600 C.2    53  GLN53       0.2608
     25  OE1       74.2790   38.1600   14.3410 O.2    53  GLN53      -0.2717
     26  NE2       74.6040   37.0690   16.2280 N.am   53  GLN53      -0.0878
     27  N         74.6120   33.0830   11.6820 N.am   54  PRO54      -0.2492
     28  CA        75.0220   31.7060   12.1110 C.3    54  PRO54       0.1619
     29  C         75.5250   31.6670   13.5570 C.2    54  PRO54       0.2605
     30  O         75.7170   32.7260   14.1320 O.2    54  PRO54      -0.2715
     31  CB        76.1350   31.3070   11.1120 C.3    54  PRO54       0.0570
     32  CG        76.4150   32.5100   10.2350 C.2    54  PRO54      -0.0077
     33  CD        75.5030   33.6740   10.6590 C.2    54  PRO54       0.0634
     34  N         75.7070   30.4650   14.1320 N.am   55  TYR55      -0.1960
     35  CA        76.4500   30.2510   15.4210 C.3    55  TYR55       0.1771
     36  C         77.7810   31.0480   15.4900 C.2    55  TYR55       0.2619
     37  O         78.4930   31.1970   14.4850 O.2    55  TYR55      -0.2715
     38  CB        76.7230   28.7530   15.6690 C.3    55  TYR55       0.0574
     39  CG        75.4750   27.8700   15.7650 C.ar   55  TYR55      -0.0198
     40  CD1       74.2010   28.4270   15.9610 C.ar   55  TYR55      -0.0009
     41  CD2       75.5720   26.4740   15.7130 C.ar   55  TYR55      -0.0009
     42  CE1       73.0350   27.6240   16.0680 C.ar   55  TYR55       0.0417
     43  CE2       74.4230   25.6390   15.8240 C.ar   55  TYR55       0.0417
     44  CZ        73.1440   26.2200   16.0000 C.ar   55  TYR55       0.1957
     45  OH        71.9760   25.4180   16.0990 O.3    55  TYR55      -0.2866
     46  N         78.0990   31.5900   16.6580 N.am   56  LEU56      -0.1977
     47  CA        79.3430   32.3820   16.8630 C.3    56  LEU56       0.1596
     48  C         80.6300   31.4890   16.8360 C.2    56  LEU56       0.2287
     49  O         81.7500   31.9850   16.6070 O.2    56  LEU56      -0.2864
     50  CB        79.2360   33.1950   18.1770 C.3    56  LEU56       0.0297
     51  CG        77.7660   33.4200   18.5590 C.3    56  LEU56       0.0022
     52  CD1       77.4630   33.1980   20.0380 C.3    56  LEU56       0.0001
     53  CD2       77.2900   34.7610   18.0430 C.3    56  LEU56       0.0001
     54  N         70.7810   40.9080   20.8040 N.3   215  LEU215     -0.1231
     55  CA        70.8520   39.5090   21.2590 C.3   215  LEU215      0.1693
     56  C         71.7710   39.4510   22.4520 C.2   215  LEU215      0.2593
     57  O         72.7350   40.1780   22.5210 O.2   215  LEU215     -0.2718
     58  CB        71.3120   38.5390   20.1820 C.3   215  LEU215      0.0284
     59  CG        71.0250   38.9740   18.7490 C.3   215  LEU215      0.0019
     60  CD1       71.5670   37.9390   17.7330 C.3   215  LEU215      0.0001
     61  CD2       69.5540   39.1700   18.5740 C.3   215  LEU215      0.0001
     62  N         71.4220   38.6250   23.4180 N.am  216  THR216     -0.1939
     63  CA        72.2990   38.4270   24.5360 C.3   216  THR216      0.2028
     64  C         72.8920   37.0510   24.5500 C.2   216  THR216      0.2642
     65  O         72.2480   36.0550   24.2450 O.2   216  THR216     -0.2714
     66  CB        71.5930   38.5870   25.8340 C.3   216  THR216      0.1808
     67  OG1       70.5100   37.6520   25.8730 O.3   216  THR216     -0.2208
     68  CG2       71.0790   39.9940   25.9270 C.3   216  THR216      0.0379
     69  N         74.1340   36.9960   24.9590 N.am  217  HIS217     -0.1973
     70  CA        74.7130   35.7100   25.1660 C.3   217  HIS217      0.1656
     71  C         75.0400   35.4080   26.6480 C.2   217  HIS217      0.2291
     72  O         75.0450   36.2940   27.5320 O.2   217  HIS217     -0.2864
     73  CB        75.8310   35.5020   24.1660 C.3   217  HIS217      0.0771
     74  CG        75.3850   35.7420   22.7470 C.ar  217  HIS217      0.0820
     75  ND1       74.9200   34.7320   21.9300 N.ar  217  HIS217     -0.2267
     76  CD2       75.2910   36.8850   22.0170 C.ar  217  HIS217      0.1154
     77  CE1       74.6150   35.2320   20.7470 C.ar  217  HIS217      0.1986
     78  NE2       74.8250   36.5360   20.7740 N.ar  217  HIS217     -0.2212
     79  N         73.4480   28.7290   23.7930 N.3   223  ILE223     -0.1231
     80  CA        72.8820   29.1810   22.4960 C.3   223  ILE223      0.1692
     81  C         71.3530   29.3420   22.4510 C.2   223  ILE223      0.2592
     82  O         70.6120   28.4000   22.7780 O.2   223  ILE223     -0.2718
     83  CB        73.2470   28.2170   21.3210 C.3   223  ILE223      0.0266
     84  CG1       72.9300   28.8600   19.9520 C.3   223  ILE223      0.0019
     85  CG2       72.5920   26.7990   21.5000 C.3   223  ILE223      0.0020
     86  CD1       73.4370   30.2980   19.7840 C.3   223  ILE223      0.0001
     87  N         70.8510   30.4890   22.0020 N.am  224  TYR224     -0.1976
     88  CA        69.4130   30.6290   21.7150 C.3   224  TYR224      0.1639
     89  C         68.5200   30.7970   22.9400 C.2   224  TYR224      0.2290
     90  O         67.2960   30.8490   22.8110 O.2   224  TYR224     -0.2864
     91  CB        68.8980   29.4130   20.9100 C.3   224  TYR224      0.0560
     92  CG        69.4870   29.2970   19.5260 C.ar  224  TYR224     -0.0198
     93  CD1       69.5260   30.3840   18.6890 C.ar  224  TYR224     -0.0009
     94  CD2       70.0210   28.1130   19.0700 C.ar  224  TYR224     -0.0009
     95  CE1       70.0710   30.3010   17.4430 C.ar  224  TYR224      0.0417
     96  CE2       70.5680   28.0260   17.8170 C.ar  224  TYR224      0.0417
     97  CZ        70.5880   29.1260   17.0090 C.ar  224  TYR224      0.1957
     98  OH        71.1260   29.0780   15.7540 O.3   224  TYR224     -0.2866
     99  N         66.6680   37.6060   23.3580 N.3   228  TYR228     -0.1241
    100  CA        66.8100   38.3330   22.0740 C.3   228  TYR228      0.1605
    101  C         65.6110   39.2760   21.7420 C.2   228  TYR228      0.2264
    102  O         64.4810   39.0670   22.1930 O.2   228  TYR228     -0.2867
    103  CB        67.1920   37.4170   20.9050 C.3   228  TYR228      0.0534
    104  CG        66.2500   36.2640   20.4980 C.ar  228  TYR228     -0.0201
    105  CD1       65.2790   36.4300   19.5020 C.ar  228  TYR228     -0.0009
    106  CD2       66.3780   34.9910   21.0520 C.ar  228  TYR228     -0.0009
    107  CE1       64.4420   35.3550   19.0970 C.ar  228  TYR228      0.0417
    108  CE2       65.5420   33.9360   20.6650 C.ar  228  TYR228      0.0417
    109  CZ        64.5810   34.1220   19.7000 C.ar  228  TYR228      0.1957
    110  OH        63.7830   33.0680   19.3160 O.3   228  TYR228     -0.2866
    111  N         64.1490   41.0950   18.3330 N.3   230  ILE230     -0.1245
    112  CA        64.3680   41.2650   16.9130 C.3   230  ILE230      0.1561
    113  C         63.2210   41.9830   16.2210 C.2   230  ILE230      0.2260
    114  O         62.2020   41.3900   15.9650 O.2   230  ILE230     -0.2867
    115  CB        64.5960   39.9260   16.2300 C.3   230  ILE230      0.0252
    116  CG1       65.5690   39.0490   17.0560 C.3   230  ILE230      0.0019
    117  CG2       65.0310   40.1900   14.7880 C.3   230  ILE230      0.0019
    118  CD1       65.8240   37.5950   16.5180 C.3   230  ILE230      0.0001
    119  N         63.4410   24.0310   16.5880 N.3   283  ARG283     -0.1245
    120  CA        64.6490   24.0340   15.7960 C.3   283  ARG283      0.1563
    121  C         65.0270   22.5780   15.5460 C.2   283  ARG283      0.2260
    122  O         65.0930   21.7680   16.4760 O.2   283  ARG283     -0.2867
    123  CB        65.7830   24.7770   16.4940 C.3   283  ARG283      0.0307
    124  CG        65.3200   25.8750   17.4170 C.3   283  ARG283      0.0489
    125  CD        66.3090   27.0250   17.4480 C.3   283  ARG283      0.2205
    126  NE        65.8210   28.1230   18.2730 N.pl3 283  ARG283     -0.0865
    127  CZ        65.2100   27.9590   19.4420 C.cat 283  ARG283      0.5346
    128  NH1       64.7950   29.0150   20.1250 N.pl3 283  ARG283      0.1354
    129  NH2       65.0170   26.7390   19.9290 N.pl3 283  ARG283      0.1354
    130  N         69.0420   26.1920   14.2830 N.3   313  GLY313     -0.1225
    131  CA        68.4000   27.4690   14.4180 C.3   313  GLY313      0.1811
    132  C         68.9530   28.3620   13.3470 C.2   313  GLY313      0.2280
    133  O         69.1190   29.5570   13.5860 O.2   313  GLY313     -0.2866
    134  N         69.1390   31.5980    7.7180 N.3   317  THR317     -0.1218
    135  CA        70.4790   32.0830    7.4640 C.3   317  THR317      0.1862
    136  C         71.2430   31.3410    6.3310 C.2   317  THR317      0.2287
    137  O         72.1950   31.8920    5.7270 O.2   317  THR317     -0.2866
    138  CB        71.2710   31.9910    8.7280 C.3   317  THR317      0.1770
    139  OG1       70.6110   32.7550    9.7370 O.3   317  THR317     -0.2211
    140  CG2       72.7210   32.4620    8.4890 C.3   317  THR317      0.0375
@<TRIPOS>BOND
     1   137   136    2
     2   136   135    1
     3   135   134    1
     4   135   138    1
     5   140   138    1
     6   138   139    1
     7     9     8    2
     8     8     7    1
     9     8    10   am
    10     7     6    1
    11    32    33    2
    12    32    31    1
    13    12    13    2
    14    12    11    1
    15    33    27    1
    16    18    19    1
    17     4     3    2
    18    31    28    1
    19    10    11    1
    20    11    14    1
    21     6     3   am
    22    27    28    1
    23    27    20   am
    24     3     2    1
    25    19    20    1
    26    19    22    1
    27    16    15    1
    28    28    29    1
    29    20    21    2
    30    14    15    1
    31    15    17    1
    32    22    23    1
    33     2     1    1
    34     2     5    1
    35   132   133    2
    36   132   131    1
    37    29    30    2
    38    29    34   am
    39    34    35    1
    40    23    24    1
    41   130   131    1
    42    25    24    2
    43    37    36    2
    44   117   115    1
    45    24    26   am
    46    35    36    1
    47    35    38    1
    48    36    46   am
    49   121   120    1
    50   121   122    2
    51    38    39    1
    52    41    39   ar
    53    41    43   ar
    54    98    97    1
    55    39    40   ar
    56   120   123    1
    57   120   119    1
    58    43    44   ar
    59    40    42   ar
    60   114   113    2
    61    44    42   ar
    62    44    45    1
    63   113   112    1
    64   115   112    1
    65   115   116    1
    66   123   124    1
    67   118   116    1
    68    49    48    2
    69    46    47    1
    70    48    47    1
    71    47    50    1
    72   112   111    1
    73    97    95   ar
    74    97    96   ar
    75   124   125    1
    76    95    93   ar
    77   125   126    1
    78    60    59    1
    79    96    94   ar
    80    53    51    1
    81    50    51    1
    82   126   127    2
    83    51    52    1
    84    61    59    1
    85    93    92   ar
    86    59    58    1
    87    94    92   ar
    88   107   105   ar
    89   107   109   ar
    90   110   109    1
    91   127   129    1
    92   127   128    1
    93   105   104   ar
    94    92    91    1
    95   109   108   ar
    96    86    84    1
    97    84    83    1
    98    58    55    1
    99   104   103    1
   100   104   106   ar
   101   108   106   ar
   102    77    78   ar
   103    77    75   ar
   104    78    76   ar
   105    54    55    1
   106   103   100    1
   107    91    88    1
   108    55    56    1
   109    83    85    1
   110    83    80    1
   111    88    87    1
   112    88    89    1
   113   101   100    1
   114   101   102    2
   115    75    74   ar
   116    87    81   am
   117    76    74   ar
   118   100    99    1
   119    81    80    1
   120    81    82    2
   121    56    57    2
   122    56    62   am
   123    80    79    1
   124    74    73    1
   125    90    89    2
   126    62    63    1
   127    73    70    1
   128    65    64    2
   129    63    64    1
   130    63    66    1
   131    64    69   am
   132    69    70    1
   133    70    71    1
   134    66    67    1
   135    66    68    1
   136    71    72    2
