@<TRIPOS>MOLECULE
tmp/3w4kA01.pdb
 144 140 0 0 0
SMALL
GASTEIGER

@<TRIPOS>ATOM
      1  N         36.5640   68.3760   13.0720 N.3    48  ALA48      -0.1231
      2  CA        35.2710   67.6590   13.0610 C.3    48  ALA48       0.1694
      3  C         35.4020   66.1920   12.6940 C.2    48  ALA48       0.2592
      4  O         35.9840   65.8580   11.6900 O.2    48  ALA48      -0.2718
      5  CB        34.3350   68.3050   12.0060 C.3    48  ALA48       0.0304
      6  N         34.7820   65.3270   13.4680 N.am   49  ALA49      -0.1966
      7  CA        34.5490   63.9010   13.0260 C.3    49  ALA49       0.1728
      8  C         33.9470   63.7460   11.6730 C.2    49  ALA49       0.2617
      9  O         34.4560   63.0510   10.9070 O.2    49  ALA49      -0.2715
     10  CB        33.6190   63.1120   14.0460 C.3    49  ALA49       0.0334
     11  N         32.8080   64.3150   11.3710 N.am   50  GLY50      -0.1940
     12  CA        32.4630   64.3020    9.9830 C.3    50  GLY50       0.2014
     13  C         31.1860   63.5070    9.9160 C.2    50  GLY50       0.2638
     14  O         30.7550   62.9520    8.8190 O.2    50  GLY50      -0.2714
     15  N         30.5550   63.4550   11.0820 N.am   51  LEU51      -0.1977
     16  CA        29.3350   62.7170   11.1510 C.3    51  LEU51       0.1596
     17  C         28.3140   63.5660   10.5100 C.2    51  LEU51       0.2287
     18  O         28.3620   64.7280   10.7450 O.2    51  LEU51      -0.2864
     19  CB        28.9510   62.5250   12.5940 C.3    51  LEU51       0.0297
     20  CG        27.6830   61.7020   12.6760 C.3    51  LEU51       0.0022
     21  CD1       27.6370   60.6050   11.5280 C.3    51  LEU51       0.0001
     22  CD2       27.4420   61.1520   14.1160 C.3    51  LEU51       0.0001
     23  N         24.5560   64.8200   10.4150 N.3    53  GLN53      -0.1231
     24  CA        23.3860   64.8300   11.3090 C.3    53  GLN53       0.1683
     25  C         23.0520   66.2660   11.8030 C.2    53  GLN53       0.2434
     26  O         23.8420   66.7910   12.5930 O.2    53  GLN53      -0.2733
     27  CB        23.6250   63.8160   12.4760 C.3    53  GLN53       0.0380
     28  CG        22.7500   64.0110   13.7710 C.3    53  GLN53       0.0905
     29  CD        22.5470   62.7600   14.6270 C.2    53  GLN53       0.2608
     30  OE1       22.8740   61.6170   14.2260 O.2    53  GLN53      -0.2717
     31  NE2       21.9830   62.9730   15.8090 N.am   53  GLN53      -0.0878
     32  N         21.9480   66.9320   11.2650 N.am   54  PRO54      -0.2718
     33  CA        21.4300   68.2820   11.6630 C.3    54  PRO54       0.1535
     34  C         20.8430   68.3540   13.0620 C.2    54  PRO54       0.2599
     35  O         20.2950   67.3190   13.5190 O.2    54  PRO54      -0.2715
     36  CB        20.3000   68.5130   10.6720 C.3    54  PRO54       0.0310
     37  CG        20.6750   67.6950    9.5530 C.3    54  PRO54       0.0237
     38  CD        21.1560   66.4460   10.1230 C.3    54  PRO54       0.0939
     39  N         20.9150   69.5420   13.7140 N.am   55  TYR55      -0.1960
     40  CA        20.3840   69.7230   15.1300 C.3    55  TYR55       0.1771
     41  C         19.0560   68.8920   15.3650 C.2    55  TYR55       0.2619
     42  O         18.4470   68.3630   14.3840 O.2    55  TYR55      -0.2715
     43  CB        20.2220   71.2110   15.6280 C.3    55  TYR55       0.0574
     44  CG        21.4060   72.1850   15.4670 C.ar   55  TYR55      -0.0198
     45  CD1       22.7300   71.7230   15.4720 C.ar   55  TYR55      -0.0009
     46  CD2       21.1990   73.5820   15.3280 C.ar   55  TYR55      -0.0009
     47  CE1       23.8840   72.6190   15.2980 C.ar   55  TYR55       0.0417
     48  CE2       22.2890   74.4940   15.1470 C.ar   55  TYR55       0.0417
     49  CZ        23.6670   74.0070   15.1400 C.ar   55  TYR55       0.1957
     50  OH        24.8250   74.8570   14.9920 O.3    55  TYR55      -0.2866
     51  N         18.6170   68.7140   16.6140 N.am   56  LEU56      -0.1977
     52  CA        17.4320   67.8200   16.7870 C.3    56  LEU56       0.1596
     53  C         16.1460   68.3980   16.0580 C.2    56  LEU56       0.2287
     54  O         15.5600   67.7420   15.1570 O.2    56  LEU56      -0.2864
     55  CB        17.1880   67.4370   18.2780 C.3    56  LEU56       0.0297
     56  CG        18.3040   66.9450   19.2280 C.3    56  LEU56       0.0022
     57  CD1       18.3770   65.4620   19.0560 C.3    56  LEU56       0.0001
     58  CD2       19.7160   67.6330   19.0880 C.3    56  LEU56       0.0001
     59  N         25.9130   59.1700   20.4910 N.3   215  LEU215     -0.1231
     60  CA        25.8060   60.5950   20.8240 C.3   215  LEU215      0.1693
     61  C         24.9020   60.8430   22.0430 C.2   215  LEU215      0.2593
     62  O         23.7260   60.5890   21.9700 O.2   215  LEU215     -0.2718
     63  CB        25.2700   61.3570   19.6360 C.3   215  LEU215      0.0284
     64  CG        25.8030   61.0640   18.2560 C.3   215  LEU215      0.0019
     65  CD1       25.2270   62.0650   17.2960 C.3   215  LEU215      0.0001
     66  CD2       27.3250   61.1910   18.2090 C.3   215  LEU215      0.0001
     67  N         25.4540   61.3280   23.1540 N.am  216  THR216     -0.1939
     68  CA        24.6560   61.6050   24.3790 C.3   216  THR216      0.2028
     69  C         24.0550   63.0110   24.4440 C.2   216  THR216      0.2642
     70  O         24.8170   63.9900   24.3900 O.2   216  THR216     -0.2714
     71  CB        25.4770   61.4300   25.6100 C.3   216  THR216      0.1808
     72  OG1       26.5250   62.3780   25.6210 O.3   216  THR216     -0.2208
     73  CG2       26.0900   60.1440   25.5550 C.3   216  THR216      0.0379
     74  N         22.7110   63.1170   24.5600 N.am  217  HIS217     -0.1973
     75  CA        22.0290   64.4720   24.5010 C.3   217  HIS217      0.1656
     76  C         21.4460   64.9860   25.7770 C.2   217  HIS217      0.2291
     77  O         20.7220   64.2460   26.4280 O.2   217  HIS217     -0.2864
     78  CB        20.8540   64.4720   23.5450 C.3   217  HIS217      0.0771
     79  CG        21.2620   64.3970   22.1370 C.ar  217  HIS217      0.0820
     80  ND1       21.5120   65.5190   21.3870 N.ar  217  HIS217     -0.2267
     81  CD2       21.5380   63.3340   21.3570 C.ar  217  HIS217      0.1154
     82  CE1       21.8690   65.1510   20.1760 C.ar  217  HIS217      0.1986
     83  NE2       21.8890   63.8250   20.1340 N.ar  217  HIS217     -0.2212
     84  N         23.5970   71.3350   23.5060 N.3   223  ILE223     -0.1231
     85  CA        24.0980   70.7140   22.2410 C.3   223  ILE223      0.1692
     86  C         25.5990   70.5800   22.1620 C.2   223  ILE223      0.2592
     87  O         26.3230   71.4940   22.6710 O.2   223  ILE223     -0.2718
     88  CB        23.9160   71.6640   21.0770 C.3   223  ILE223      0.0266
     89  CG1       24.2090   70.9370   19.7380 C.3   223  ILE223      0.0019
     90  CG2       24.8410   72.9800   21.3270 C.3   223  ILE223      0.0020
     91  CD1       22.9870   70.1800   19.0870 C.3   223  ILE223      0.0001
     92  N         26.0400   69.5250   21.4540 N.am  224  TYR224     -0.1976
     93  CA        27.4450   69.1650   21.3830 C.3   224  TYR224      0.1639
     94  C         28.0770   69.3570   22.7200 C.2   224  TYR224      0.2290
     95  O         29.2790   69.6320   22.8250 O.2   224  TYR224     -0.2864
     96  CB        28.1790   70.0540   20.4100 C.3   224  TYR224      0.0560
     97  CG        27.4580   70.1490   19.1550 C.ar  224  TYR224     -0.0198
     98  CD1       26.8990   69.0030   18.5780 C.ar  224  TYR224     -0.0009
     99  CD2       27.2860   71.3770   18.5510 C.ar  224  TYR224     -0.0009
    100  CE1       26.1830   69.0810   17.3850 C.ar  224  TYR224      0.0417
    101  CE2       26.6030   71.5010   17.3790 C.ar  224  TYR224      0.0417
    102  CZ        26.0520   70.3560   16.7910 C.ar  224  TYR224      0.1957
    103  OH        25.3990   70.4950   15.6030 O.3   224  TYR224     -0.2866
    104  N         27.5090   67.4340   25.3600 N.3   226  SER226     -0.1217
    105  CA        27.4600   66.1930   25.9800 C.3   226  SER226      0.1889
    106  C         28.3690   65.1590   25.2290 C.2   226  SER226      0.2288
    107  O         28.5440   65.2850   23.9790 O.2   226  SER226     -0.2866
    108  CB        26.0360   65.8090   25.8760 C.3   226  SER226      0.2089
    109  OG        25.7490   65.1100   27.0390 O.3   226  SER226     -0.2183
    110  N         30.1580   62.2870   23.1890 N.3   228  TYR228     -0.1298
    111  CA        29.8470   61.5780   22.0060 C.3   228  TYR228      0.1290
    112  C         31.1360   60.9230   21.5230 C.3   228  TYR228      0.2013
    113  O         32.3050   61.2660   21.9510 O.3   228  TYR228     -0.2188
    114  CB        29.2310   62.4640   20.9670 C.3   228  TYR228      0.0480
    115  CG        30.1180   63.6040   20.4860 C.ar  228  TYR228     -0.0204
    116  CD1       31.3070   63.3600   19.8590 C.ar  228  TYR228     -0.0009
    117  CD2       29.7040   64.9430   20.5940 C.ar  228  TYR228     -0.0009
    118  CE1       32.1210   64.4070   19.3610 C.ar  228  TYR228      0.0417
    119  CE2       30.5110   66.0080   20.1380 C.ar  228  TYR228      0.0417
    120  CZ        31.7170   65.7320   19.5040 C.ar  228  TYR228      0.1957
    121  OH        32.5280   66.7240   19.0300 O.3   228  TYR228     -0.2866
    122  N         32.6660   58.8780   18.1380 N.3   230  ILE230     -0.1245
    123  CA        32.4330   58.6550   16.7480 C.3   230  ILE230      0.1561
    124  C         33.4750   57.8500   15.9620 C.2   230  ILE230      0.2260
    125  O         34.5200   58.3620   15.6590 O.2   230  ILE230     -0.2867
    126  CB        32.3220   59.9680   16.1520 C.3   230  ILE230      0.0252
    127  CG1       31.1500   60.6670   16.8430 C.3   230  ILE230      0.0019
    128  CG2       32.2970   59.7560   14.6070 C.3   230  ILE230      0.0019
    129  CD1       31.0630   62.0850   16.5400 C.3   230  ILE230      0.0001
    130  N         33.2590   76.2960   16.4810 N.3   283  ARG283     -0.1245
    131  CA        32.1140   76.1170   15.6390 C.3   283  ARG283      0.1563
    132  C         31.7590   77.4870   15.1750 C.2   283  ARG283      0.2260
    133  O         31.6780   78.3830   16.0110 O.2   283  ARG283     -0.2867
    134  CB        30.9140   75.5240   16.3810 C.3   283  ARG283      0.0307
    135  CG        31.1570   74.0560   16.6860 C.3   283  ARG283      0.0489
    136  CD        30.4960   73.7470   18.0010 C.3   283  ARG283      0.2205
    137  NE        30.8180   72.4190   18.4680 N.pl3 283  ARG283     -0.0865
    138  CZ        31.6310   72.1460   19.4800 C.cat 283  ARG283      0.5346
    139  NH1       31.8220   70.8440   19.7860 N.pl3 283  ARG283      0.1354
    140  NH2       32.2260   73.1500   20.1760 N.pl3 283  ARG283      0.1354
    141  N         27.7540   73.8660   14.0530 N.3   313  GLY313     -0.1225
    142  CA        28.3770   72.6680   14.4070 C.3   313  GLY313      0.1811
    143  C         28.1190   71.8010   13.2220 C.2   313  GLY313      0.2280
    144  O         28.2290   70.6320   13.3890 O.2   313  GLY313     -0.2866
@<TRIPOS>BOND
     1    14    13    2
     2    37    38    1
     3    37    36    1
     4    13    12    1
     5    13    15   am
     6    12    11    1
     7    38    32    1
     8    23    24    1
     9    17    18    2
    10    17    16    1
    11    36    33    1
    12     9     8    2
    13    15    16    1
    14    16    19    1
    15    32    33    1
    16    32    25   am
    17    24    25    1
    18    24    27    1
    19    11     8   am
    20    21    20    1
    21    33    34    1
    22     8     7    1
    23     4     3    2
    24    25    26    2
    25     5     2    1
    26    27    28    1
    27    19    20    1
    28    20    22    1
    29     3     2    1
    30     3     6   am
    31     7     6    1
    32     7    10    1
    33     2     1    1
    34    34    35    2
    35    34    39   am
    36   143   144    2
    37   143   142    1
    38    39    40    1
    39    28    29    1
    40   141   142    1
    41    30    29    2
    42    42    41    2
    43   128   126    1
    44    29    31   am
    45    50    49    1
    46    40    41    1
    47    40    43    1
    48    49    48   ar
    49    49    47   ar
    50    48    46   ar
    51    54    53    2
    52   132   131    1
    53   132   133    2
    54    47    45   ar
    55    46    44   ar
    56    41    51   am
    57    44    45   ar
    58    44    43    1
    59   103   102    1
    60   131   134    1
    61   131   130    1
    62   125   124    2
    63   124   123    1
    64    53    52    1
    65   126   123    1
    66   126   127    1
    67   134   135    1
    68   129   127    1
    69    51    52    1
    70   135   136    1
    71   123   122    1
    72    52    55    1
    73   102   101   ar
    74   102   100   ar
    75    65    64    1
    76   101    99   ar
    77   100    98   ar
    78   136   137    1
    79    66    64    1
    80    64    63    1
    81    55    56    1
    82   137   138    2
    83    99    97   ar
    84    98    97   ar
    85   121   120    1
    86    57    56    1
    87    91    89    1
    88    58    56    1
    89    97    96    1
    90   118   120   ar
    91   118   116   ar
    92   138   139    1
    93   138   140    1
    94   120   119   ar
    95    63    60    1
    96    89    88    1
    97   116   115   ar
    98    83    82   ar
    99    83    81   ar
   100   119   117   ar
   101    82    80   ar
   102    96    93    1
   103   115   117   ar
   104   115   114    1
   105    59    60    1
   106    60    61    1
   107   114   111    1
   108    88    90    1
   109    88    85    1
   110    81    79   ar
   111    93    92    1
   112    93    94    1
   113    80    79   ar
   114    92    86   am
   115   112   113    1
   116   112   111    1
   117    62    61    2
   118   111   110    1
   119    61    67   am
   120    79    78    1
   121    86    85    1
   122    86    87    2
   123    85    84    1
   124    94    95    2
   125    67    68    1
   126    78    75    1
   127   107   106    2
   128    68    69    1
   129    68    71    1
   130    70    69    2
   131    69    74   am
   132    75    74    1
   133    75    76    1
   134   106   105    1
   135   104   105    1
   136    73    71    1
   137    71    72    1
   138    76    77    2
   139   108   105    1
   140   108   109    1
