@<TRIPOS>MOLECULE
tmp/3w4oA00.pdb
 91 83 0 0 0
SMALL
GASTEIGER

@<TRIPOS>ATOM
      1  N          1.7710   36.3180   44.6660 N.3    57  VAL57      -0.1245
      2  CA         0.9850   37.4160   44.0870 C.3    57  VAL57       0.1561
      3  C         -0.4940   37.1500   44.2560 C.2    57  VAL57       0.2260
      4  O         -1.2700   38.0250   44.6600 O.2    57  VAL57      -0.2867
      5  CB         1.3840   37.6380   42.6270 C.3    57  VAL57       0.0252
      6  CG1        0.3850   38.6130   41.9770 C.3    57  VAL57       0.0019
      7  CG2        2.7910   38.1580   42.4680 C.3    57  VAL57       0.0019
      8  N         -1.4940   37.6200   47.8300 N.3    60  ARG60      -0.1231
      9  CA        -1.5150   39.0380   48.1260 C.3    60  ARG60       0.1694
     10  C         -2.7740   39.7240   47.6280 C.2    60  ARG60       0.2592
     11  O         -3.1870   40.7370   48.1510 O.2    60  ARG60      -0.2718
     12  CB        -0.2480   39.6680   47.5510 C.3    60  ARG60       0.0321
     13  CG         0.0440   41.1070   47.8470 C.3    60  ARG60       0.0489
     14  CD         0.1610   41.3900   49.3340 C.3    60  ARG60       0.2205
     15  NE         0.3180   42.8170   49.6180 N.pl3  60  ARG60      -0.0865
     16  CZ        -0.6250   43.7340   49.6080 C.cat  60  ARG60       0.5346
     17  NH1       -1.8610   43.3470   49.3000 N.pl3  60  ARG60       0.1354
     18  NH2       -0.3050   44.9790   49.9090 N.pl3  60  ARG60       0.1354
     19  N         -3.4060   39.1900   46.5820 N.am   61  SER61      -0.1952
     20  CA        -4.5870   39.7120   45.9380 C.3    61  SER61       0.1924
     21  C         -5.8630   39.1650   46.5250 C.2    61  SER61       0.2314
     22  O         -6.9220   39.7110   46.1550 O.2    61  SER61      -0.2863
     23  CB        -4.5730   39.4170   44.4180 C.3    61  SER61       0.2116
     24  OG        -4.9790   38.0790   44.0930 O.3    61  SER61      -0.2180
     25  N         -8.5410   41.5090   47.7650 N.3    64  GLU64      -0.1245
     26  CA        -8.9090   42.5170   46.7990 C.3    64  GLU64       0.1567
     27  C         -8.4890   42.0680   45.4160 C.2    64  GLU64       0.2260
     28  O         -7.4640   42.4830   44.8610 O.2    64  GLU64      -0.2867
     29  CB        -8.2610   43.8410   47.1950 C.3    64  GLU64       0.0388
     30  CG        -8.7860   45.0180   46.3880 C.3    64  GLU64       0.1160
     31  CD        -8.0880   46.3370   46.5320 C.2    64  GLU64       0.3649
     32  OE1       -7.2590   46.5010   47.4660 O.co2  64  GLU64      -0.2457
     33  OE2       -8.3750   47.2640   45.7280 O.co2  64  GLU64      -0.2457
     34  N         -6.7720   43.9780   42.4370 N.3    67  LEU67      -0.1231
     35  CA        -5.3330   44.2920   42.4010 C.3    67  LEU67       0.1693
     36  C         -4.6550   43.6170   41.1950 C.2    67  LEU67       0.2591
     37  O         -3.6630   44.0820   40.6160 O.2    67  LEU67      -0.2718
     38  CB        -4.6920   43.8670   43.6950 C.3    67  LEU67       0.0284
     39  CG        -4.9590   44.7350   44.9370 C.3    67  LEU67       0.0019
     40  CD1       -4.3070   44.0930   46.1590 C.3    67  LEU67       0.0001
     41  CD2       -4.4020   46.1400   44.7860 C.3    67  LEU67       0.0001
     42  N         -5.1790   42.4660   40.7510 N.am   68  LEU68      -0.1980
     43  CA        -4.6470   41.7770   39.5650 C.3    68  LEU68       0.1596
     44  C         -4.8780   42.5610   38.2920 C.2    68  LEU68       0.2287
     45  O         -4.1960   42.3310   37.2830 O.2    68  LEU68      -0.2864
     46  CB        -5.3030   40.3960   39.4590 C.3    68  LEU68       0.0297
     47  CG        -4.9510   39.3910   40.5290 C.3    68  LEU68       0.0022
     48  CD1       -5.7480   38.1050   40.3300 C.3    68  LEU68       0.0001
     49  CD2       -3.4550   39.0970   40.5350 C.3    68  LEU68       0.0001
     50  N         -4.4680   45.8660   38.1210 N.3    70  ARG70      -0.1197
     51  CA        -3.6400   47.0550   38.1780 C.3    70  ARG70       0.1779
     52  C         -2.6460   47.0750   37.0110 C.2    70  ARG70       0.2305
     53  O         -1.9390   46.1080   36.7630 O.2    70  ARG70      -0.2863
     54  CB        -2.8800   47.1170   39.4930 C.2    70  ARG70      -0.0007
     55  CG        -1.9770   48.3220   39.6920 C.2    70  ARG70       0.0176
     56  CD        -1.2650   48.4080   41.0140 C.3    70  ARG70       0.2464
     57  NE        -2.2060   48.7130   42.0900 N.pl3  70  ARG70      -0.0815
     58  CZ        -1.9150   48.7570   43.3820 C.cat  70  ARG70       0.5349
     59  NH1       -0.6580   48.4840   43.7020 N.pl3  70  ARG70       0.1354
     60  NH2       -2.8320   49.0430   44.2890 N.pl3  70  ARG70       0.1354
     61  N         -1.0980   43.2670   36.2730 N.3    96  VAL96      -0.1245
     62  CA        -0.4480   42.2680   37.1280 C.3    96  VAL96       0.1561
     63  C         -0.8030   40.8620   36.6490 C.2    96  VAL96       0.2260
     64  O          0.0580   39.9760   36.5600 O.2    96  VAL96      -0.2867
     65  CB        -0.8350   42.5330   38.5830 C.3    96  VAL96       0.0252
     66  CG1       -0.3730   41.3970   39.4860 C.3    96  VAL96       0.0019
     67  CG2       -0.2060   43.8440   39.0760 C.3    96  VAL96       0.0019
     68  N          7.1940   41.5230   39.0940 N.3   115  LEU115     -0.1245
     69  CA         6.3780   40.9640   40.1700 C.3   115  LEU115      0.1561
     70  C          7.1270   40.8520   41.4890 C.2   115  LEU115      0.2260
     71  O          6.5670   41.1500   42.5390 O.2   115  LEU115     -0.2867
     72  CB         5.8050   39.6130   39.7310 C.3   115  LEU115      0.0270
     73  CG         4.8120   39.6490   38.5840 C.3   115  LEU115      0.0019
     74  CD1        4.5540   38.2400   38.0740 C.3   115  LEU115      0.0001
     75  CD2        3.5210   40.3120   38.9730 C.3   115  LEU115      0.0001
     76  N          7.1480   44.2570   42.8600 N.3   118  LEU118     -0.1231
     77  CA         5.8450   44.6370   43.4140 C.3   118  LEU118      0.1693
     78  C          5.5560   44.0780   44.7870 C.2   118  LEU118      0.2591
     79  O          4.9040   44.6960   45.6150 O.2   118  LEU118     -0.2718
     80  CB         4.7660   44.1990   42.3950 C.3   118  LEU118      0.0284
     81  CG         4.7170   45.0690   41.1070 C.3   118  LEU118      0.0019
     82  CD1        3.8300   44.4920   40.0240 C.3   118  LEU118      0.0001
     83  CD2        4.3180   46.5270   41.4110 C.3   118  LEU118      0.0001
     84  N          6.0420   42.8650   45.0350 N.am  119  LEU119     -0.1980
     85  CA         5.8960   42.2120   46.3150 C.3   119  LEU119      0.1596
     86  C          6.8420   42.7570   47.3780 C.2   119  LEU119      0.2287
     87  O          6.5170   42.5720   48.5430 O.2   119  LEU119     -0.2864
     88  CB         6.1200   40.7270   46.1820 C.3   119  LEU119      0.0297
     89  CG         5.0290   39.9010   45.4960 C.3   119  LEU119      0.0022
     90  CD1        5.5320   38.4660   45.3300 C.3   119  LEU119      0.0001
     91  CD2        3.7370   39.8920   46.2600 C.3   119  LEU119      0.0001
@<TRIPOS>BOND
     1    61    62    1
     2    64    63    2
     3    63    62    1
     4    53    52    2
     5    52    51    1
     6    62    65    1
     7    45    44    2
     8    74    73    1
     9    50    51    1
    10    51    54    1
    11    44    43    1
    12    65    67    1
    13    65    66    1
    14    73    75    1
    15    73    72    1
    16    68    69    1
    17    46    43    1
    18    46    47    1
    19    54    55    2
    20    43    42    1
    21    55    56    1
    22    72    69    1
    23    82    81    1
    24    69    70    1
    25    48    47    1
    26    47    49    1
    27    37    36    2
    28    42    36   am
    29    56    57    1
    30    81    83    1
    31    81    80    1
    32    36    35    1
    33    70    71    2
    34     6     5    1
    35    57    58    2
    36    80    77    1
    37    35    34    1
    38    35    38    1
    39     7     5    1
    40     5     2    1
    41    76    77    1
    42    58    59    1
    43    58    60    1
    44    77    78    1
    45    38    39    1
    46     2     3    1
    47     2     1    1
    48    24    23    1
    49     3     4    2
    50    23    20    1
    51    41    39    1
    52    78    84   am
    53    78    79    2
    54    28    27    2
    55    39    40    1
    56    84    85    1
    57    90    89    1
    58    27    26    1
    59    89    88    1
    60    89    91    1
    61    33    31   ar
    62    20    21    1
    63    20    19    1
    64    22    21    2
    65    88    85    1
    66    85    86    1
    67    30    31    1
    68    30    29    1
    69    31    32   ar
    70    19    10   am
    71    26    29    1
    72    26    25    1
    73    86    87    2
    74    12    13    1
    75    12     9    1
    76    10     9    1
    77    10    11    2
    78     8     9    1
    79    13    14    1
    80    17    16    1
    81    14    15    1
    82    16    15    2
    83    16    18    1
