@<TRIPOS>MOLECULE
tmp/3w4tA03.pdb
 85 81 0 0 0
SMALL
GASTEIGER

@<TRIPOS>ATOM
      1  N        -44.7490   14.2670   18.0100 N.3    96  HIS96      -0.1241
      2  CA       -43.4980   15.0150   17.9560 C.3    96  HIS96       0.1621
      3  C        -42.5300   14.3730   16.9780 C.2    96  HIS96       0.2264
      4  O        -41.9030   15.0610   16.1760 O.2    96  HIS96      -0.2867
      5  CB       -42.8350   15.0840   19.3350 C.3    96  HIS96       0.0745
      6  CG       -43.2750   16.2500   20.1670 C.ar   96  HIS96       0.0817
      7  ND1      -44.4950   16.3050   20.7860 N.ar   96  HIS96      -0.2268
      8  CD2      -42.6180   17.3940   20.4960 C.ar   96  HIS96       0.1154
      9  CE1      -44.5960   17.4520   21.4580 C.ar   96  HIS96       0.1986
     10  NE2      -43.4730   18.1180   21.2960 N.ar   96  HIS96      -0.2212
     11  N        -43.4220   15.0570   13.3270 N.3    99  ILE99      -0.1231
     12  CA       -43.1080   16.4230   12.9200 C.3    99  ILE99       0.1692
     13  C        -41.5930   16.5460   12.7100 C.2    99  ILE99       0.2591
     14  O        -41.1400   17.1880   11.7670 O.2    99  ILE99      -0.2718
     15  CB       -43.6120   17.4500   13.9530 C.3    99  ILE99       0.0266
     16  CG1      -45.1400   17.3680   14.0810 C.3    99  ILE99       0.0019
     17  CG2      -43.1890   18.8620   13.5650 C.3    99  ILE99       0.0020
     18  CD1      -45.7420   18.2790   15.1700 C.3    99  ILE99       0.0001
     19  N        -40.8150   15.9110   13.5830 N.am  100  LEU100     -0.1980
     20  CA       -39.3650   15.8660   13.4110 C.3   100  LEU100      0.1596
     21  C        -38.9490   15.1440   12.1240 C.2   100  LEU100      0.2287
     22  O        -37.9390   15.4950   11.5210 O.2   100  LEU100     -0.2864
     23  CB       -38.6900   15.2230   14.6280 C.3   100  LEU100      0.0297
     24  CG       -38.7350   16.0380   15.9210 C.3   100  LEU100      0.0022
     25  CD1      -38.3340   15.1880   17.1200 C.3   100  LEU100      0.0001
     26  CD2      -37.8340   17.2480   15.8130 C.3   100  LEU100      0.0001
     27  N        -39.2360   17.7820    9.4130 N.3   103  ILE103     -0.1245
     28  CA       -38.1770   18.7730    9.5700 C.3   103  ILE103      0.1561
     29  C        -36.8240   18.2070    9.1280 C.2   103  ILE103      0.2260
     30  O        -36.1260   18.8180    8.3250 O.2   103  ILE103     -0.2867
     31  CB       -38.0910   19.2600   11.0310 C.3   103  ILE103      0.0252
     32  CG1      -39.3170   20.1170   11.3800 C.3   103  ILE103      0.0019
     33  CG2      -36.8030   20.0330   11.2770 C.3   103  ILE103      0.0019
     34  CD1      -39.3940   20.5100   12.8530 C.3   103  ILE103      0.0001
     35  N        -51.8250   18.3800   20.2140 N.3   229  PHE229     -0.1241
     36  CA       -50.3840   18.5500   20.1120 C.3   229  PHE229      0.1605
     37  C        -49.9570   19.8410   20.7860 C.2   229  PHE229      0.2264
     38  O        -50.3310   20.9330   20.3550 O.2   229  PHE229     -0.2867
     39  CB       -49.9260   18.5790   18.6590 C.3   229  PHE229      0.0534
     40  CG       -48.5420   19.1280   18.4810 C.ar  229  PHE229     -0.0203
     41  CD1      -47.4450   18.4400   18.9800 C.ar  229  PHE229     -0.0042
     42  CD2      -48.3370   20.3320   17.8270 C.ar  229  PHE229     -0.0042
     43  CE1      -46.1670   18.9390   18.8250 C.ar  229  PHE229     -0.0003
     44  CE2      -47.0630   20.8360   17.6650 C.ar  229  PHE229     -0.0003
     45  CZ       -45.9750   20.1390   18.1660 C.ar  229  PHE229     -0.0000
     46  N        -46.3250   21.5420   21.9130 N.3   231  PRO231     -0.2102
     47  CA       -44.8670   21.4500   21.8100 C.3   231  PRO231      0.1504
     48  C        -44.2540   21.2430   23.1830 C.2   231  PRO231      0.2576
     49  O        -44.5640   21.9910   24.1080 O.2   231  PRO231     -0.2718
     50  CB       -44.4740   22.8230   21.2680 C.3   231  PRO231      0.0282
     51  CG       -45.6740   23.2900   20.5210 C.3   231  PRO231      0.0208
     52  CD       -46.8480   22.7690   21.2890 C.3   231  PRO231      0.0893
     53  N        -43.3980   20.2350   23.3040 N.am  232  SER232     -0.1938
     54  CA       -42.7770   19.8980   24.5800 C.3   232  SER232      0.2055
     55  C        -41.2610   19.9080   24.4460 C.2   232  SER232      0.2642
     56  O        -40.6970   19.1520   23.6350 O.2   232  SER232     -0.2714
     57  CB       -43.2430   18.5150   25.0430 C.3   232  SER232      0.2130
     58  OG       -42.4980   18.0720   26.1630 O.3   232  SER232     -0.2179
     59  N        -40.6060   20.7640   25.2300 N.am  233  ARG233     -0.1977
     60  CA       -39.1460   20.8240   25.2470 C.3   233  ARG233      0.1597
     61  C        -38.5980   19.5120   25.7710 C.2   233  ARG233      0.2287
     62  O        -37.5950   19.0070   25.2820 O.2   233  ARG233     -0.2864
     63  CB       -38.6510   21.9430   26.1670 C.3   233  ARG233      0.0334
     64  CG       -39.3250   23.2770   25.9830 C.3   233  ARG233      0.0492
     65  CD       -38.9200   24.2290   27.0970 C.3   233  ARG233      0.2205
     66  NE       -39.3440   25.5940   26.8170 N.pl3 233  ARG233     -0.0865
     67  CZ       -38.7720   26.6730   27.3410 C.cat 233  ARG233      0.5346
     68  NH1      -37.7460   26.5470   28.1720 N.pl3 233  ARG233      0.1354
     69  NH2      -39.2190   27.8790   27.0260 N.pl3 233  ARG233      0.1354
     70  N        -38.7780   16.7660   23.1030 N.3   236  LEU236     -0.1245
     71  CA       -37.7420   17.0070   22.1020 C.3   236  LEU236      0.1561
     72  C        -36.3610   16.6010   22.6240 C.2   236  LEU236      0.2260
     73  O        -35.5990   15.9270   21.9270 O.2   236  LEU236     -0.2867
     74  CB       -37.7320   18.4790   21.6690 C.3   236  LEU236      0.0270
     75  CG       -36.5740   18.8430   20.7350 C.3   236  LEU236      0.0019
     76  CD1      -36.6650   18.0530   19.4320 C.3   236  LEU236      0.0001
     77  CD2      -36.5210   20.3370   20.4540 C.3   236  LEU236      0.0001
     78  N        -33.9110   13.4460   21.2090 N.3   240  LEU240     -0.1245
     79  CA       -32.5790   13.7730   20.7070 C.3   240  LEU240      0.1561
     80  C        -31.4310   13.2490   21.5670 C.2   240  LEU240      0.2260
     81  O        -30.3340   13.0200   21.0590 O.2   240  LEU240     -0.2867
     82  CB       -32.4390   15.2820   20.5290 C.3   240  LEU240      0.0270
     83  CG       -33.3980   15.9160   19.5200 C.3   240  LEU240      0.0019
     84  CD1      -33.0760   17.3850   19.3360 C.3   240  LEU240      0.0001
     85  CD2      -33.3590   15.1870   18.1910 C.3   240  LEU240      0.0001
@<TRIPOS>BOND
     1    30    29    2
     2    29    28    1
     3    27    28    1
     4    28    31    1
     5    31    33    1
     6    31    32    1
     7    32    34    1
     8    22    21    2
     9    14    13    2
    10    21    20    1
    11    13    12    1
    12    13    19   am
    13    12    11    1
    14    12    15    1
    15    20    19    1
    16    20    23    1
    17    17    15    1
    18    15    16    1
    19    16    18    1
    20    23    24    1
    21    26    24    1
    22    24    25    1
    23     4     3    2
    24     3     2    1
    25    44    42   ar
    26    44    45   ar
    27    42    40   ar
    28     2     1    1
    29     2     5    1
    30    45    43   ar
    31    85    83    1
    32    40    39    1
    33    40    41   ar
    34    39    36    1
    35    43    41   ar
    36     5     6    1
    37    84    83    1
    38    76    75    1
    39    83    82    1
    40    36    35    1
    41    36    37    1
    42     6     8   ar
    43     6     7   ar
    44    38    37    2
    45    77    75    1
    46     8    10   ar
    47    51    50    1
    48    51    52    1
    49    82    79    1
    50    79    78    1
    51    79    80    1
    52    75    74    1
    53     7     9   ar
    54    81    80    2
    55    50    47    1
    56    52    46    1
    57    10     9   ar
    58    74    71    1
    59    47    46    1
    60    47    48    1
    61    73    72    2
    62    71    72    1
    63    71    70    1
    64    48    53   am
    65    48    49    2
    66    53    54    1
    67    56    55    2
    68    55    54    1
    69    55    59   am
    70    54    57    1
    71    57    58    1
    72    59    60    1
    73    60    61    1
    74    60    63    1
    75    62    61    2
    76    64    63    1
    77    64    65    1
    78    66    65    1
    79    66    67    2
    80    69    67    1
    81    67    68    1
