@<TRIPOS>MOLECULE
tmp/3w4tA06.pdb
 83 76 0 0 0
SMALL
GASTEIGER

@<TRIPOS>ATOM
      1  N        -33.4790   -6.8180    4.3570 N.3    31  GLN31      -0.1245
      2  CA       -32.6960   -5.6420    3.9890 C.3    31  GLN31       0.1566
      3  C        -31.3020   -6.0630    3.5220 C.2    31  GLN31       0.2260
      4  O        -30.7740   -5.5290    2.5480 O.2    31  GLN31      -0.2867
      5  CB       -32.5990   -4.6570    5.1580 C.3    31  GLN31       0.0367
      6  CG       -33.9430   -4.1060    5.6280 C.3    31  GLN31       0.0905
      7  CD       -33.8030   -3.1660    6.8200 C.2    31  GLN31       0.2608
      8  OE1      -32.8620   -3.2760    7.6040 O.2    31  GLN31      -0.2717
      9  NE2      -34.7350   -2.2370    6.9520 N.am   31  GLN31      -0.0878
     10  N        -31.5210   -7.6440    0.0410 N.3    34  TYR34      -0.1227
     11  CA       -31.6330   -6.5930   -0.9670 C.3    34  TYR34       0.1736
     12  C        -30.2570   -6.0250   -1.3120 C.2    34  TYR34       0.2595
     13  O        -29.9070   -5.9040   -2.4830 O.2    34  TYR34      -0.2718
     14  CB       -32.5370   -5.4350   -0.5300 C.3    34  TYR34       0.0548
     15  CG       -32.1750   -4.1920   -1.3220 C.ar   34  TYR34      -0.0200
     16  CD1      -32.4790   -4.0980   -2.6750 C.ar   34  TYR34      -0.0009
     17  CD2      -31.4630   -3.1490   -0.7380 C.ar   34  TYR34      -0.0009
     18  CE1      -32.1070   -2.9940   -3.4180 C.ar   34  TYR34       0.0417
     19  CE2      -31.0930   -2.0340   -1.4710 C.ar   34  TYR34       0.0417
     20  CZ       -31.4210   -1.9620   -2.8090 C.ar   34  TYR34       0.1957
     21  OH       -31.0510   -0.8600   -3.5440 O.3    34  TYR34      -0.2866
     22  N        -29.4970   -5.6590   -0.2830 N.am   35  ASN35      -0.1974
     23  CA       -28.1700   -5.0740   -0.4750 C.3    35  ASN35       0.1688
     24  C        -27.2300   -5.9550   -1.2810 C.2    35  ASN35       0.2292
     25  O        -26.5190   -5.4640   -2.1560 O.2    35  ASN35      -0.2864
     26  CB       -27.5200   -4.7220    0.8660 C.3    35  ASN35       0.1181
     27  CG       -28.1500   -3.5150    1.5220 C.2    35  ASN35       0.2629
     28  OD1      -28.8460   -2.7350    0.8760 O.2    35  ASN35      -0.2716
     29  ND2      -27.8910   -3.3420    2.8120 N.am   35  ASN35      -0.0877
     30  N        -40.2590    6.6300    7.1970 N.3   150  ASN150     -0.1240
     31  CA       -40.3420    5.1770    7.3200 C.3   150  ASN150      0.1653
     32  C        -39.6460    4.6700    8.5810 C.2   150  ASN150      0.2266
     33  O        -40.1520    3.7870    9.2730 O.2   150  ASN150     -0.2867
     34  CB       -39.7630    4.4980    6.0730 C.3   150  ASN150      0.1155
     35  CG       -40.6860    4.6040    4.8750 C.2   150  ASN150      0.2627
     36  OD1      -41.8580    4.9450    5.0180 O.2   150  ASN150     -0.2716
     37  ND2      -40.1640    4.3030    3.6860 N.am  150  ASN150     -0.0877
     38  N        -40.7810   -3.2320    1.9440 N.3   173  GLY173     -0.1210
     39  CA       -39.8890   -2.2690    1.3150 C.3   173  GLY173      0.1956
     40  C        -38.6890   -2.8900    0.6190 C.2   173  GLY173      0.2612
     41  O        -38.4140   -2.6130   -0.5490 O.2   173  GLY173     -0.2717
     42  N        -37.9530   -3.7250    1.3360 N.am  174  SER174     -0.1952
     43  CA       -36.7750   -4.3440    0.7490 C.3   174  SER174      0.1924
     44  C        -37.1710   -5.3870   -0.2860 C.2   174  SER174      0.2314
     45  O        -36.5020   -5.5360   -1.3130 O.2   174  SER174     -0.2863
     46  CB       -35.8920   -4.9510    1.8330 C.3   174  SER174      0.2116
     47  OG       -35.6040   -3.9860    2.8260 O.3   174  SER174     -0.2180
     48  N        -38.0380   -3.6030   -3.4010 N.3   177  ASN177     -0.1240
     49  CA       -36.8050   -3.1400   -4.0250 C.3   177  ASN177      0.1653
     50  C        -36.0680   -4.2810   -4.7290 C.2   177  ASN177      0.2266
     51  O        -35.4430   -4.0690   -5.7630 O.2   177  ASN177     -0.2867
     52  CB       -35.8940   -2.4400   -3.0100 C.3   177  ASN177      0.1155
     53  CG       -34.9130   -1.4850   -3.6720 C.2   177  ASN177      0.2627
     54  OD1      -34.6470   -1.5710   -4.8810 O.2   177  ASN177     -0.2716
     55  ND2      -34.3600   -0.5790   -2.8860 N.am  177  ASN177     -0.0877
     56  N        -35.3120    1.9290   -5.6600 N.3   199  THR199     -0.1218
     57  CA       -35.2710    2.2240   -4.2330 C.3   199  THR199      0.1862
     58  C        -36.2800    3.3050   -3.8380 C.2   199  THR199      0.2287
     59  O        -36.9910    3.1550   -2.8380 O.2   199  THR199     -0.2866
     60  CB       -33.8500    2.6090   -3.7940 C.3   199  THR199      0.1770
     61  OG1      -32.9880    1.4770   -3.9600 O.3   199  THR199     -0.2211
     62  CG2      -33.8320    3.0390   -2.3410 C.3   199  THR199      0.0375
     63  N        -39.7940    1.8880   -3.9020 N.3   202  SER202     -0.1202
     64  CA       -39.9740    0.9300   -2.8150 C.3   202  SER202      0.2020
     65  C        -40.2330    1.6330   -1.4920 C.2   202  SER202      0.2618
     66  O        -41.0370    1.1750   -0.6740 O.2   202  SER202     -0.2717
     67  CB       -38.7340    0.0460   -2.6970 C.3   202  SER202      0.2103
     68  OG       -38.5130   -0.6170   -3.9270 O.3   202  SER202     -0.2182
     69  N        -39.5350    2.7420   -1.2830 N.am  203  MET203     -0.1979
     70  CA       -39.6890    3.5260   -0.0650 C.3   203  MET203      0.1605
     71  C        -41.0310    4.2330   -0.0540 C.2   203  MET203      0.2287
     72  O        -41.6810    4.3170    0.9870 O.2   203  MET203     -0.2864
     73  CB       -38.5520    4.5380    0.0560 C.3   203  MET203      0.0413
     74  CG       -37.2060    3.8780    0.3130 C.3   203  MET203      0.0598
     75  SD       -35.8280    5.0030    0.0520 S.3   203  MET203     -0.1393
     76  CE       -34.5280    4.1280    0.9280 C.3   203  MET203      0.0692
     77  N        -43.6650    1.7300    0.8490 N.3   206  THR206     -0.1218
     78  CA       -43.5570    1.4640    2.2830 C.3   206  THR206      0.1862
     79  C        -44.2480    2.5740    3.0820 C.2   206  THR206      0.2287
     80  O        -45.0080    2.3080    4.0100 O.2   206  THR206     -0.2866
     81  CB       -42.0860    1.3310    2.7320 C.3   206  THR206      0.1770
     82  OG1      -41.4680    0.2420    2.0350 O.3   206  THR206     -0.2211
     83  CG2      -41.9960    1.0670    4.2340 C.3   206  THR206      0.0375
@<TRIPOS>BOND
     1    51    50    2
     2    56    57    1
     3    54    53    2
     4    50    49    1
     5    57    58    1
     6    57    60    1
     7    49    48    1
     8    49    52    1
     9    61    60    1
    10    68    67    1
    11    63    64    1
    12    58    59    2
    13    60    62    1
    14    53    52    1
    15    53    55   am
    16    21    20    1
    17    18    20   ar
    18    18    16   ar
    19    64    67    1
    20    64    65    1
    21    20    19   ar
    22    16    15   ar
    23    13    12    2
    24    25    24    2
    25    65    69   am
    26    65    66    2
    27    19    17   ar
    28    15    17   ar
    29    15    14    1
    30    45    44    2
    31    12    11    1
    32    12    22   am
    33    69    70    1
    34    24    23    1
    35    11    14    1
    36    11    10    1
    37    41    40    2
    38    23    22    1
    39    23    26    1
    40    44    43    1
    41    70    71    1
    42    70    73    1
    43    71    72    2
    44    75    74    1
    45    75    76    1
    46    73    74    1
    47    40    39    1
    48    40    42   am
    49    43    42    1
    50    43    46    1
    51    77    78    1
    52    26    27    1
    53    28    27    2
    54    39    38    1
    55    27    29   am
    56    46    47    1
    57    82    81    1
    58    78    81    1
    59    78    79    1
    60     4     3    2
    61    81    83    1
    62    79    80    2
    63     3     2    1
    64    37    35   am
    65     2     1    1
    66     2     5    1
    67    35    36    2
    68    35    34    1
    69     5     6    1
    70     6     7    1
    71    34    31    1
    72     7     9   am
    73     7     8    2
    74    30    31    1
    75    31    32    1
    76    32    33    2
