@<TRIPOS>MOLECULE
tmp/3w4tA01.pdb
 87 77 0 0 0
SMALL
GASTEIGER

@<TRIPOS>ATOM
      1  N        -35.6160  -10.9280   11.0420 N.3    26  ILE26      -0.1245
      2  CA       -36.2400  -11.2800    9.7650 C.3    26  ILE26       0.1561
      3  C        -36.2700  -10.0600    8.8430 C.2    26  ILE26       0.2260
      4  O        -35.8880  -10.1420    7.6710 O.2    26  ILE26      -0.2867
      5  CB       -37.6730  -11.8270    9.9630 C.3    26  ILE26       0.0252
      6  CG1      -37.6180  -13.2390   10.5510 C.3    26  ILE26       0.0019
      7  CG2      -38.4490  -11.8390    8.6450 C.3    26  ILE26       0.0019
      8  CD1      -38.9640  -13.7750   11.0220 C.3    26  ILE26       0.0001
      9  N        -33.9480   -9.3700    5.2880 N.3    30  VAL30      -0.1245
     10  CA       -34.4450   -9.0230    3.9630 C.3    30  VAL30       0.1561
     11  C        -33.7470   -7.7600    3.4570 C.2    30  VAL30       0.2260
     12  O        -33.4390   -7.6500    2.2710 O.2    30  VAL30      -0.2867
     13  CB       -35.9830   -8.8650    3.9290 C.3    30  VAL30       0.0252
     14  CG1      -36.4500   -8.5470    2.5110 C.3    30  VAL30       0.0019
     15  CG2      -36.6550  -10.1490    4.4190 C.3    30  VAL30       0.0019
     16  N        -30.4660   -9.0430    2.2290 N.3    33  LEU33      -0.1245
     17  CA       -30.6170   -9.7220    0.9490 C.3    33  LEU33       0.1561
     18  C        -30.7480   -8.7050   -0.1840 C.2    33  LEU33       0.2260
     19  O        -30.1580   -8.8850   -1.2520 O.2    33  LEU33      -0.2867
     20  CB       -31.8210  -10.6710    0.9630 C.3    33  LEU33       0.0270
     21  CG       -31.7160  -11.9430    1.8070 C.3    33  LEU33       0.0019
     22  CD1      -33.0100  -12.7340    1.7470 C.3    33  LEU33       0.0001
     23  CD2      -30.5530  -12.8070    1.3400 C.3    33  LEU33       0.0001
     24  N        -27.2240   -7.2510   -0.9800 N.3    36  LEU36      -0.1231
     25  CA       -26.3740   -8.2010   -1.6930 C.3    36  LEU36       0.1693
     26  C        -26.7790   -8.3140   -3.1610 C.2    36  LEU36       0.2591
     27  O        -25.9310   -8.3100   -4.0570 O.2    36  LEU36      -0.2718
     28  CB       -26.4270   -9.5850   -1.0340 C.3    36  LEU36       0.0284
     29  CG       -25.8340   -9.7400    0.3710 C.3    36  LEU36       0.0019
     30  CD1      -25.8940  -11.1940    0.8480 C.3    36  LEU36       0.0001
     31  CD2      -24.4060   -9.2140    0.4240 C.3    36  LEU36       0.0001
     32  N        -28.0820   -8.4270   -3.4000 N.am   37  ALA37      -0.1980
     33  CA       -28.5960   -8.5230   -4.7580 C.3    37  ALA37       0.1597
     34  C        -28.2940   -7.2460   -5.5510 C.2    37  ALA37       0.2287
     35  O        -27.8780   -7.3170   -6.7070 O.2    37  ALA37      -0.2864
     36  CB       -30.0910   -8.8240   -4.7480 C.3    37  ALA37       0.0319
     37  N        -24.7830   -7.0060   -6.7090 N.3    40  ILE40      -0.1245
     38  CA       -24.5530   -7.8620   -7.8650 C.3    40  ILE40       0.1561
     39  C        -25.0440   -7.2330   -9.1810 C.2    40  ILE40       0.2260
     40  O        -24.3070   -7.2090  -10.1700 O.2    40  ILE40      -0.2867
     41  CB       -25.1780   -9.2600   -7.6510 C.3    40  ILE40       0.0252
     42  CG1      -24.4660   -9.9880   -6.5010 C.3    40  ILE40       0.0019
     43  CG2      -25.1000  -10.0840   -8.9230 C.3    40  ILE40       0.0019
     44  CD1      -25.1730  -11.2490   -6.0160 C.3    40  ILE40       0.0001
     45  N        -44.8730   -7.3900   14.7220 N.3   164  ASN164     -0.1240
     46  CA       -45.4100   -7.8810   13.4660 C.3   164  ASN164      0.1653
     47  C        -45.3440   -6.8630   12.3190 C.2   164  ASN164      0.2266
     48  O        -44.8180   -7.1590   11.2420 O.2   164  ASN164     -0.2867
     49  CB       -46.8410   -8.3730   13.6650 C.3   164  ASN164      0.1155
     50  CG       -47.3480   -9.1440   12.4750 C.2   164  ASN164      0.2627
     51  OD1      -46.8270  -10.2100   12.1570 O.2   164  ASN164     -0.2716
     52  ND2      -48.3660   -8.6130   11.8060 N.am  164  ASN164     -0.0877
     53  N        -41.7790   -5.4800   11.3980 N.3   167  MET167     -0.1230
     54  CA       -41.1570   -6.4740   10.5280 C.3   167  MET167      0.1702
     55  C        -41.7280   -6.3880    9.1150 C.2   167  MET167      0.2592
     56  O        -40.9810   -6.3390    8.1360 O.2   167  MET167     -0.2718
     57  CB       -41.3660   -7.8840   11.0930 C.3   167  MET167      0.0401
     58  CG       -41.0120   -9.0130   10.1100 C.3   167  MET167      0.0596
     59  SD       -41.2910  -10.6740   10.7790 S.3   167  MET167     -0.1393
     60  CE       -43.0540  -10.6030   11.1220 C.3   167  MET167      0.0692
     61  N        -43.0550   -6.3620    9.0180 N.am  168  LEU168     -0.1980
     62  CA       -43.7290   -6.3320    7.7250 C.3   168  LEU168      0.1596
     63  C        -43.2970   -5.1310    6.8730 C.2   168  LEU168      0.2287
     64  O        -43.0200   -5.2750    5.6830 O.2   168  LEU168     -0.2864
     65  CB       -45.2480   -6.3340    7.9200 C.3   168  LEU168      0.0297
     66  CG       -46.1150   -6.2980    6.6580 C.3   168  LEU168      0.0022
     67  CD1      -45.8140   -7.4860    5.7450 C.3   168  LEU168      0.0001
     68  CD2      -47.6010   -6.2730    7.0230 C.3   168  LEU168      0.0001
     69  N        -39.9640   -5.8370    5.3510 N.3   171  VAL171     -0.1245
     70  CA       -40.0700   -6.8890    4.3410 C.3   171  VAL171      0.1561
     71  C        -40.6740   -6.3500    3.0450 C.2   171  VAL171      0.2260
     72  O        -40.1580   -6.6050    1.9560 O.2   171  VAL171     -0.2867
     73  CB       -40.9170   -8.0750    4.8620 C.3   171  VAL171      0.0252
     74  CG1      -41.2090   -9.0800    3.7390 C.3   171  VAL171      0.0019
     75  CG2      -40.2100   -8.7630    6.0280 C.3   171  VAL171      0.0019
     76  N        -38.2620   -6.1030   -0.0160 N.3   175  GLY175     -0.1225
     77  CA       -38.7760   -7.0950   -0.9460 C.3   175  GLY175      0.1811
     78  C        -39.1760   -6.4640   -2.2690 C.2   175  GLY175      0.2280
     79  O        -38.8580   -6.9860   -3.3350 O.2   175  GLY175     -0.2866
     80  N        -36.1580   -5.4910   -4.1710 N.3   178  ILE178     -0.1245
     81  CA       -35.5560   -6.6750   -4.7920 C.3   178  ILE178      0.1561
     82  C        -36.2040   -6.9810   -6.1460 C.2   178  ILE178      0.2260
     83  O        -35.5200   -7.3220   -7.1170 O.2   178  ILE178     -0.2867
     84  CB       -35.6380   -7.9190   -3.8520 C.3   178  ILE178      0.0252
     85  CG1      -34.5880   -7.8270   -2.7380 C.3   178  ILE178      0.0019
     86  CG2      -35.4330   -9.2160   -4.6210 C.3   178  ILE178      0.0019
     87  CD1      -34.7380   -8.8960   -1.6380 C.3   178  ILE178      0.0001
@<TRIPOS>BOND
     1    40    39    2
     2    39    38    1
     3    43    41    1
     4    38    41    1
     5    38    37    1
     6    41    42    1
     7    83    82    2
     8    35    34    2
     9    42    44    1
    10    82    81    1
    11    34    33    1
    12    81    80    1
    13    81    84    1
    14    33    36    1
    15    33    32    1
    16    86    84    1
    17    27    26    2
    18    84    85    1
    19    32    26   am
    20    79    78    2
    21    26    25    1
    22    85    87    1
    23    78    77    1
    24    25    28    1
    25    25    24    1
    26    19    18    2
    27    28    29    1
    28    77    76    1
    29    18    17    1
    30    29    31    1
    31    29    30    1
    32    17    20    1
    33    17    16    1
    34    20    21    1
    35    23    21    1
    36    22    21    1
    37    72    71    2
    38    12    11    2
    39    14    13    1
    40    71    70    1
    41    11    10    1
    42    74    73    1
    43    13    10    1
    44    13    15    1
    45    10     9    1
    46    70    73    1
    47    70    69    1
    48    73    75    1
    49    64    63    2
    50    67    66    1
    51    66    68    1
    52    66    65    1
    53    63    62    1
    54     4     3    2
    55    62    65    1
    56    62    61    1
    57    56    55    2
    58     7     5    1
    59     3     2    1
    60    61    55   am
    61    55    54    1
    62     2     5    1
    63     2     1    1
    64     5     6    1
    65    58    59    1
    66    58    57    1
    67    54    57    1
    68    54    53    1
    69     6     8    1
    70    59    60    1
    71    48    47    2
    72    52    50   am
    73    51    50    2
    74    47    46    1
    75    50    49    1
    76    46    49    1
    77    46    45    1
