@<TRIPOS>MOLECULE
tmp/3w51B00.pdb
 114 111 0 0 0
SMALL
GASTEIGER

@<TRIPOS>ATOM
      1  N          8.4250    6.1890  -20.5800 N.3    79  PHE79      -0.1227
      2  CA         9.3950    6.3330  -19.5190 C.3    79  PHE79       0.1736
      3  C          8.7540    6.5080  -18.1550 C.2    79  PHE79       0.2595
      4  O          7.6430    7.0430  -18.0530 O.2    79  PHE79      -0.2718
      5  CB        10.3190    7.5240  -19.8360 C.3    79  PHE79       0.0547
      6  CG        11.1210    7.2830  -21.0350 C.ar   79  PHE79      -0.0202
      7  CD1       12.2630    6.4150  -20.9910 C.ar   79  PHE79      -0.0042
      8  CD2       10.6870    7.7910  -22.2780 C.ar   79  PHE79      -0.0042
      9  CE1       12.9640    6.1920  -22.1350 C.ar   79  PHE79      -0.0003
     10  CE2       11.3980    7.5380  -23.4480 C.ar   79  PHE79      -0.0003
     11  CZ        12.5450    6.6960  -23.3700 C.ar   79  PHE79      -0.0000
     12  N          9.4540    6.0880  -17.1000 N.am   80  HIS80      -0.1961
     13  CA         8.9870    6.3280  -15.7370 C.3    80  HIS80       0.1787
     14  C         10.1850    6.6620  -14.8930 C.2    80  HIS80       0.2621
     15  O         11.1220    5.8460  -14.8190 O.2    80  HIS80      -0.2715
     16  CB         8.2640    5.1010  -15.1160 C.3    80  HIS80       0.0785
     17  CG         7.7960    5.3720  -13.7050 C.ar   80  HIS80       0.0821
     18  ND1        6.6400    6.0890  -13.4390 N.ar   80  HIS80      -0.2267
     19  CD2        8.3450    5.0760  -12.4900 C.ar   80  HIS80       0.1154
     20  CE1        6.5050    6.2260  -12.1260 C.ar   80  HIS80       0.1986
     21  NE2        7.5010    5.5820  -11.5270 N.ar   80  HIS80      -0.2212
     22  N         10.1770    7.8210  -14.2380 N.am   81  GLY81      -0.1940
     23  CA        11.3290    8.2390  -13.3880 C.3    81  GLY81       0.2014
     24  C         10.8270    8.2750  -11.9460 C.2    81  GLY81       0.2639
     25  O          9.6870    8.7260  -11.6680 O.2    81  GLY81      -0.2714
     26  N         11.6450    7.8120  -11.0170 N.am   82  SER82      -0.1949
     27  CA        11.1540    7.6640   -9.6100 C.3    82  SER82       0.1924
     28  C         12.3630    7.5250   -8.7310 C.2    82  SER82       0.2314
     29  O         13.4760    7.2760   -9.2640 O.2    82  SER82      -0.2863
     30  CB        10.1920    6.4460   -9.5380 C.3    82  SER82       0.2116
     31  OG         9.8140    6.1700   -8.2050 O.3    82  SER82      -0.2180
     32  N          3.5470    3.8090   -5.6800 N.3    97  HIS97      -0.1241
     33  CA         4.1860    4.4940   -6.8320 C.3    97  HIS97       0.1621
     34  C          3.2740    5.5280   -7.4870 C.2    97  HIS97       0.2264
     35  O          3.6360    6.1440   -8.4710 O.2    97  HIS97      -0.2867
     36  CB         4.8120    3.4940   -7.8240 C.3    97  HIS97       0.0745
     37  CG         5.7150    2.5450   -7.1180 C.ar   97  HIS97       0.0817
     38  ND1        5.4870    1.1880   -7.0830 N.ar   97  HIS97      -0.2268
     39  CD2        6.7500    2.7830   -6.2710 C.ar   97  HIS97       0.1154
     40  CE1        6.3820    0.6180   -6.2900 C.ar   97  HIS97       0.1986
     41  NE2        7.1570    1.5650   -5.7830 N.ar   97  HIS97      -0.2212
     42  N          1.1810    9.0180   -7.7500 N.3    99  TYR99      -0.1241
     43  CA         1.4850   10.4010   -7.4550 C.3    99  TYR99       0.1605
     44  C          0.1570   10.9700   -6.9730 C.2    99  TYR99       0.2264
     45  O         -0.7230   11.3310   -7.7830 O.2    99  TYR99      -0.2867
     46  CB         1.9510   11.0480   -8.7420 C.3    99  TYR99       0.0534
     47  CG         2.2360   12.4990   -8.6810 C.ar   99  TYR99      -0.0201
     48  CD1        2.4170   13.1510   -7.4480 C.ar   99  TYR99      -0.0009
     49  CD2        2.3470   13.2480   -9.8800 C.ar   99  TYR99      -0.0009
     50  CE1        2.7100   14.5030   -7.4010 C.ar   99  TYR99       0.0417
     51  CE2        2.6710   14.6090   -9.8390 C.ar   99  TYR99       0.0417
     52  CZ         2.8200   15.2180   -8.5880 C.ar   99  TYR99       0.1957
     53  OH         3.1130   16.5270   -8.5400 O.3    99  TYR99      -0.2866
     54  N          2.2880    7.6990  -13.1470 N.3   109  TYR109     -0.1241
     55  CA         2.5000    8.5830  -14.2840 C.3   109  TYR109      0.1605
     56  C          3.6640    8.0680  -15.1290 C.2   109  TYR109      0.2264
     57  O          4.6610    7.6090  -14.5580 O.2   109  TYR109     -0.2867
     58  CB         2.8820    9.9860  -13.7800 C.3   109  TYR109      0.0534
     59  CG         1.6440   10.7400  -13.2920 C.ar  109  TYR109     -0.0201
     60  CD1        0.8660   10.2220  -12.2290 C.ar  109  TYR109     -0.0009
     61  CD2        1.2410   11.9420  -13.9060 C.ar  109  TYR109     -0.0009
     62  CE1       -0.3230   10.8790  -11.8050 C.ar  109  TYR109      0.0417
     63  CE2        0.0740   12.6180  -13.4810 C.ar  109  TYR109      0.0417
     64  CZ        -0.7120   12.0670  -12.4560 C.ar  109  TYR109      0.1957
     65  OH        -1.8700   12.7410  -12.0480 O.3   109  TYR109     -0.2866
     66  N          5.7090    8.9710  -19.1300 N.3   111  ALA111     -0.1245
     67  CA         5.8960   10.0950  -20.0610 C.3   111  ALA111      0.1562
     68  C          6.4850    9.6110  -21.4080 C.2   111  ALA111      0.2260
     69  O          7.3160    8.6800  -21.4330 O.2   111  ALA111     -0.2867
     70  CB         6.7780   11.1510  -19.4380 C.3   111  ALA111      0.0290
     71  N         11.0200   14.5050  -19.3530 N.3   116  LYS116     -0.1231
     72  CA         9.9230   14.7050  -18.3980 C.3   116  LYS116      0.1693
     73  C         10.1300   13.6650  -17.2500 C.2   116  LYS116      0.2592
     74  O         10.0880   14.0250  -16.0710 O.2   116  LYS116     -0.2718
     75  CB         8.5510   14.4840  -19.0690 C.3   116  LYS116      0.0285
     76  CG         7.3660   14.4140  -18.0920 C.3   116  LYS116      0.0035
     77  CD         7.2090   15.5730  -17.0770 C.3   116  LYS116      0.0206
     78  CE         6.9120   16.9270  -17.7080 C.3   116  LYS116      0.1093
     79  NZ         6.8360   18.0390  -16.6820 N.3   116  LYS116     -0.1314
     80  N         10.3230   12.3760  -17.6020 N.am  117  SER117     -0.1952
     81  CA        10.5640   11.3720  -16.5450 C.3   117  SER117      0.1924
     82  C         11.8330   11.7200  -15.7290 C.2   117  SER117      0.2314
     83  O         11.8690   11.5090  -14.5240 O.2   117  SER117     -0.2863
     84  CB        10.6130    9.9490  -17.1060 C.3   117  SER117      0.2116
     85  OG         9.3230    9.6250  -17.6040 O.3   117  SER117     -0.2180
     86  N         11.6860   13.6090  -12.3320 N.3   120  TYR120     -0.1241
     87  CA        11.1050   12.8950  -11.1590 C.3   120  TYR120      0.1605
     88  C         12.0770   11.8790  -10.5420 C.2   120  TYR120      0.2264
     89  O         11.7270   11.1910   -9.5720 O.2   120  TYR120     -0.2867
     90  CB         9.8210   12.1430  -11.5710 C.3   120  TYR120      0.0534
     91  CG         8.7240   13.1200  -11.8260 C.ar  120  TYR120     -0.0201
     92  CD1        7.9370   13.5920  -10.7830 C.ar  120  TYR120     -0.0009
     93  CD2        8.5660   13.6950  -13.0900 C.ar  120  TYR120     -0.0009
     94  CE1        6.9380   14.5360  -10.9990 C.ar  120  TYR120      0.0417
     95  CE2        7.5920   14.6650  -13.3060 C.ar  120  TYR120      0.0417
     96  CZ         6.8000   15.0760  -12.2630 C.ar  120  TYR120      0.1957
     97  OH         5.8480   16.0270  -12.4960 O.3   120  TYR120     -0.2866
     98  N          9.4640   14.3500   -6.4990 N.3   124  ILE124     -0.1245
     99  CA         8.5130   15.2830   -7.1190 C.3   124  ILE124      0.1561
    100  C          9.2820   16.5950   -7.2600 C.2   124  ILE124      0.2260
    101  O          9.9850   17.0530   -6.3270 O.2   124  ILE124     -0.2867
    102  CB         7.2590   15.4930   -6.2730 C.3   124  ILE124      0.0252
    103  CG1        6.5250   14.1810   -5.9000 C.3   124  ILE124      0.0019
    104  CG2        6.2990   16.5170   -7.0060 C.3   124  ILE124      0.0019
    105  CD1        5.9940   13.2370   -7.0470 C.3   124  ILE124      0.0001
    106  N          1.6220   12.7150  -21.3070 N.3   186  GLU186     -0.1245
    107  CA         1.7850   11.8440  -20.1570 C.3   186  GLU186      0.1567
    108  C          0.5840   10.9760  -20.0560 C.2   186  GLU186      0.2260
    109  O         -0.5070   11.3490  -20.5600 O.2   186  GLU186     -0.2867
    110  CB         1.8580   12.6530  -18.8650 C.3   186  GLU186      0.0388
    111  CG         3.0630   13.5680  -18.7880 C.3   186  GLU186      0.1160
    112  CD         3.0750   14.3470  -17.4400 C.2   186  GLU186      0.3649
    113  OE1        3.6730   15.4190  -17.3730 O.co2 186  GLU186     -0.2457
    114  OE2        2.4570   13.8860  -16.4480 O.co2 186  GLU186     -0.2457
@<TRIPOS>BOND
     1    10    11   ar
     2    10     8   ar
     3    11     9   ar
     4     8     6   ar
     5     9     7   ar
     6    69    68    2
     7    68    67    1
     8   106   107    1
     9     6     7   ar
    10     6     5    1
    11     1     2    1
    12   109   108    2
    13   107   108    1
    14   107   110    1
    15    67    70    1
    16    67    66    1
    17     5     2    1
    18     2     3    1
    19    71    72    1
    20    75    72    1
    21    75    76    1
    22   110   111    1
    23   111   112    1
    24    72    73    1
    25     3     4    2
    26     3    12   am
    27    76    77    1
    28    78    77    1
    29    78    79    1
    30    85    84    1
    31    80    73   am
    32    80    81    1
    33   112   113   ar
    34   112   114   ar
    35    73    74    2
    36    84    81    1
    37    12    13    1
    38    81    82    1
    39    13    16    1
    40    13    14    1
    41    82    83    2
    42    56    57    2
    43    56    55    1
    44    16    17    1
    45    14    15    2
    46    14    22   am
    47    55    58    1
    48    55    54    1
    49    22    23    1
    50    61    63   ar
    51    61    59   ar
    52    58    59    1
    53    17    18   ar
    54    17    19   ar
    55    63    64   ar
    56    18    20   ar
    57    23    24    1
    58    95    93   ar
    59    95    96   ar
    60    59    60   ar
    61    93    91   ar
    62    97    96    1
    63    19    21   ar
    64    64    65    1
    65    64    62   ar
    66    86    87    1
    67    96    94   ar
    68    60    62   ar
    69    20    21   ar
    70    24    25    2
    71    24    26   am
    72    91    90    1
    73    91    92   ar
    74    90    87    1
    75    87    88    1
    76    26    27    1
    77    94    92   ar
    78    88    89    2
    79    49    51   ar
    80    49    47   ar
    81    51    52   ar
    82    27    30    1
    83    27    28    1
    84    30    31    1
    85    29    28    2
    86    46    47    1
    87    46    43    1
    88    47    48   ar
    89    52    53    1
    90    52    50   ar
    91    35    34    2
    92    36    37    1
    93    36    33    1
    94    45    44    2
    95    42    43    1
    96    34    33    1
    97    43    44    1
    98    48    50   ar
    99   100    99    1
   100   100   101    2
   101    99    98    1
   102    99   102    1
   103    37    38   ar
   104    37    39   ar
   105    38    40   ar
   106   105   103    1
   107   104   102    1
   108    33    32    1
   109    40    41   ar
   110   102   103    1
   111    39    41   ar
