@<TRIPOS>MOLECULE
tmp/3w52A00.pdb
 133 128 0 0 0
SMALL
GASTEIGER

@<TRIPOS>ATOM
      1  N         18.8900    5.9190  -23.4380 N.3    53  TRP53      -0.1241
      2  CA        17.5420    5.4290  -23.4300 C.3    53  TRP53       0.1605
      3  C         17.5700    4.0590  -22.7190 C.2    53  TRP53       0.2264
      4  O         16.5270    3.5520  -22.3720 O.2    53  TRP53      -0.2867
      5  CB        17.0400    5.1510  -24.8600 C.3    53  TRP53       0.0550
      6  CG        18.0650    4.4240  -25.7590 C.ar   53  TRP53       0.0003
      7  CD1       18.9450    5.0080  -26.6300 C.ar   53  TRP53       0.0946
      8  CD2       18.2780    2.9970  -25.8740 C.ar   53  TRP53       0.0152
      9  NE1       19.6890    4.0470  -27.2810 N.ar   53  TRP53      -0.2442
     10  CE2       19.2930    2.8050  -26.8450 C.ar   53  TRP53       0.0810
     11  CE3       17.6990    1.8610  -25.2500 C.ar   53  TRP53       0.0012
     12  CZ2       19.7630    1.5080  -27.2310 C.ar   53  TRP53       0.0191
     13  CZ3       18.1630    0.5850  -25.6280 C.ar   53  TRP53       0.0001
     14  CH2       19.1870    0.4240  -26.6100 C.ar   53  TRP53       0.0015
     15  N         16.0940    0.8410  -18.2050 N.3    57  LEU57      -0.1245
     16  CA        15.7790   -0.5560  -18.4960 C.3    57  LEU57       0.1561
     17  C         16.4120   -1.5020  -17.4840 C.2    57  LEU57       0.2260
     18  O         16.1750   -2.7020  -17.5810 O.2    57  LEU57      -0.2867
     19  CB        16.2680   -0.9520  -19.9120 C.3    57  LEU57       0.0270
     20  CG        15.6390   -0.0830  -21.0370 C.3    57  LEU57       0.0019
     21  CD1       16.1350   -0.6280  -22.4020 C.3    57  LEU57       0.0001
     22  CD2       14.0970   -0.0550  -20.9470 C.3    57  LEU57       0.0001
     23  N          6.6040    6.7270  -20.1290 N.3    80  GLU80      -0.1245
     24  CA         6.5110    5.8340  -21.2860 C.3    80  GLU80       0.1567
     25  C          6.4030    4.3760  -20.8330 C.2    80  GLU80       0.2260
     26  O          7.3260    3.8430  -20.2070 O.2    80  GLU80      -0.2867
     27  CB         7.7230    6.0050  -22.2280 C.3    80  GLU80       0.0388
     28  CG         7.3820    5.5590  -23.6450 C.3    80  GLU80       0.1160
     29  CD         8.5300    5.7020  -24.6510 C.2    80  GLU80       0.3649
     30  OE1        9.4700    6.4980  -24.3910 O.co2  80  GLU80      -0.2457
     31  OE2        8.4800    5.0290  -25.7160 O.co2  80  GLU80      -0.2457
     32  N          6.4080    0.3600  -20.5950 N.3    82  GLY82      -0.1210
     33  CA         7.3460   -0.6240  -21.1060 C.3    82  GLY82       0.1956
     34  C          8.8120   -0.3380  -20.8590 C.2    82  GLY82       0.2611
     35  O          9.6310   -1.2320  -21.0420 O.2    82  GLY82      -0.2717
     36  N          9.1530    0.8530  -20.3900 N.am   83  ARG83      -0.1979
     37  CA        10.5460    1.1740  -20.1950 C.3    83  ARG83       0.1597
     38  C         11.0370    0.8830  -18.7780 C.2    83  ARG83       0.2287
     39  O         11.1980    1.7660  -17.9490 O.2    83  ARG83      -0.2864
     40  CB        10.7590    2.6350  -20.6200 C.3    83  ARG83       0.0334
     41  CG        10.2960    2.7260  -22.0970 C.3    83  ARG83       0.0492
     42  CD        11.0800    3.7470  -22.8370 C.3    83  ARG83       0.2205
     43  NE        12.4740    3.3840  -23.0170 N.pl3  83  ARG83      -0.0865
     44  CZ        12.9510    2.6330  -23.9920 C.cat  83  ARG83       0.5346
     45  NH1       12.1380    2.1190  -24.9100 N.pl3  83  ARG83       0.1354
     46  NH2       14.2650    2.4530  -24.0760 N.pl3  83  ARG83       0.1354
     47  N          9.8880   -4.8700  -19.1290 N.3    87  GLY87      -0.1210
     48  CA         9.6630   -4.5700  -20.5540 C.3    87  GLY87       0.1956
     49  C         10.8760   -4.8070  -21.4420 C.2    87  GLY87       0.2611
     50  O         10.7020   -5.1880  -22.6010 O.2    87  GLY87      -0.2717
     51  N         12.0900   -4.5980  -20.9170 N.am   88  ALA88      -0.1979
     52  CA        13.3030   -4.8210  -21.6870 C.3    88  ALA88       0.1597
     53  C         13.4420   -6.3200  -21.9380 C.2    88  ALA88       0.2287
     54  O         13.8460   -6.7450  -23.0290 O.2    88  ALA88      -0.2864
     55  CB        14.4950   -4.3320  -20.9240 C.3    88  ALA88       0.0319
     56  N         11.1650   -7.2660  -24.6250 N.3    91  ASN91      -0.1225
     57  CA        11.6800   -6.7270  -25.8970 C.3    91  ASN91       0.1785
     58  C         12.8130   -7.5480  -26.5060 C.2    91  ASN91       0.2597
     59  O         12.7620   -7.9790  -27.6770 O.2    91  ASN91      -0.2718
     60  CB        12.1470   -5.2710  -25.6320 C.3    91  ASN91       0.1169
     61  CG        12.7300   -4.5930  -26.8570 C.2    91  ASN91       0.2627
     62  OD1       12.2660   -4.8010  -28.0000 O.2    91  ASN91      -0.2716
     63  ND2       13.7510   -3.7730  -26.5950 N.am   91  ASN91      -0.0877
     64  N         13.8750   -7.7760  -25.7250 N.am   92  TYR92      -0.1976
     65  CA        15.0330   -8.4550  -26.2430 C.3    92  TYR92       0.1639
     66  C         14.8260   -9.9530  -26.4310 C.2    92  TYR92       0.2290
     67  O         15.4340  -10.5600  -27.3290 O.2    92  TYR92      -0.2864
     68  CB        16.2750   -8.1270  -25.3790 C.3    92  TYR92       0.0560
     69  CG        16.6770   -6.6790  -25.5200 C.ar   92  TYR92      -0.0198
     70  CD1       17.1720   -6.1830  -26.7440 C.ar   92  TYR92      -0.0009
     71  CD2       16.4760   -5.7840  -24.4760 C.ar   92  TYR92      -0.0009
     72  CE1       17.4480   -4.8020  -26.8950 C.ar   92  TYR92       0.0417
     73  CE2       16.7410   -4.3740  -24.6190 C.ar   92  TYR92       0.0417
     74  CZ        17.2220   -3.9210  -25.8410 C.ar   92  TYR92       0.1957
     75  OH        17.4560   -2.5900  -26.0330 O.3    92  TYR92      -0.2866
     76  N         13.1730  -10.2060  -29.7460 N.3    95  GLN95      -0.1245
     77  CA        14.1320  -10.0210  -30.8550 C.3    95  GLN95       0.1566
     78  C         14.9440  -11.2890  -31.1320 C.2    95  GLN95       0.2260
     79  O         15.2990  -11.5720  -32.2850 O.2    95  GLN95      -0.2867
     80  CB        15.1460   -8.9330  -30.5480 C.3    95  GLN95       0.0367
     81  CG        14.4920   -7.5810  -30.4080 C.3    95  GLN95       0.0905
     82  CD        15.4540   -6.5220  -29.9360 C.2    95  GLN95       0.2608
     83  OE1       16.6650   -6.6070  -30.1440 O.2    95  GLN95      -0.2717
     84  NE2       14.8970   -5.4850  -29.3280 N.am   95  GLN95      -0.0878
     85  N         14.9990   -3.9140  -37.8160 N.3   101  GLN101     -0.1231
     86  CA        15.8370   -5.1100  -37.4910 C.3   101  GLN101      0.1698
     87  C         16.9840   -4.8030  -36.5290 C.2   101  GLN101      0.2592
     88  O         17.6180   -3.7460  -36.5680 O.2   101  GLN101     -0.2718
     89  CB        16.3710   -5.7630  -38.7280 C.3   101  GLN101      0.0381
     90  CG        16.4320   -7.2360  -38.5420 C.3   101  GLN101      0.0905
     91  CD        17.7250   -7.7310  -39.0320 C.2   101  GLN101      0.2608
     92  OE1       18.7210   -7.0070  -38.9660 O.2   101  GLN101     -0.2717
     93  NE2       17.7560   -8.9610  -39.5270 N.am  101  GLN101     -0.0878
     94  N         17.2980   -5.8060  -35.7270 N.am  102  TYR102     -0.1962
     95  CA        18.1890   -5.6040  -34.6140 C.3   102  TYR102      0.1771
     96  C         19.5020   -6.3280  -34.5490 C.2   102  TYR102      0.2619
     97  O         19.6900   -7.3650  -35.1680 O.2   102  TYR102     -0.2715
     98  CB        17.3610   -5.9320  -33.3740 C.3   102  TYR102      0.0574
     99  CG        16.0700   -5.1480  -33.2560 C.ar  102  TYR102     -0.0198
    100  CD1       16.0700   -3.8090  -32.8350 C.ar  102  TYR102     -0.0009
    101  CD2       14.8380   -5.7580  -33.5010 C.ar  102  TYR102     -0.0009
    102  CE1       14.8460   -3.1070  -32.6590 C.ar  102  TYR102      0.0417
    103  CE2       13.6260   -5.0690  -33.3210 C.ar  102  TYR102      0.0417
    104  CZ        13.6370   -3.7590  -32.9090 C.ar  102  TYR102      0.1957
    105  OH        12.4250   -3.0840  -32.7570 O.3   102  TYR102     -0.2866
    106  N         20.3970   -5.7570  -33.7460 N.am  103  ASN103     -0.1972
    107  CA        21.6920   -6.3230  -33.5320 C.3   103  ASN103      0.1688
    108  C         21.3930   -7.4480  -32.5220 C.2   103  ASN103      0.2292
    109  O         21.1100   -7.1380  -31.3680 O.2   103  ASN103     -0.2864
    110  CB        22.6370   -5.2530  -32.9340 C.3   103  ASN103      0.1181
    111  CG        24.0120   -5.7760  -32.7190 C.2   103  ASN103      0.2629
    112  OD1       24.1850   -6.9080  -32.2390 O.2   103  ASN103     -0.2716
    113  ND2       25.0220   -4.9880  -33.0380 N.am  103  ASN103     -0.0877
    114  N         23.7490   -7.6060  -29.3460 N.3   106  GLU106     -0.1245
    115  CA        23.2800   -6.7360  -28.2620 C.3   106  GLU106      0.1567
    116  C         22.0580   -7.3210  -27.5520 C.2   106  GLU106      0.2260
    117  O         21.9690   -7.2380  -26.3030 O.2   106  GLU106     -0.2867
    118  CB        22.9450   -5.2940  -28.7740 C.3   106  GLU106      0.0388
    119  CG        24.1950   -4.5460  -29.2160 C.3   106  GLU106      0.1160
    120  CD        23.9280   -3.0530  -29.5460 C.2   106  GLU106      0.3649
    121  OE1       22.7480   -2.6770  -29.7250 O.co2 106  GLU106     -0.2457
    122  OE2       24.9170   -2.2740  -29.6560 O.co2 106  GLU106     -0.2457
    123  N         21.9010   -7.8710  -23.6460 N.3   110  PHE110     -0.1241
    124  CA        20.9170   -7.1600  -22.8420 C.3   110  PHE110      0.1605
    125  C         20.0660   -8.2270  -22.1010 C.2   110  PHE110      0.2264
    126  O         19.8440   -8.1080  -20.8960 O.2   110  PHE110     -0.2867
    127  CB        19.9990   -6.3140  -23.6870 C.3   110  PHE110      0.0534
    128  CG        20.5780   -4.9560  -24.0490 C.ar  110  PHE110     -0.0203
    129  CD1       21.0210   -4.0870  -23.0630 C.ar  110  PHE110     -0.0042
    130  CD2       20.5740   -4.5330  -25.3800 C.ar  110  PHE110     -0.0042
    131  CE1       21.4380   -2.7660  -23.3820 C.ar  110  PHE110     -0.0003
    132  CE2       21.0070   -3.2210  -25.7180 C.ar  110  PHE110     -0.0003
    133  CZ        21.4260   -2.3380  -24.7240 C.ar  110  PHE110     -0.0000
@<TRIPOS>BOND
     1    93    91   am
     2    91    92    2
     3    91    90    1
     4    89    90    1
     5    89    86    1
     6    85    86    1
     7    86    87    1
     8    88    87    2
     9    87    94   am
    10    94    95    1
    11    97    96    2
    12    95    96    1
    13    95    98    1
    14    96   106   am
    15   106   107    1
    16   107   110    1
    17   107   108    1
    18   101   103   ar
    19   101    99   ar
    20    98    99    1
    21   103   104   ar
    22    99   100   ar
    23   113   111   am
    24   110   111    1
    25   104   105    1
    26   104   102   ar
    27   100   102   ar
    28   111   112    2
    29   108   109    2
    30    79    78    2
    31    78    77    1
    32    77    80    1
    33    77    76    1
    34    80    81    1
    35    81    82    1
    36    83    82    2
    37    82    84   am
    38   121   120   ar
    39   122   120   ar
    40   120   119    1
    41   114   115    1
    42   119   118    1
    43   118   115    1
    44   115   116    1
    45    62    61    2
    46    59    58    2
    47   116   117    2
    48    67    66    2
    49     9    10   ar
    50     9     7   ar
    51    12    10   ar
    52    12    14   ar
    53    72    70   ar
    54    72    74   ar
    55    61    63   am
    56    61    60    1
    57    10     8   ar
    58    70    69   ar
    59     7     6   ar
    60    14    13   ar
    61    58    57    1
    62    58    64   am
    63    66    65    1
    64    65    64    1
    65    65    68    1
    66    75    74    1
    67    57    60    1
    68    57    56    1
    69     8     6   ar
    70     8    11   ar
    71    74    73   ar
    72     6     5    1
    73   132   130   ar
    74   132   133   ar
    75    31    29   ar
    76    13    11   ar
    77    69    68    1
    78    69    71   ar
    79   130   128   ar
    80    45    44    1
    81     5     2    1
    82   133   131   ar
    83    29    30   ar
    84    29    28    1
    85    73    71   ar
    86    46    44    1
    87   128   127    1
    88   128   129   ar
    89    44    43    2
    90   127   124    1
    91   123   124    1
    92    28    27    1
    93     1     2    1
    94     2     3    1
    95   131   129   ar
    96    54    53    2
    97    43    42    1
    98   124   125    1
    99    42    41    1
   100     3     4    2
   101    50    49    2
   102    21    20    1
   103    27    24    1
   104   125   126    2
   105    41    40    1
   106    53    52    1
   107    52    55    1
   108    52    51    1
   109    49    51   am
   110    49    48    1
   111    24    25    1
   112    24    23    1
   113    33    34    1
   114    33    32    1
   115    35    34    2
   116    20    22    1
   117    20    19    1
   118    34    36   am
   119    25    26    2
   120    40    37    1
   121    48    47    1
   122    36    37    1
   123    37    38    1
   124    19    16    1
   125    38    39    2
   126    16    15    1
   127    16    17    1
   128    18    17    2
