@<TRIPOS>MOLECULE
tmp/3w52A03.pdb
 102 99 0 0 0
SMALL
GASTEIGER

@<TRIPOS>ATOM
      1  N         25.1440    2.5060  -20.5390 N.3    48  LYS48      -0.1245
      2  CA        24.0850    3.3100  -19.9020 C.3    48  LYS48       0.1561
      3  C         24.1330    4.7950  -20.3990 C.2    48  LYS48       0.2260
      4  O         23.1060    5.4680  -20.4110 O.2    48  LYS48      -0.2867
      5  CB        24.3070    3.3350  -18.3770 C.3    48  LYS48       0.0271
      6  CG        23.7600    2.1240  -17.6730 C.3    48  LYS48       0.0035
      7  CD        24.0050    2.1920  -16.1540 C.3    48  LYS48       0.0206
      8  CE        23.3370    0.9160  -15.5410 C.3    48  LYS48       0.1093
      9  NZ        23.7510    0.8120  -14.1130 N.3    48  LYS48      -0.1314
     10  N         17.2320   -0.9890  -16.5720 N.3    58  HIS58      -0.1226
     11  CA        17.8700   -1.8820  -15.5800 C.3    58  HIS58       0.1752
     12  C         17.0590   -2.1250  -14.3450 C.2    58  HIS58       0.2596
     13  O         17.4340   -3.0180  -13.5350 O.2    58  HIS58      -0.2718
     14  CB        19.2160   -1.3010  -15.1210 C.3    58  HIS58       0.0759
     15  CG        20.2310   -1.2310  -16.2190 C.ar   58  HIS58       0.0818
     16  ND1       21.3900   -1.9890  -16.1970 N.ar   58  HIS58      -0.2268
     17  CD2       20.2290   -0.5680  -17.3910 C.ar   58  HIS58       0.1154
     18  CE1       22.0620   -1.7920  -17.3220 C.ar   58  HIS58       0.1986
     19  NE2       21.3820   -0.9260  -18.0670 N.ar   58  HIS58      -0.2212
     20  N         15.9580   -1.3810  -14.1380 N.am   59  TYR59      -0.1962
     21  CA        15.2470   -1.5760  -12.8700 C.3    59  TYR59       0.1771
     22  C         13.7390   -1.2570  -13.0490 C.2    59  TYR59       0.2619
     23  O         13.3130   -1.0090  -14.1690 O.2    59  TYR59      -0.2715
     24  CB        15.8080   -0.6620  -11.8020 C.3    59  TYR59       0.0574
     25  CG        15.8450    0.7900  -12.2670 C.ar   59  TYR59      -0.0198
     26  CD1       14.6950    1.5980  -12.1700 C.ar   59  TYR59      -0.0009
     27  CD2       17.0040    1.3270  -12.8530 C.ar   59  TYR59      -0.0009
     28  CE1       14.6920    2.9180  -12.6320 C.ar   59  TYR59       0.0417
     29  CE2       16.9860    2.6550  -13.3220 C.ar   59  TYR59       0.0417
     30  CZ        15.8300    3.4250  -13.1980 C.ar   59  TYR59       0.1957
     31  OH        15.8600    4.7490  -13.6500 O.3    59  TYR59      -0.2866
     32  N         13.0080   -1.3960  -11.9510 N.am   60  ILE60      -0.1963
     33  CA        11.5750   -1.0640  -11.8800 C.3    60  ILE60       0.1727
     34  C         11.4020   -0.2340  -10.6360 C.2    60  ILE60       0.2616
     35  O         11.9060   -0.6030   -9.5960 O.2    60  ILE60      -0.2715
     36  CB        10.7050   -2.3380  -11.6990 C.3    60  ILE60       0.0290
     37  CG1       10.7300   -3.1470  -12.9810 C.3    60  ILE60       0.0022
     38  CG2        9.2240   -1.9350  -11.3550 C.3    60  ILE60       0.0023
     39  CD1       10.1590   -4.5330  -12.8460 C.3    60  ILE60       0.0001
     40  N         10.7220    0.9090  -10.7560 N.am   61  ASN61      -0.1972
     41  CA        10.4160    1.7460   -9.5970 C.3    61  ASN61       0.1688
     42  C          8.9640    1.4840   -9.1940 C.2    61  ASN61       0.2292
     43  O          8.0560    1.4880  -10.0600 O.2    61  ASN61      -0.2864
     44  CB        10.5280    3.2340   -9.9510 C.3    61  ASN61       0.1181
     45  CG        11.9500    3.7610   -9.8930 C.2    61  ASN61       0.2629
     46  OD1       12.2660    4.6970  -10.6000 O.2    61  ASN61      -0.2716
     47  ND2       12.7830    3.2050   -9.0560 N.am   61  ASN61      -0.0877
     48  N         16.6140   -5.0580   -4.8870 N.3   122  LEU122     -0.1231
     49  CA        16.5170   -3.5880   -4.9610 C.3   122  LEU122      0.1693
     50  C         16.4730   -3.0440   -6.3650 C.2   122  LEU122      0.2592
     51  O         16.3910   -1.7850   -6.5500 O.2   122  LEU122     -0.2718
     52  CB        17.6230   -2.9320   -4.1120 C.3   122  LEU122      0.0284
     53  CG        17.3230   -3.1660   -2.6180 C.3   122  LEU122      0.0019
     54  CD1       18.5000   -2.4710   -1.8470 C.3   122  LEU122      0.0001
     55  CD2       15.9220   -2.5450   -2.1560 C.3   122  LEU122      0.0001
     56  N         16.4770   -3.9050   -7.3800 N.am  123  HIS123     -0.1976
     57  CA        16.1920   -3.3840   -8.7060 C.3   123  HIS123      0.1656
     58  C         14.6670   -3.4010   -8.9940 C.2   123  HIS123      0.2291
     59  O         14.2500   -3.0380  -10.0870 O.2   123  HIS123     -0.2864
     60  CB        16.8990   -4.1640   -9.8080 C.3   123  HIS123      0.0771
     61  CG        18.3200   -3.7100   -9.9780 C.ar  123  HIS123      0.0820
     62  ND1       18.8470   -3.3160  -11.1910 N.ar  123  HIS123     -0.2267
     63  CD2       19.2920   -3.5260   -9.0630 C.ar  123  HIS123      0.1154
     64  CE1       20.0890   -2.9050  -11.0150 C.ar  123  HIS123      0.1986
     65  NE2       20.3810   -3.0180   -9.7270 N.ar  123  HIS123     -0.2212
     66  N         12.1030   -1.9640   -6.6370 N.3   125  SER125     -0.1217
     67  CA        11.8320   -1.4240   -5.3340 C.3   125  SER125      0.1889
     68  C         11.3800    0.0060   -5.4330 C.2   125  SER125      0.2288
     69  O         10.9690    0.4360   -6.5210 O.2   125  SER125     -0.2866
     70  CB        13.0300   -1.5920   -4.3950 C.3   125  SER125      0.2089
     71  OG        14.1350   -0.8980   -4.8980 O.3   125  SER125     -0.2183
     72  N         15.0520    5.6340   -4.6220 N.3   130  LYS130     -0.1231
     73  CA        15.8100    5.2540   -5.8170 C.3   130  LYS130      0.1693
     74  C         16.3800    3.8710   -5.6310 C.2   130  LYS130      0.2592
     75  O         17.5810    3.6460   -5.8150 O.2   130  LYS130     -0.2718
     76  CB        16.9330    6.2510   -6.0360 C.3   130  LYS130      0.0285
     77  CG        16.3900    7.6870   -6.3510 C.3   130  LYS130      0.0035
     78  CD        17.5140    8.5600   -6.8740 C.3   130  LYS130      0.0206
     79  CE        17.1440   10.0360   -6.8010 C.3   130  LYS130      0.1093
     80  NZ        17.1520   10.5940   -5.3880 N.3   130  LYS130     -0.1314
     81  N         15.4950    2.9650   -5.2320 N.am  131  GLY131     -0.1957
     82  CA        15.9090    1.5700   -5.0390 C.3   131  GLY131      0.1869
     83  C         16.9760    1.3690   -3.9770 C.2   131  GLY131      0.2309
     84  O         17.8790    0.5170   -4.1290 O.2   131  GLY131     -0.2863
     85  N         19.2050    3.5110   -3.1850 N.3   133  ASN133     -0.1240
     86  CA        20.4250    4.2710   -3.4400 C.3   133  ASN133      0.1653
     87  C         20.5990    5.4780   -2.5140 C.2   133  ASN133      0.2266
     88  O         21.7450    5.8990   -2.2590 O.2   133  ASN133     -0.2867
     89  CB        20.4720    4.7330   -4.9000 C.3   133  ASN133      0.1155
     90  CG        21.0620    3.6740   -5.8220 C.2   133  ASN133      0.2627
     91  OD1       22.3040    3.4390   -5.8040 O.2   133  ASN133     -0.2716
     92  ND2       20.1960    3.0090   -6.6190 N.am  133  ASN133     -0.0877
     93  N         21.5640    0.0910   -1.7310 N.3   147  HIS147     -0.1241
     94  CA        21.5080   -0.4930   -3.0710 C.3   147  HIS147      0.1621
     95  C         22.8480   -1.1730   -3.3950 C.2   147  HIS147      0.2264
     96  O         22.8660   -2.3140   -3.8690 O.2   147  HIS147     -0.2867
     97  CB        21.2040    0.5290   -4.1500 C.3   147  HIS147      0.0745
     98  CG        20.9620   -0.0920   -5.4980 C.ar  147  HIS147      0.0817
     99  ND1       19.6970   -0.4200   -5.9770 N.ar  147  HIS147     -0.2268
    100  CD2       21.8410   -0.5300   -6.4270 C.ar  147  HIS147      0.1154
    101  CE1       19.8260   -1.0180   -7.1540 C.ar  147  HIS147      0.1986
    102  NE2       21.1170   -1.1090   -7.4380 N.ar  147  HIS147     -0.2212
@<TRIPOS>BOND
     1     1     2    1
     2     4     3    2
     3     3     2    1
     4     2     5    1
     5     5     6    1
     6    19    17   ar
     7    19    18   ar
     8     6     7    1
     9    17    15   ar
    10    18    16   ar
    11    10    11    1
    12    15    16   ar
    13    15    14    1
    14     7     8    1
    15    11    14    1
    16    11    12    1
    17     8     9    1
    18    12    20   am
    19    12    13    2
    20    23    22    2
    21    20    21    1
    22    31    30    1
    23    29    30   ar
    24    29    27   ar
    25    30    28   ar
    26    22    21    1
    27    22    32   am
    28    37    39    1
    29    37    36    1
    30    21    24    1
    31    27    25   ar
    32    28    26   ar
    33    25    26   ar
    34    25    24    1
    35    32    33    1
    36    33    36    1
    37    33    34    1
    38    36    38    1
    39    62    64   ar
    40    62    61   ar
    41    64    65   ar
    42    40    34   am
    43    40    41    1
    44    34    35    2
    45    46    45    2
    46    59    58    2
    47    43    42    2
    48    61    60    1
    49    61    63   ar
    50    44    45    1
    51    44    41    1
    52    45    47   am
    53    60    57    1
    54    65    63   ar
    55    41    42    1
    56    58    57    1
    57    57    56    1
    58   102   101   ar
    59   102   100   ar
    60    56    50   am
    61   101    99   ar
    62    78    79    1
    63    78    77    1
    64    79    80    1
    65    66    67    1
    66    92    90   am
    67    51    50    2
    68    69    68    2
    69   100    98   ar
    70    50    49    1
    71    77    76    1
    72    76    73    1
    73    99    98   ar
    74    90    91    2
    75    90    89    1
    76    73    74    1
    77    73    72    1
    78    75    74    2
    79    74    81   am
    80    98    97    1
    81    68    67    1
    82    67    70    1
    83    81    82    1
    84    82    83    1
    85    49    48    1
    86    49    52    1
    87    89    86    1
    88    71    70    1
    89    97    94    1
    90    84    83    2
    91    52    53    1
    92    96    95    2
    93    86    85    1
    94    86    87    1
    95    95    94    1
    96    94    93    1
    97    53    55    1
    98    53    54    1
    99    87    88    2
