@<TRIPOS>MOLECULE
tmp/3w52A02.pdb
 95 93 0 0 0
SMALL
GASTEIGER

@<TRIPOS>ATOM
      1  N         34.5850  -17.6830    0.9540 N.3   163  TYR163     -0.1241
      2  CA        35.1450  -18.5050   -0.1280 C.3   163  TYR163      0.1605
      3  C         36.6530  -18.2630   -0.3970 C.2   163  TYR163      0.2264
      4  O         37.1520  -18.6950   -1.4490 O.2   163  TYR163     -0.2867
      5  CB        34.3370  -18.3250   -1.4090 C.3   163  TYR163      0.0534
      6  CG        32.9210  -18.8380   -1.2300 C.ar  163  TYR163     -0.0201
      7  CD1       31.9150  -17.9950   -0.7900 C.ar  163  TYR163     -0.0009
      8  CD2       32.6170  -20.1960   -1.4780 C.ar  163  TYR163     -0.0009
      9  CE1       30.6000  -18.4640   -0.5870 C.ar  163  TYR163      0.0417
     10  CE2       31.2970  -20.6920   -1.2880 C.ar  163  TYR163      0.0417
     11  CZ        30.3300  -19.8180   -0.8450 C.ar  163  TYR163      0.1957
     12  OH        29.0640  -20.2660   -0.5910 O.3   163  TYR163     -0.2866
     13  N         31.8810  -20.0250   -5.0520 N.3   170  MET170     -0.1245
     14  CA        30.4700  -19.6810   -4.8310 C.3   170  MET170      0.1570
     15  C         29.6450  -20.2720   -5.9690 C.2   170  MET170      0.2261
     16  O         28.5640  -20.8480   -5.7410 O.2   170  MET170     -0.2867
     17  CB        30.2940  -18.1720   -4.7070 C.3   170  MET170      0.0387
     18  CG        28.8590  -17.7990   -4.3100 C.3   170  MET170      0.0595
     19  SD        28.5010  -16.0350   -4.0840 S.3   170  MET170     -0.1393
     20  CE        29.7910  -15.5670   -3.0600 C.3   170  MET170      0.0692
     21  N         29.2750  -24.0130   -5.3800 N.3   173  ALA173     -0.1231
     22  CA        28.3720  -24.3280   -4.2800 C.3   173  ALA173      0.1694
     23  C         26.9080  -24.0920   -4.7170 C.2   173  ALA173      0.2591
     24  O         26.0260  -24.8280   -4.3210 O.2   173  ALA173     -0.2718
     25  CB        28.6970  -23.4680   -3.0170 C.3   173  ALA173      0.0304
     26  N         26.6810  -23.0180   -5.4660 N.am  174  LEU174     -0.1980
     27  CA        25.2940  -22.7910   -5.9810 C.3   174  LEU174      0.1596
     28  C         24.9060  -23.9140   -6.9180 C.2   174  LEU174      0.2287
     29  O         23.7620  -24.4190   -6.8540 O.2   174  LEU174     -0.2864
     30  CB        25.2180  -21.4480   -6.6880 C.3   174  LEU174      0.0297
     31  CG        25.3600  -20.2720   -5.7060 C.3   174  LEU174      0.0022
     32  CD1       25.5760  -18.9230   -6.5050 C.3   174  LEU174      0.0001
     33  CD2       24.0260  -20.1530   -4.9270 C.3   174  LEU174      0.0001
     34  N         23.9690  -26.9690   -4.9910 N.3   177  ASN177     -0.1240
     35  CA        22.6820  -26.9300   -4.3580 C.3   177  ASN177      0.1653
     36  C         21.5570  -26.9780   -5.3630 C.2   177  ASN177      0.2266
     37  O         20.4860  -27.4850   -5.0280 O.2   177  ASN177     -0.2867
     38  CB        22.5640  -25.6860   -3.4810 C.3   177  ASN177      0.1155
     39  CG        23.2960  -25.8430   -2.1670 C.2   177  ASN177      0.2627
     40  OD1       23.8260  -26.9410   -1.8630 O.2   177  ASN177     -0.2716
     41  ND2       23.3380  -24.7700   -1.3700 N.am  177  ASN177     -0.0877
     42  N         19.9090  -29.7680   -3.3140 N.3   181  GLU181     -0.1231
     43  CA        19.0480  -29.2210   -2.2770 C.3   181  GLU181      0.1699
     44  C         17.7820  -28.5850   -2.8130 C.2   181  GLU181      0.2592
     45  O         16.7590  -28.5820   -2.1060 O.2   181  GLU181     -0.2718
     46  CB        19.7620  -28.1040   -1.4790 C.3   181  GLU181      0.0402
     47  CG        21.0790  -28.5000   -0.7700 C.3   181  GLU181      0.1161
     48  CD        20.8170  -29.5410    0.3200 C.2   181  GLU181      0.3649
     49  OE1       19.7640  -29.3980    0.9870 O.co2 181  GLU181     -0.2457
     50  OE2       21.6590  -30.4800    0.4970 O.co2 181  GLU181     -0.2457
     51  N         17.8600  -27.9820   -4.0140 N.am  182  TRP182     -0.1976
     52  CA        16.7340  -27.2060   -4.5640 C.3   182  TRP182      0.1640
     53  C         16.0780  -27.7840   -5.7920 C.2   182  TRP182      0.2290
     54  O         15.3900  -27.0750   -6.5290 O.2   182  TRP182     -0.2864
     55  CB        17.2710  -25.7920   -4.9370 C.3   182  TRP182      0.0576
     56  CG        18.0230  -25.1470   -3.8020 C.ar  182  TRP182      0.0006
     57  CD1       17.8200  -25.3090   -2.4540 C.ar  182  TRP182      0.0946
     58  CD2       19.0740  -24.1760   -3.9390 C.ar  182  TRP182      0.0152
     59  NE1       18.6820  -24.4870   -1.7380 N.ar  182  TRP182     -0.2442
     60  CE2       19.4600  -23.7790   -2.6270 C.ar  182  TRP182      0.0810
     61  CE3       19.7170  -23.6240   -5.0380 C.ar  182  TRP182      0.0012
     62  CZ2       20.4800  -22.8220   -2.3810 C.ar  182  TRP182      0.0191
     63  CZ3       20.7620  -22.6720   -4.8050 C.ar  182  TRP182      0.0001
     64  CH2       21.1110  -22.2830   -3.4700 C.ar  182  TRP182      0.0015
     65  N         24.9280  -12.5050    7.4870 N.3   230  TYR230     -0.1241
     66  CA        24.5650  -13.9340    7.4900 C.3   230  TYR230      0.1605
     67  C         23.0920  -14.1850    7.2800 C.2   230  TYR230      0.2264
     68  O         22.7310  -15.2220    6.7150 O.2   230  TYR230     -0.2867
     69  CB        24.9550  -14.5720    8.8000 C.3   230  TYR230      0.0534
     70  CG        26.4620  -14.7200    8.9310 C.ar  230  TYR230     -0.0201
     71  CD1       27.1540  -15.5610    8.1070 C.ar  230  TYR230     -0.0009
     72  CD2       27.1440  -14.0160    9.9050 C.ar  230  TYR230     -0.0009
     73  CE1       28.5700  -15.7180    8.2320 C.ar  230  TYR230      0.0417
     74  CE2       28.5330  -14.1830   10.0480 C.ar  230  TYR230      0.0417
     75  CZ        29.2090  -15.0240    9.2120 C.ar  230  TYR230      0.1957
     76  OH        30.5600  -15.1970    9.4120 O.3   230  TYR230     -0.2866
     77  N         21.5850  -16.0290    2.4080 N.3   234  PRO234     -0.2116
     78  CA        20.8040  -17.0740    1.7430 C.3   234  PRO234      0.1372
     79  C         19.8670  -16.5390    0.6660 C.2   234  PRO234      0.2244
     80  O         19.5690  -17.2350   -0.3010 O.2   234  PRO234     -0.2868
     81  CB        19.9690  -17.6590    2.8660 C.3   234  PRO234      0.0268
     82  CG        20.8250  -17.5200    4.0500 C.3   234  PRO234      0.0207
     83  CD        21.3910  -16.1240    3.8850 C.3   234  PRO234      0.0892
     84  N         21.9700  -15.8630   -2.3730 N.3   237  TYR237     -0.1241
     85  CA        22.2070  -17.1300   -3.0650 C.3   237  TYR237      0.1605
     86  C         20.9970  -17.5190   -3.8860 C.2   237  TYR237      0.2264
     87  O         21.1150  -17.9110   -5.0470 O.2   237  TYR237     -0.2867
     88  CB        22.4570  -18.2690   -2.0810 C.3   237  TYR237      0.0534
     89  CG        23.7900  -18.1900   -1.3260 C.ar  237  TYR237     -0.0201
     90  CD1       24.8880  -17.5630   -1.8960 C.ar  237  TYR237     -0.0009
     91  CD2       23.9360  -18.8510   -0.1260 C.ar  237  TYR237     -0.0009
     92  CE1       26.1410  -17.6160   -1.2120 C.ar  237  TYR237      0.0417
     93  CE2       25.1610  -18.9320    0.5370 C.ar  237  TYR237      0.0417
     94  CZ        26.2470  -18.3120   -0.0300 C.ar  237  TYR237      0.1957
     95  OH        27.4920  -18.4540    0.6050 O.3   237  TYR237     -0.2866
@<TRIPOS>BOND
     1    28    29    2
     2    28    27    1
     3    30    27    1
     4    30    31    1
     5    54    53    2
     6    32    31    1
     7    27    26    1
     8    15    16    2
     9    15    14    1
    10    53    52    1
    11    31    33    1
    12    26    23   am
    13    21    22    1
    14    36    37    2
    15    36    35    1
    16    13    14    1
    17    87    86    2
    18    61    63   ar
    19    61    58   ar
    20    34    35    1
    21    55    52    1
    22    55    56    1
    23    14    17    1
    24    63    64   ar
    25    23    24    2
    26    23    22    1
    27    17    18    1
    28    52    51    1
    29    35    38    1
    30    18    19    1
    31    22    25    1
    32    19    20    1
    33    51    44   am
    34    58    56   ar
    35    58    60   ar
    36    86    85    1
    37    56    57   ar
    38    38    39    1
    39    64    62   ar
    40    42    43    1
    41    85    84    1
    42    85    88    1
    43    44    43    1
    44    44    45    2
    45    60    62   ar
    46    60    59   ar
    47    57    59   ar
    48    43    46    1
    49    39    40    2
    50    39    41   am
    51    88    89    1
    52    90    89   ar
    53    90    92   ar
    54    46    47    1
    55     8    10   ar
    56     8     6   ar
    57     4     3    2
    58     5     6    1
    59     5     2    1
    60    89    91   ar
    61    10    11   ar
    62     6     7   ar
    63    92    94   ar
    64    11    12    1
    65    11     9   ar
    66     7     9   ar
    67    47    48    1
    68     3     2    1
    69    80    79    2
    70     2     1    1
    71    91    93   ar
    72    94    93   ar
    73    94    95    1
    74    48    50   ar
    75    48    49   ar
    76    79    78    1
    77    78    77    1
    78    78    81    1
    79    77    83    1
    80    81    82    1
    81    83    82    1
    82    68    67    2
    83    67    66    1
    84    65    66    1
    85    66    69    1
    86    71    73   ar
    87    71    70   ar
    88    73    75   ar
    89    69    70    1
    90    70    72   ar
    91    75    76    1
    92    75    74   ar
    93    72    74   ar
