@<TRIPOS>MOLECULE
tmp/3w53A00.pdb
 157 157 0 0 0
SMALL
GASTEIGER

@<TRIPOS>ATOM
      1  N         18.4330   23.8990   35.0440 N.3    24  GLN24      -0.1245
      2  CA        19.5280   22.9950   34.6830 C.3    24  GLN24       0.1566
      3  C         20.8630   23.2500   35.3940 C.2    24  GLN24       0.2260
      4  O         21.6870   22.3380   35.4940 O.2    24  GLN24      -0.2867
      5  CB        19.7290   22.9960   33.1680 C.3    24  GLN24       0.0367
      6  CG        18.4780   22.5960   32.4210 C.3    24  GLN24       0.0905
      7  CD        18.6950   22.4770   30.9290 C.2    24  GLN24       0.2608
      8  OE1       18.3980   23.4050   30.1650 O.2    24  GLN24      -0.2717
      9  NE2       19.2000   21.3200   30.4970 N.am   24  GLN24      -0.0878
     10  N         11.6900   28.6970   30.8560 N.3   124  HIS124     -0.1226
     11  CA        12.4560   27.5700   30.3630 C.3   124  HIS124      0.1752
     12  C         12.0990   26.3250   31.1930 C.2   124  HIS124      0.2596
     13  O         12.9830   25.6520   31.7420 O.2   124  HIS124     -0.2718
     14  CB        13.9590   27.8780   30.3950 C.3   124  HIS124      0.0759
     15  CG        14.7700   27.0200   29.4710 C.ar  124  HIS124      0.0818
     16  ND1       15.8130   27.5170   28.7090 N.ar  124  HIS124     -0.2268
     17  CD2       14.6950   25.6990   29.1910 C.ar  124  HIS124      0.1154
     18  CE1       16.3460   26.5300   28.0060 C.ar  124  HIS124      0.1986
     19  NE2       15.6860   25.4180   28.2780 N.ar  124  HIS124     -0.2212
     20  N         10.7850   26.0800   31.2970 N.am  125  TRP125     -0.1976
     21  CA        10.1820   24.8010   31.7130 C.3   125  TRP125      0.1640
     22  C          9.9230   24.6300   33.2080 C.2   125  TRP125      0.2290
     23  O          9.4550   23.5630   33.6200 O.2   125  TRP125     -0.2864
     24  CB        10.9770   23.5800   31.2160 C.3   125  TRP125      0.0576
     25  CG        11.3410   23.5800   29.7380 C.ar  125  TRP125      0.0006
     26  CD1       11.0640   24.5520   28.8030 C.ar  125  TRP125      0.0946
     27  CD2       12.0560   22.5470   29.0390 C.ar  125  TRP125      0.0152
     28  NE1       11.5730   24.1830   27.5780 N.ar  125  TRP125     -0.2442
     29  CE2       12.1860   22.9580   27.6970 C.ar  125  TRP125      0.0810
     30  CE3       12.6000   21.3140   29.4220 C.ar  125  TRP125      0.0012
     31  CZ2       12.8380   22.1760   26.7340 C.ar  125  TRP125      0.0191
     32  CZ3       13.2450   20.5380   28.4640 C.ar  125  TRP125      0.0001
     33  CH2       13.3530   20.9720   27.1350 C.ar  125  TRP125      0.0015
     34  N         11.3350   29.4700   25.9300 N.3   168  ASN168     -0.1225
     35  CA        12.3110   28.6510   25.2220 C.3   168  ASN168      0.1785
     36  C         11.7160   27.2960   24.8500 C.2   168  ASN168      0.2597
     37  O         11.3310   26.5240   25.7290 O.2   168  ASN168     -0.2718
     38  CB        13.5390   28.4010   26.0860 C.3   168  ASN168      0.1169
     39  CG        14.4750   27.3910   25.4630 C.2   168  ASN168      0.2627
     40  OD1       14.4610   26.2050   25.8130 O.2   168  ASN168     -0.2716
     41  ND2       15.2830   27.8450   24.5180 N.am  168  ASN168     -0.0877
     42  N         11.6510   27.0060   23.5560 N.am  169  GLU169     -0.1979
     43  CA        11.1820   25.7070   23.0720 C.3   169  GLU169      0.1602
     44  C          9.7920   25.3380   23.5710 C.2   169  GLU169      0.2287
     45  O          9.6280   24.3140   24.2360 O.2   169  GLU169     -0.2864
     46  CB        12.2000   24.6040   23.4170 C.3   169  GLU169      0.0415
     47  CG        13.5560   24.8610   22.7670 C.3   169  GLU169      0.1163
     48  CD        14.6090   23.8190   23.0950 C.2   169  GLU169      0.3649
     49  OE1       14.5210   23.1970   24.1700 O.co2 169  GLU169     -0.2457
     50  OE2       15.5400   23.6330   22.2790 O.co2 169  GLU169     -0.2457
     51  N          8.5460   21.7100   23.3900 N.3   172  CYS172     -0.1235
     52  CA         8.9580   20.7290   24.3890 C.3   172  CYS172      0.1677
     53  C          8.0260   20.7430   25.6040 C.2   172  CYS172      0.2270
     54  O          7.5120   19.6990   26.0160 O.2   172  CYS172     -0.2867
     55  CB        10.4060   20.9690   24.8240 C.3   172  CYS172      0.0956
     56  SG        11.6490   20.5320   23.5730 S.3   172  CYS172     -0.0801
     57  N          9.0130   14.7250   29.2490 N.3   183  HIS183     -0.1241
     58  CA         9.3110   15.9410   30.0160 C.3   183  HIS183      0.1621
     59  C          8.2620   16.1890   31.0890 C.2   183  HIS183      0.2264
     60  O          7.1340   15.7140   30.9720 O.2   183  HIS183     -0.2867
     61  CB         9.3900   17.1620   29.0850 C.3   183  HIS183      0.0745
     62  CG        10.6330   17.1960   28.2420 C.ar  183  HIS183      0.0817
     63  ND1       10.7830   18.0540   27.1760 N.ar  183  HIS183     -0.2268
     64  CD2       11.7790   16.4760   28.3210 C.ar  183  HIS183      0.1154
     65  CE1       11.9750   17.8540   26.6230 C.ar  183  HIS183      0.1986
     66  NE2       12.5930   16.9050   27.2980 N.ar  183  HIS183     -0.2212
     67  N         12.5310   25.5730   18.9120 N.3   224  ASN224     -0.1240
     68  CA        13.3410   24.5300   18.3020 C.3   224  ASN224      0.1653
     69  C         12.6760   24.1350   16.9830 C.2   224  ASN224      0.2266
     70  O         11.5390   23.6490   16.9620 O.2   224  ASN224     -0.2867
     71  CB        13.5950   23.3300   19.2300 C.3   224  ASN224      0.1155
     72  CG        12.3400   22.8490   19.9410 C.2   224  ASN224      0.2627
     73  OD1       11.4330   23.6350   20.2610 O.2   224  ASN224     -0.2716
     74  ND2       12.2900   21.5490   20.2180 N.am  224  ASN224     -0.0877
     75  N         19.3650   21.4230   16.5350 N.3   299  TYR299     -0.1241
     76  CA        20.4030   20.4320   16.7990 C.3   299  TYR299      0.1605
     77  C         20.5510   19.4430   15.6400 C.2   299  TYR299      0.2264
     78  O         21.6410   18.9200   15.3800 O.2   299  TYR299     -0.2867
     79  CB        20.0890   19.6940   18.1120 C.3   299  TYR299      0.0534
     80  CG        20.2030   20.5940   19.3230 C.ar  299  TYR299     -0.0201
     81  CD1       21.3430   20.5730   20.1180 C.ar  299  TYR299     -0.0009
     82  CD2       19.1950   21.4890   19.6480 C.ar  299  TYR299     -0.0009
     83  CE1       21.4700   21.4090   21.2140 C.ar  299  TYR299      0.0417
     84  CE2       19.3130   22.3350   20.7400 C.ar  299  TYR299      0.0417
     85  CZ        20.4540   22.2830   21.5210 C.ar  299  TYR299      0.1957
     86  OH        20.5810   23.0990   22.6240 O.3   299  TYR299     -0.2866
     87  N         21.5210   11.3360   18.6320 N.3   348  TRP348     -0.1241
     88  CA        21.0110   12.3560   17.7190 C.3   348  TRP348      0.1605
     89  C         21.8820   12.4240   16.4700 C.2   348  TRP348      0.2264
     90  O         23.1160   12.5100   16.5630 O.2   348  TRP348     -0.2867
     91  CB        20.9870   13.7260   18.4020 C.3   348  TRP348      0.0550
     92  CG        19.9940   13.8190   19.5310 C.ar  348  TRP348      0.0003
     93  CD1       19.1790   12.8130   19.9980 C.ar  348  TRP348      0.0946
     94  CD2       19.7060   14.9730   20.3380 C.ar  348  TRP348      0.0152
     95  NE1       18.4040   13.2800   21.0350 N.ar  348  TRP348     -0.2442
     96  CE2       18.7170   14.5990   21.2680 C.ar  348  TRP348      0.0810
     97  CE3       20.2020   16.2850   20.3670 C.ar  348  TRP348      0.0012
     98  CZ2       18.2020   15.4960   22.2200 C.ar  348  TRP348      0.0191
     99  CZ3       19.6910   17.1720   21.3080 C.ar  348  TRP348      0.0001
    100  CH2       18.6990   16.7720   22.2210 C.ar  348  TRP348      0.0015
    101  N         20.2070   28.3150   20.5390 N.3   376  GLU376     -0.1245
    102  CA        20.8230   27.0750   21.0270 C.3   376  GLU376      0.1567
    103  C         21.3650   26.2350   19.8800 C.2   376  GLU376      0.2260
    104  O         20.6680   26.0150   18.8840 O.2   376  GLU376     -0.2867
    105  CB        19.8290   26.2010   21.7950 C.3   376  GLU376      0.0388
    106  CG        19.3950   26.6980   23.1700 C.3   376  GLU376      0.1160
    107  CD        18.5550   25.6640   23.8980 C.2   376  GLU376      0.3649
    108  OE1       17.7100   26.0540   24.7370 O.co2 376  GLU376     -0.2457
    109  OE2       18.7220   24.4540   23.6160 O.co2 376  GLU376     -0.2457
    110  N         24.9590   26.0280   23.0770 N.3   423  TRP423     -0.1241
    111  CA        24.4500   25.2830   24.2190 C.3   423  TRP423      0.1605
    112  C         25.4350   24.1690   24.5170 C.2   423  TRP423      0.2264
    113  O         25.7130   23.3550   23.6340 O.2   423  TRP423     -0.2867
    114  CB        23.0710   24.6830   23.9290 C.3   423  TRP423      0.0550
    115  CG        22.5490   23.9710   25.1150 C.ar  423  TRP423      0.0003
    116  CD1       22.7350   22.6550   25.4370 C.ar  423  TRP423      0.0946
    117  CD2       21.7900   24.5420   26.1830 C.ar  423  TRP423      0.0152
    118  NE1       22.1260   22.3720   26.6360 N.ar  423  TRP423     -0.2442
    119  CE2       21.5370   23.5160   27.1150 C.ar  423  TRP423      0.0810
    120  CE3       21.2940   25.8260   26.4340 C.ar  423  TRP423      0.0012
    121  CZ2       20.8030   23.7290   28.2840 C.ar  423  TRP423      0.0191
    122  CZ3       20.5650   26.0410   27.5940 C.ar  423  TRP423      0.0001
    123  CH2       20.3280   24.9980   28.5090 C.ar  423  TRP423      0.0015
    124  N         20.6970   17.6090   31.9970 N.3   430  GLU430     -0.1231
    125  CA        20.0020   17.4810   30.7090 C.3   430  GLU430      0.1699
    126  C         18.6450   16.7740   30.8820 C.2   430  GLU430      0.2592
    127  O         18.4060   15.6940   30.3260 O.2   430  GLU430     -0.2718
    128  CB        20.8940   16.7780   29.6650 C.3   430  GLU430      0.0402
    129  CG        20.2670   16.5730   28.2670 C.3   430  GLU430      0.1161
    130  CD        19.7140   17.8470   27.6430 C.2   430  GLU430      0.3649
    131  OE1       20.2440   18.9490   27.9180 O.co2 430  GLU430     -0.2457
    132  OE2       18.7450   17.7550   26.8580 O.co2 430  GLU430     -0.2457
    133  N         17.7640   17.3910   31.6670 N.am  431  TRP431     -0.1976
    134  CA        16.3890   16.9140   31.7960 C.3   431  TRP431      0.1640
    135  C         16.3160   15.4030   32.0520 C.2   431  TRP431      0.2290
    136  O         17.0580   14.8900   32.8850 O.2   431  TRP431     -0.2864
    137  CB        15.5990   17.3280   30.5570 C.3   431  TRP431      0.0576
    138  CG        15.7530   18.8050   30.2830 C.ar  431  TRP431      0.0006
    139  CD1       16.3450   19.3870   29.1950 C.ar  431  TRP431      0.0946
    140  CD2       15.3520   19.8850   31.1420 C.ar  431  TRP431      0.0152
    141  NE1       16.3080   20.7600   29.3150 N.ar  431  TRP431     -0.2442
    142  CE2       15.7070   21.0880   30.5040 C.ar  431  TRP431      0.0810
    143  CE3       14.7090   19.9430   32.3860 C.ar  431  TRP431      0.0012
    144  CZ2       15.4370   22.3430   31.0600 C.ar  431  TRP431      0.0191
    145  CZ3       14.4520   21.1870   32.9440 C.ar  431  TRP431      0.0001
    146  CH2       14.8130   22.3710   32.2810 C.ar  431  TRP431      0.0015
    147  N         26.7420   18.8490   27.8110 N.3   439  PHE439     -0.1241
    148  CA        26.6590   19.7340   26.6440 C.3   439  PHE439      0.1605
    149  C         27.6620   20.8760   26.7090 C.2   439  PHE439      0.2264
    150  O         27.8180   21.6410   25.7440 O.2   439  PHE439     -0.2867
    151  CB        25.2640   20.3500   26.5380 C.3   439  PHE439      0.0534
    152  CG        24.3470   19.6190   25.6010 C.ar  439  PHE439     -0.0203
    153  CD1       24.4750   19.7720   24.2250 C.ar  439  PHE439     -0.0042
    154  CD2       23.3580   18.7810   26.0920 C.ar  439  PHE439     -0.0042
    155  CE1       23.6340   19.0980   23.3520 C.ar  439  PHE439     -0.0003
    156  CE2       22.5050   18.1050   25.2250 C.ar  439  PHE439     -0.0003
    157  CZ        22.6410   18.2640   23.8510 C.ar  439  PHE439     -0.0000
@<TRIPOS>BOND
     1    78    77    2
     2    77    76    1
     3    89    90    2
     4    89    88    1
     5    75    76    1
     6    76    79    1
     7    70    69    2
     8    69    68    1
     9    88    91    1
    10    88    87    1
    11    79    80    1
    12    68    67    1
    13    68    71    1
    14    91    92    1
    15   104   103    2
    16    71    72    1
    17    80    82   ar
    18    80    81   ar
    19    92    93   ar
    20    92    94   ar
    21    82    84   ar
    22   103   102    1
    23    72    74   am
    24    72    73    2
    25    93    95   ar
    26    81    83   ar
    27    94    97   ar
    28    94    96   ar
    29    97    99   ar
    30   101   102    1
    31    84    85   ar
    32   102   105    1
    33    95    96   ar
    34    83    85   ar
    35    96    98   ar
    36    99   100   ar
    37    85    86    1
    38   105   106    1
    39    98   100   ar
    40    50    48   ar
    41    47    48    1
    42    47    46    1
    43    43    46    1
    44    43    42    1
    45    43    44    1
    46   110   111    1
    47    48    49   ar
    48   106   107    1
    49   155   157   ar
    50   155   153   ar
    51    51    52    1
    52    42    36   am
    53    44    45    2
    54    56    55    1
    55   109   107   ar
    56   113   112    2
    57   157   156   ar
    58   107   108   ar
    59   114   111    1
    60   114   115    1
    61   111   112    1
    62   153   152   ar
    63    52    55    1
    64    52    53    1
    65    41    39   am
    66    36    35    1
    67    36    37    2
    68   115   116   ar
    69   115   117   ar
    70    35    34    1
    71    35    38    1
    72   156   154   ar
    73   116   118   ar
    74    39    40    2
    75    39    38    1
    76   152   154   ar
    77   152   151    1
    78    53    54    2
    79   150   149    2
    80   117   120   ar
    81   117   119   ar
    82   120   122   ar
    83   151   148    1
    84    65    63   ar
    85    65    66   ar
    86   118   119   ar
    87   148   149    1
    88   148   147    1
    89    31    33   ar
    90    31    29   ar
    91   132   130   ar
    92   119   121   ar
    93    33    32   ar
    94    63    62   ar
    95    66    64   ar
    96    28    29   ar
    97    28    26   ar
    98   122   123   ar
    99   130   131   ar
   100   130   129    1
   101    29    27   ar
   102    18    19   ar
   103    18    16   ar
   104    62    64   ar
   105    62    61    1
   106   129   128    1
   107    19    17   ar
   108   121   123   ar
   109    32    30   ar
   110    16    15   ar
   111    26    25   ar
   112    27    30   ar
   113    27    25   ar
   114    61    58    1
   115    17    15   ar
   116   139   141   ar
   117   139   138   ar
   118    57    58    1
   119   141   142   ar
   120    15    14    1
   121   128   125    1
   122    25    24    1
   123    58    59    1
   124     8     7    2
   125   138   137    1
   126   138   140   ar
   127   127   126    2
   128    11    14    1
   129    11    10    1
   130    11    12    1
   131     9     7   am
   132   142   144   ar
   133   142   140   ar
   134   137   134    1
   135   125   126    1
   136   125   124    1
   137   126   133   am
   138     7     6    1
   139    60    59    2
   140   144   146   ar
   141   140   143   ar
   142    12    20   am
   143    12    13    2
   144    24    21    1
   145    20    21    1
   146   133   134    1
   147    21    22    1
   148   134   135    1
   149   135   136    2
   150   146   145   ar
   151   143   145   ar
   152     6     5    1
   153     5     2    1
   154    22    23    2
   155     2     1    1
   156     2     3    1
   157     3     4    2
