@<TRIPOS>MOLECULE
tmp/3w54C00.pdb
 177 168 0 0 0
SMALL
GASTEIGER

@<TRIPOS>ATOM
      1  N         32.3800    7.3500    5.4790 N.3    61  VAL61      -0.1245
      2  CA        32.3470    6.4610    6.6450 C.3    61  VAL61       0.1561
      3  C         31.3280    5.3440    6.4350 C.2    61  VAL61       0.2260
      4  O         31.5970    4.1760    6.7130 O.2    61  VAL61      -0.2867
      5  CB        31.9560    7.2190    7.9280 C.3    61  VAL61       0.0252
      6  CG1       31.6940    6.2520    9.0790 C.3    61  VAL61       0.0019
      7  CG2       33.0380    8.2100    8.3020 C.3    61  VAL61       0.0019
      8  N         32.6190    3.0720    3.8160 N.3    64  CYS64      -0.1221
      9  CA        33.6930    2.2920    4.4290 C.3    64  CYS64       0.1808
     10  C         33.1300    1.1710    5.2940 C.2    64  CYS64       0.2601
     11  O         33.6630    0.0630    5.2850 O.2    64  CYS64      -0.2717
     12  CB        34.6260    3.1750    5.2680 C.3    64  CYS64       0.0970
     13  SG        35.9750    3.9350    4.3350 S.3    64  CYS64      -0.0800
     14  N         32.0640    1.4610    6.0400 N.am   65  ARG65      -0.1979
     15  CA        31.4190    0.4470    6.8770 C.3    65  ARG65       0.1597
     16  C         30.9630   -0.7180    5.9930 C.2    65  ARG65       0.2287
     17  O         31.2720   -1.8710    6.2910 O.2    65  ARG65      -0.2864
     18  CB        30.2660    1.0540    7.7070 C.3    65  ARG65       0.0334
     19  CG        29.2440    0.0740    8.2880 C.3    65  ARG65       0.0492
     20  CD        29.7600   -0.7940    9.4360 C.3    65  ARG65       0.2205
     21  NE        29.4140   -0.2590   10.7580 N.pl3  65  ARG65      -0.0865
     22  CZ        29.3430   -0.9690   11.8900 C.cat  65  ARG65       0.5346
     23  NH1       29.5810   -2.2800   11.9090 N.pl3  65  ARG65       0.1354
     24  NH2       29.0310   -0.3580   13.0270 N.pl3  65  ARG65       0.1354
     25  N         33.9880   -2.5390    4.5160 N.3    68  PHE68      -0.1241
     26  CA        34.5840   -3.3100    5.5970 C.3    68  PHE68       0.1605
     27  C         33.6820   -4.4520    6.0790 C.2    68  PHE68       0.2264
     28  O         34.1770   -5.5400    6.3500 O.2    68  PHE68      -0.2867
     29  CB        34.9500   -2.3900    6.7660 C.3    68  PHE68       0.0534
     30  CG        35.7440   -3.0700    7.8420 C.ar   68  PHE68      -0.0203
     31  CD1       37.1370   -3.0190    7.8460 C.ar   68  PHE68      -0.0042
     32  CD2       35.1020   -3.7680    8.8500 C.ar   68  PHE68      -0.0042
     33  CE1       37.8660   -3.6460    8.8460 C.ar   68  PHE68      -0.0003
     34  CE2       35.8270   -4.4010    9.8420 C.ar   68  PHE68      -0.0003
     35  CZ        37.2080   -4.3380    9.8470 C.ar   68  PHE68      -0.0000
     36  N         38.4760   -7.9920   14.3230 N.3    87  ARG87      -0.1231
     37  CA        37.9160   -6.7870   13.7330 C.3    87  ARG87       0.1694
     38  C         38.2570   -5.5600   14.5640 C.2    87  ARG87       0.2592
     39  O         38.5840   -4.5010   14.0190 O.2    87  ARG87      -0.2718
     40  CB        36.4010   -6.8870   13.6600 C.3    87  ARG87       0.0321
     41  CG        35.7630   -5.7920   12.8170 C.3    87  ARG87       0.0489
     42  CD        34.4350   -5.2740   13.3720 C.3    87  ARG87       0.2205
     43  NE        33.4190   -5.3400   12.3210 N.pl3  87  ARG87      -0.0865
     44  CZ        32.7930   -4.3150   11.7530 C.cat  87  ARG87       0.5346
     45  NH1       31.9150   -4.5640   10.7950 N.pl3  87  ARG87       0.1354
     46  NH2       33.0020   -3.0620   12.1300 N.pl3  87  ARG87       0.1354
     47  N         38.1380   -5.7130   15.8790 N.am   88  CYS88      -0.1970
     48  CA        38.3040   -4.6130   16.8110 C.3    88  CYS88       0.1712
     49  C         39.7800   -4.2620   16.9290 C.2    88  CYS88       0.2296
     50  O         40.1700   -3.1110   16.7560 O.2    88  CYS88      -0.2864
     51  CB        37.7320   -4.9870   18.1900 C.3    88  CYS88       0.0983
     52  SG        35.9320   -4.9060   18.2830 S.3    88  CYS88      -0.0798
     53  N         42.0830   -4.8190   14.8410 N.3    90  PHE90      -0.1227
     54  CA        42.4670   -4.1330   13.6140 C.3    90  PHE90       0.1736
     55  C         42.0060   -2.6720   13.5770 C.2    90  PHE90       0.2595
     56  O         42.8000   -1.7760   13.3050 O.2    90  PHE90      -0.2718
     57  CB        41.9260   -4.8890   12.3970 C.3    90  PHE90       0.0547
     58  CG        42.2100   -4.2180   11.0850 C.ar   90  PHE90      -0.0202
     59  CD1       41.3170   -3.2970   10.5540 C.ar   90  PHE90      -0.0042
     60  CD2       43.3630   -4.5140   10.3780 C.ar   90  PHE90      -0.0042
     61  CE1       41.5720   -2.6790    9.3450 C.ar   90  PHE90      -0.0003
     62  CE2       43.6260   -3.9040    9.1720 C.ar   90  PHE90      -0.0003
     63  CZ        42.7300   -2.9830    8.6490 C.ar   90  PHE90      -0.0000
     64  N         40.7310   -2.4180   13.8430 N.am   91  LEU91      -0.1966
     65  CA        40.2010   -1.0540   13.7100 C.3    91  LEU91       0.1728
     66  C         40.7460   -0.0550   14.7460 C.2    91  LEU91       0.2616
     67  O         40.9110    1.1210   14.4260 O.2    91  LEU91      -0.2715
     68  CB        38.6720   -1.0540   13.7440 C.3    91  LEU91       0.0311
     69  CG        37.9720   -1.7610   12.5830 C.3    91  LEU91       0.0022
     70  CD1       36.4960   -1.9830   12.8930 C.3    91  LEU91       0.0001
     71  CD2       38.1350   -0.9830   11.2890 C.3    91  LEU91       0.0001
     72  N         41.0100   -0.5100   15.9700 N.am   92  GLU92      -0.1977
     73  CA        41.5590    0.3600   17.0160 C.3    92  GLU92       0.1602
     74  C         42.9660    0.8620   16.6150 C.2    92  GLU92       0.2287
     75  O         43.3410    2.0020   16.8820 O.2    92  GLU92      -0.2864
     76  CB        41.6010   -0.3740   18.3660 C.3    92  GLU92       0.0415
     77  CG        40.2250   -0.6480   18.9900 C.3    92  GLU92       0.1163
     78  CD        39.5210    0.5960   19.5430 C.2    92  GLU92       0.3649
     79  OE1       38.2720    0.6080   19.6020 O.co2  92  GLU92      -0.2457
     80  OE2       40.1990    1.5680   19.9410 O.co2  92  GLU92      -0.2457
     81  N         43.7240    1.8650   13.8690 N.3    94  VAL94      -0.1231
     82  CA        43.5040    3.0550   13.0390 C.3    94  VAL94       0.1692
     83  C         42.8450    4.2010   13.8110 C.2    94  VAL94       0.2591
     84  O         43.0050    5.3750   13.4650 O.2    94  VAL94      -0.2718
     85  CB        42.5810    2.7080   11.8510 C.3    94  VAL94       0.0266
     86  CG1       42.3720    3.9120   10.9420 C.3    94  VAL94       0.0020
     87  CG2       43.1370    1.5210   11.0810 C.3    94  VAL94       0.0020
     88  N         42.0720    3.8560   14.8360 N.am   95  ALA95      -0.1980
     89  CA        41.3610    4.8460   15.6470 C.3    95  ALA95       0.1597
     90  C         42.3070    5.7090   16.4850 C.2    95  ALA95       0.2287
     91  O         41.9630    6.8370   16.8730 O.2    95  ALA95      -0.2864
     92  CB        40.3780    4.1440   16.5540 C.3    95  ALA95       0.0319
     93  N         47.8650   -0.0870    6.2430 N.3   155  THR155     -0.1218
     94  CA        46.7030    0.7170    6.6090 C.3   155  THR155      0.1862
     95  C         47.1090    1.9960    7.3620 C.2   155  THR155      0.2287
     96  O         46.5410    3.0600    7.1310 O.2   155  THR155     -0.2866
     97  CB        45.7070   -0.1060    7.4510 C.3   155  THR155      0.1770
     98  OG1       45.2090   -1.1950    6.6580 O.3   155  THR155     -0.2211
     99  CG2       44.5450    0.7560    7.9190 C.3   155  THR155      0.0375
    100  N         46.0360    5.8300    5.9560 N.3   159  MET159     -0.1245
    101  CA        45.1870    6.6390    6.8340 C.3   159  MET159      0.1570
    102  C         45.9730    7.7930    7.4520 C.2   159  MET159      0.2261
    103  O         45.4750    8.9240    7.4940 O.2   159  MET159     -0.2867
    104  CB        44.5190    5.7960    7.9320 C.3   159  MET159      0.0387
    105  CG        43.4770    4.7750    7.4500 C.3   159  MET159      0.0595
    106  SD        42.3020    5.3170    6.1790 S.3   159  MET159     -0.1393
    107  CE        41.5150    6.7270    6.9560 C.3   159  MET159      0.0692
    108  N         34.1280   13.3260   10.4570 N.3   177  PHE177     -0.1241
    109  CA        34.3890   11.9800    9.9780 C.3   177  PHE177      0.1605
    110  C         34.7020   11.0300   11.1290 C.2   177  PHE177      0.2264
    111  O         34.2750    9.8780   11.1160 O.2   177  PHE177     -0.2867
    112  CB        35.5450   12.0130    8.9750 C.3   177  PHE177      0.0534
    113  CG        35.9490   10.6600    8.4390 C.ar  177  PHE177     -0.0203
    114  CD1       35.4050   10.1770    7.2630 C.ar  177  PHE177     -0.0042
    115  CD2       36.9170    9.9070    9.0770 C.ar  177  PHE177     -0.0042
    116  CE1       35.7960    8.9560    6.7510 C.ar  177  PHE177     -0.0003
    117  CE2       37.3080    8.6790    8.5750 C.ar  177  PHE177     -0.0003
    118  CZ        36.7440    8.2020    7.4070 C.ar  177  PHE177     -0.0000
    119  N         32.5180    7.8820   12.5850 N.3   181  LEU181     -0.1231
    120  CA        33.2090    6.6250   12.9390 C.3   181  LEU181      0.1693
    121  C         32.7840    6.2140   14.3540 C.2   181  LEU181      0.2591
    122  O         32.5620    5.0270   14.6270 O.2   181  LEU181     -0.2718
    123  CB        34.7480    6.7470   12.8880 C.3   181  LEU181      0.0284
    124  CG        35.6080    6.3770   11.6550 C.3   181  LEU181      0.0019
    125  CD1       35.8400    4.8850   11.5130 C.3   181  LEU181      0.0001
    126  CD2       35.0390    6.9040   10.3540 C.3   181  LEU181      0.0001
    127  N         32.6940    7.1860   15.2570 N.am  182  GLU182     -0.1979
    128  CA        32.3990    6.8710   16.6390 C.3   182  GLU182      0.1602
    129  C         30.9330    6.4690   16.8350 C.2   182  GLU182      0.2287
    130  O         30.6210    5.7440   17.7690 O.2   182  GLU182     -0.2864
    131  CB        32.8110    8.0120   17.5830 C.3   182  GLU182      0.0415
    132  CG        34.2910    8.4180   17.5090 C.3   182  GLU182      0.1163
    133  CD        35.2970    7.3410   17.9190 C.2   182  GLU182      0.3649
    134  OE1       35.1340    6.1440   17.5940 O.co2 182  GLU182     -0.2457
    135  OE2       36.3070    7.7060   18.5510 O.co2 182  GLU182     -0.2457
    136  N         29.4790    4.5750   14.6700 N.3   184  GLU184     -0.1231
    137  CA        29.5760    3.1930   14.2220 C.3   184  GLU184      0.1699
    138  C         30.2310    2.3130   15.2900 C.2   184  GLU184      0.2592
    139  O         29.8430    1.1510   15.4790 O.2   184  GLU184     -0.2718
    140  CB        30.3530    3.1260   12.9090 C.3   184  GLU184      0.0402
    141  CG        29.7120    3.9320   11.7780 C.3   184  GLU184      0.1161
    142  CD        28.5170    3.2430   11.1350 C.2   184  GLU184      0.3649
    143  OE1       28.3380    2.0200   11.3260 O.co2 184  GLU184     -0.2457
    144  OE2       27.7590    3.9240   10.4120 O.co2 184  GLU184     -0.2457
    145  N         31.2150    2.8690   15.9950 N.am  185  ALA185     -0.1980
    146  CA        31.8890    2.1300   17.0540 C.3   185  ALA185      0.1597
    147  C         30.9080    1.8130   18.1820 C.2   185  ALA185      0.2287
    148  O         30.9580    0.7300   18.7810 O.2   185  ALA185     -0.2864
    149  CB        33.0760    2.9160   17.5970 C.3   185  ALA185      0.0319
    150  N         28.7330   -0.9290   16.9560 N.3   188  THR188     -0.1203
    151  CA        29.4490   -2.1960   17.0300 C.3   188  THR188      0.1994
    152  C         29.5110   -2.7330   18.4520 C.2   188  THR188      0.2617
    153  O         29.1980   -3.9040   18.6770 O.2   188  THR188     -0.2717
    154  CB        30.8710   -2.1040   16.4340 C.3   188  THR188      0.1784
    155  OG1       30.7890   -1.7900   15.0340 O.3   188  THR188     -0.2211
    156  CG2       31.6350   -3.4420   16.6180 C.3   188  THR188      0.0376
    157  N         29.8740   -1.8860   19.4100 N.am  189  TYR189     -0.1975
    158  CA        30.0870   -2.3450   20.7790 C.3   189  TYR189      0.1639
    159  C         28.7940   -2.6290   21.5590 C.2   189  TYR189      0.2290
    160  O         28.8170   -3.4680   22.4680 O.2   189  TYR189     -0.2864
    161  CB        30.9850   -1.3790   21.5740 C.3   189  TYR189      0.0560
    162  CG        32.4480   -1.3850   21.1440 C.ar  189  TYR189     -0.0198
    163  CD1       33.1740   -2.5810   21.0690 C.ar  189  TYR189     -0.0009
    164  CD2       33.1190   -0.1910   20.8350 C.ar  189  TYR189     -0.0009
    165  CE1       34.5090   -2.5870   20.6790 C.ar  189  TYR189      0.0417
    166  CE2       34.4550   -0.1950   20.4420 C.ar  189  TYR189      0.0417
    167  CZ        35.1460   -1.3960   20.3700 C.ar  189  TYR189      0.1957
    168  OH        36.4680   -1.4190   19.9770 O.3   189  TYR189     -0.2866
    169  N         34.0780    5.6070   23.4160 N.3   235  GLU235     -0.1245
    170  CA        33.7260    5.9240   22.0280 C.3   235  GLU235      0.1567
    171  C         32.6840    7.0270   21.9820 C.2   235  GLU235      0.2260
    172  O         32.7960    7.9620   21.1900 O.2   235  GLU235     -0.2867
    173  CB        33.1780    4.7080   21.2590 C.3   235  GLU235      0.0388
    174  CG        34.0170    3.4320   21.2880 C.3   235  GLU235      0.1160
    175  CD        35.4700    3.6350   20.9110 C.2   235  GLU235      0.3649
    176  OE1       36.2750    2.7290   21.2210 O.co2 235  GLU235     -0.2457
    177  OE2       35.8170    4.6790   20.2940 O.co2 235  GLU235     -0.2457
@<TRIPOS>BOND
     1     8     9    1
     2    13    12    1
     3     9    12    1
     4     9    10    1
     5    25    26    1
     6    11    10    2
     7    10    14   am
     8     1     2    1
     9    26    27    1
    10    26    29    1
    11   100   101    1
    12    16    17    2
    13    16    15    1
    14    14    15    1
    15    27    28    2
    16   106   107    1
    17   106   105    1
    18    93    94    1
    19     3     2    1
    20     3     4    2
    21    94    95    1
    22    94    97    1
    23     2     5    1
    24    98    97    1
    25   116   114   ar
    26   116   118   ar
    27    29    30    1
    28   101   102    1
    29   101   104    1
    30    15    18    1
    31    96    95    2
    32   114   113   ar
    33   118   117   ar
    34   105   104    1
    35    97    99    1
    36   102   103    2
    37    18    19    1
    38    30    31   ar
    39    30    32   ar
    40    31    33   ar
    41     5     7    1
    42     5     6    1
    43    19    20    1
    44   113   112    1
    45   113   115   ar
    46   117   115   ar
    47    63    62   ar
    48    63    61   ar
    49    33    35   ar
    50    32    34   ar
    51   112   109    1
    52    62    60   ar
    53    61    59   ar
    54    20    21    1
    55    34    35   ar
    56   109   108    1
    57   109   110    1
    58   126   124    1
    59    60    58   ar
    60   144   142   ar
    61    59    58   ar
    62    21    22    2
    63    45    44    1
    64    86    85    1
    65    87    85    1
    66    58    57    1
    67   111   110    2
    68   142   143   ar
    69   142   141    1
    70    71    69    1
    71   125   124    1
    72   124   123    1
    73    44    46    1
    74    44    43    2
    75   141   140    1
    76    85    82    1
    77    22    23    1
    78    22    24    1
    79    43    42    1
    80    57    54    1
    81    69    70    1
    82    69    68    1
    83   119   120    1
    84    41    42    1
    85    41    40    1
    86   123   120    1
    87   140   137    1
    88   120   121    1
    89    82    83    1
    90    82    81    1
    91    56    55    2
    92    84    83    2
    93    55    54    1
    94    55    64   am
    95    54    53    1
    96    40    37    1
    97    65    68    1
    98    65    64    1
    99    65    66    1
   100    37    36    1
   101    37    38    1
   102    83    88   am
   103    39    38    2
   104   137   136    1
   105   137   138    1
   106   121   122    2
   107   121   127   am
   108    67    66    2
   109    38    47   am
   110    66    72   am
   111    88    89    1
   112   155   154    1
   113   127   128    1
   114   138   139    2
   115   138   145   am
   116    89    90    1
   117    89    92    1
   118    47    48    1
   119    72    73    1
   120   145   146    1
   121   154   156    1
   122   154   151    1
   123    90    91    2
   124    74    75    2
   125    74    73    1
   126   128   129    1
   127   128   131    1
   128    50    49    2
   129    48    49    1
   130    48    51    1
   131   129   130    2
   132   150   151    1
   133    73    76    1
   134   151   152    1
   135   146   149    1
   136   146   147    1
   137   132   131    1
   138   132   133    1
   139   134   133   ar
   140   133   135   ar
   141   147   148    2
   142    51    52    1
   143    76    77    1
   144   152   153    2
   145   152   157   am
   146    77    78    1
   147   157   158    1
   148    78    79   ar
   149    78    80   ar
   150   168   167    1
   151   177   175   ar
   152   167   166   ar
   153   167   165   ar
   154   166   164   ar
   155   165   163   ar
   156   158   159    1
   157   158   161    1
   158   164   162   ar
   159   175   176   ar
   160   175   174    1
   161   163   162   ar
   162   162   161    1
   163   172   171    2
   164   173   174    1
   165   173   170    1
   166   159   160    2
   167   171   170    1
   168   170   169    1
