@<TRIPOS>MOLECULE
tmp/3w55A00.pdb
 164 154 0 0 0
SMALL
GASTEIGER

@<TRIPOS>ATOM
      1  N         19.5790   44.8640   45.8940 N.3    21  ILE21      -0.1231
      2  CA        19.7210   43.8850   44.8480 C.3    21  ILE21       0.1696
      3  C         18.4980   43.7620   43.9640 C.2    21  ILE21       0.2632
      4  O         18.5480   43.1050   42.9260 O.2    21  ILE21      -0.2714
      5  CB        20.0560   42.5210   45.4800 C.3    21  ILE21       0.0266
      6  CG1       19.1570   42.2820   46.6940 C.3    21  ILE21       0.0019
      7  CG2       21.5020   42.5010   45.9530 C.3    21  ILE21       0.0020
      8  CD1       19.6170   41.1440   47.5940 C.3    21  ILE21       0.0001
      9  N         17.4040   44.4000   44.3650 N.am   22  GLY22      -0.1718
     10  CA        16.1870   44.3200   43.5730 C.2    22  GLY22       0.1480
     11  C         15.1120   45.3290   43.9350 C.2    22  GLY22       0.2820
     12  O         14.8880   45.6190   45.1120 O.2    22  GLY22      -0.2669
     13  N         14.4310   45.8490   42.9160 N.am   23  GLU23      -0.1943
     14  CA        13.3760   46.8370   43.1150 C.3    23  GLU23       0.1605
     15  C         11.9810   46.2310   43.0880 C.2    23  GLU23       0.2287
     16  O         11.8240   45.0110   43.0480 O.2    23  GLU23      -0.2864
     17  CB        13.4670   47.9270   42.0510 C.3    23  GLU23       0.0415
     18  CG        12.4830   49.0590   42.2580 C.3    23  GLU23       0.1163
     19  CD        12.6530   50.1650   41.2440 C.2    23  GLU23       0.3649
     20  OE1       13.7330   50.7940   41.2280 O.co2  23  GLU23      -0.2457
     21  OE2       11.7090   50.4030   40.4610 O.co2  23  GLU23      -0.2457
     22  N          6.1860   47.2850   45.5310 N.3    26  TYR26      -0.1241
     23  CA         5.5920   46.7730   46.7580 C.3    26  TYR26       0.1605
     24  C          6.6430   46.4620   47.8060 C.2    26  TYR26       0.2264
     25  O          6.3060   46.0600   48.9160 O.2    26  TYR26      -0.2867
     26  CB         4.7790   45.5100   46.4890 C.3    26  TYR26       0.0534
     27  CG         5.6110   44.3320   46.0540 C.ar   26  TYR26      -0.0201
     28  CD1        5.7870   44.0380   44.7050 C.ar   26  TYR26      -0.0009
     29  CD2        6.2180   43.5060   46.9950 C.ar   26  TYR26      -0.0009
     30  CE1        6.5410   42.9490   44.3040 C.ar   26  TYR26       0.0417
     31  CE2        6.9760   42.4140   46.6050 C.ar   26  TYR26       0.0417
     32  CZ         7.1330   42.1390   45.2570 C.ar   26  TYR26       0.1957
     33  OH         7.8780   41.0480   44.8660 O.3    26  TYR26      -0.2866
     34  N         14.3210   45.0680   47.9290 N.3    29  VAL29      -0.1245
     35  CA        15.0570   43.8720   48.3160 C.3    29  VAL29       0.1561
     36  C         16.5300   44.1740   48.5260 C.2    29  VAL29       0.2260
     37  O         17.2350   44.5700   47.5990 O.2    29  VAL29      -0.2867
     38  CB        14.9340   42.7750   47.2450 C.3    29  VAL29       0.0252
     39  CG1       15.8660   41.6260   47.5670 C.3    29  VAL29       0.0019
     40  CG2       13.5170   42.2820   47.1740 C.3    29  VAL29       0.0019
     41  N         19.4090   37.6240   51.8200 N.3    42  ALA42      -0.1245
     42  CA        18.4930   38.4850   51.0920 C.3    42  ALA42       0.1562
     43  C         17.3420   38.8790   52.0120 C.2    42  ALA42       0.2260
     44  O         16.6720   38.0210   52.5880 O.2    42  ALA42      -0.2867
     45  CB        17.9580   37.7580   49.8760 C.3    42  ALA42       0.0290
     46  N         13.8410   40.9030   52.0180 N.3    44  LYS44      -0.1245
     47  CA        12.7850   41.5640   51.2610 C.3    44  LYS44       0.1561
     48  C         11.8260   42.3070   52.2000 C.2    44  LYS44       0.2260
     49  O         11.2210   41.7140   53.1140 O.2    44  LYS44      -0.2867
     50  CB        11.9880   40.5470   50.4290 C.3    44  LYS44       0.0271
     51  CG        10.9530   41.2010   49.5230 C.3    44  LYS44       0.0035
     52  CD         9.7000   40.3500   49.3590 C.3    44  LYS44       0.0206
     53  CE         9.9360   39.0830   48.5310 C.3    44  LYS44       0.1093
     54  NZ         8.6590   38.4140   48.0850 N.3    44  LYS44      -0.1314
     55  N         12.8920   29.0290   46.8890 N.3    74  ILE74      -0.1245
     56  CA        13.6570   29.7760   47.8870 C.3    74  ILE74       0.1561
     57  C         12.7320   30.0670   49.0810 C.2    74  ILE74       0.2260
     58  O         11.7710   30.8380   48.9760 O.2    74  ILE74      -0.2867
     59  CB        14.2610   31.1030   47.2700 C.3    74  ILE74       0.0252
     60  CG1       15.5640   31.4760   47.9860 C.3    74  ILE74       0.0019
     61  CG2       13.2830   32.2520   47.3730 C.3    74  ILE74       0.0019
     62  CD1       15.4300   31.6970   49.4860 C.3    74  ILE74       0.0001
     63  N         15.4870   35.8340   53.3520 N.3    95  GLN95      -0.1231
     64  CA        15.6340   34.6670   52.5240 C.3    95  GLN95       0.1698
     65  C         17.0890   34.4500   52.1750 C.2    95  GLN95       0.2592
     66  O         17.9280   35.2700   52.5060 O.2    95  GLN95      -0.2718
     67  CB        14.8130   34.8630   51.2610 C.3    95  GLN95       0.0381
     68  CG        13.4250   35.4410   51.4950 C.3    95  GLN95       0.0905
     69  CD        12.4940   35.1440   50.3390 C.2    95  GLN95       0.2608
     70  OE1       12.2440   33.9760   50.0280 O.2    95  GLN95      -0.2717
     71  NE2       11.9790   36.1920   49.6910 N.am   95  GLN95      -0.0878
     72  N         17.3820   33.3390   51.5080 N.am   96  ASP96      -0.1960
     73  CA        18.7500   33.0190   51.1100 C.3    96  ASP96       0.1840
     74  C         19.2720   34.0710   50.1480 C.2    96  ASP96       0.2622
     75  O         18.5060   34.8500   49.5880 O.2    96  ASP96      -0.2715
     76  CB        18.8100   31.6450   50.4310 C.3    96  ASP96       0.1450
     77  CG        18.7430   30.5000   51.4170 C.2    96  ASP96       0.3671
     78  OD1       18.2270   29.4250   51.0420 O.co2  96  ASP96      -0.2456
     79  OD2       19.2200   30.6670   52.5590 O.co2  96  ASP96      -0.2456
     80  N         20.5840   34.0880   49.9580 N.am   97  LEU97      -0.1963
     81  CA        21.1970   35.0490   49.0590 C.3    97  LEU97       0.1728
     82  C         21.6730   34.3450   47.7860 C.2    97  LEU97       0.2616
     83  O         22.7440   33.7380   47.7560 O.2    97  LEU97      -0.2715
     84  CB        22.3550   35.7540   49.7830 C.3    97  LEU97       0.0311
     85  CG        23.1690   36.8410   49.0700 C.3    97  LEU97       0.0022
     86  CD1       22.2720   37.8350   48.3600 C.3    97  LEU97       0.0001
     87  CD2       24.0220   37.5430   50.1010 C.3    97  LEU97       0.0001
     88  N         20.8540   34.4110   46.7400 N.am   98  MET98      -0.1963
     89  CA        21.2030   33.7800   45.4790 C.3    98  MET98       0.1736
     90  C         22.1910   34.6490   44.7380 C.2    98  MET98       0.2616
     91  O         22.3450   35.8330   45.0360 O.2    98  MET98      -0.2715
     92  CB        19.9640   33.5480   44.6200 C.3    98  MET98       0.0427
     93  CG        18.9900   32.5540   45.2270 C.3    98  MET98       0.0599
     94  SD        19.8010   31.0400   45.7360 S.3    98  MET98      -0.1393
     95  CE        20.6160   31.6100   47.2120 C.3    98  MET98       0.0692
     96  N         22.8570   34.0520   43.7640 N.am   99  GLU99      -0.1963
     97  CA        23.8400   34.7680   42.9790 C.3    99  GLU99       0.1733
     98  C         23.2330   35.7570   41.9930 C.2    99  GLU99       0.2617
     99  O         23.6100   36.9230   41.9760 O.2    99  GLU99      -0.2715
    100  CB        24.7150   33.7720   42.2150 C.3    99  GLU99       0.0429
    101  CG        25.9780   34.3830   41.6530 C.3    99  GLU99       0.1163
    102  CD        27.0570   34.5080   42.6980 C.2    99  GLU99       0.3649
    103  OE1       27.8960   35.4310   42.5860 O.co2  99  GLU99      -0.2457
    104  OE2       27.0610   33.6690   43.6240 O.co2  99  GLU99      -0.2457
    105  N         22.2870   35.2880   41.1870 N.am  100  THR100     -0.1937
    106  CA        21.6380   36.1300   40.1870 C.3   100  THR100      0.2028
    107  C         20.3210   35.4760   39.7250 C.2   100  THR100      0.2642
    108  O         20.0400   34.3460   40.1140 O.2   100  THR100     -0.2714
    109  CB        22.5850   36.2670   38.9900 C.3   100  THR100      0.1808
    110  OG1       22.1060   37.2710   38.0890 O.3   100  THR100     -0.2208
    111  CG2       22.7040   34.9280   38.2710 C.3   100  THR100      0.0379
    112  N         19.5080   36.1650   38.9190 N.am  101  ASP101     -0.1971
    113  CA        18.2510   35.5570   38.4590 C.3   101  ASP101      0.1709
    114  C         18.2160   35.3460   36.9470 C.2   101  ASP101      0.2293
    115  O         19.0170   35.9330   36.2250 O.2   101  ASP101     -0.2864
    116  CB        17.0280   36.3560   38.9370 C.3   101  ASP101      0.1436
    117  CG        17.0300   37.7790   38.4630 C.2   101  ASP101      0.3671
    118  OD1       16.8280   38.0010   37.2540 O.co2 101  ASP101     -0.2456
    119  OD2       17.2300   38.6740   39.3090 O.co2 101  ASP101     -0.2456
    120  N         18.3540   38.3370   34.3920 N.3   104  LYS104     -0.1245
    121  CA        19.6390   39.0090   34.2680 C.3   104  LYS104      0.1561
    122  C         20.5860   38.1840   33.4120 C.2   104  LYS104      0.2260
    123  O         21.2360   38.7100   32.5190 O.2   104  LYS104     -0.2867
    124  CB        20.2840   39.2020   35.6380 C.3   104  LYS104      0.0271
    125  CG        19.4530   39.9370   36.6890 C.3   104  LYS104      0.0035
    126  CD        20.2740   40.0270   37.9780 C.3   104  LYS104      0.0206
    127  CE        19.6610   40.9280   39.0300 C.3   104  LYS104      0.1093
    128  NZ        20.6110   41.0840   40.1600 N.3   104  LYS104     -0.1314
    129  N         12.6960   36.7460   36.1810 N.3   143  SER143     -0.1202
    130  CA        12.9710   37.4430   37.4320 C.3   143  SER143      0.2020
    131  C         12.7270   36.6000   38.6690 C.2   143  SER143      0.2618
    132  O         13.4850   36.6770   39.6340 O.2   143  SER143     -0.2717
    133  CB        12.1270   38.6990   37.5250 C.3   143  SER143      0.2103
    134  OG        11.5320   38.9930   36.2740 O.3   143  SER143     -0.2182
    135  N         11.6650   35.8070   38.6510 N.am  144  ASN144     -0.1974
    136  CA        11.3520   34.9650   39.7920 C.3   144  ASN144      0.1688
    137  C         12.0970   33.6470   39.7340 C.2   144  ASN144      0.2292
    138  O         11.7220   32.6780   40.3940 O.2   144  ASN144     -0.2864
    139  CB         9.8450   34.7230   39.8800 C.3   144  ASN144      0.1181
    140  CG         9.0860   35.9840   40.1710 C.2   144  ASN144      0.2629
    141  OD1        7.8650   36.0430   40.0280 O.2   144  ASN144     -0.2716
    142  ND2        9.8100   37.0140   40.5850 N.am  144  ASN144     -0.0877
    143  N         15.5820   32.4420   40.5920 N.3   146  LEU146     -0.1245
    144  CA        16.8710   32.6730   41.2290 C.3   146  LEU146      0.1561
    145  C         17.9340   31.6380   40.8840 C.2   146  LEU146      0.2260
    146  O         17.6340   30.4680   40.6340 O.2   146  LEU146     -0.2867
    147  CB        16.6820   32.7120   42.7340 C.3   146  LEU146      0.0270
    148  CG        16.5530   34.0730   43.4170 C.3   146  LEU146      0.0019
    149  CD1       15.8700   35.1100   42.5320 C.3   146  LEU146      0.0001
    150  CD2       15.7970   33.8370   44.7220 C.3   146  LEU146      0.0001
    151  N         11.0080   32.1080   42.8330 N.3   156  CYS156     -0.1221
    152  CA        10.7380   33.1470   43.8110 C.3   156  CYS156      0.1808
    153  C          9.3580   33.7620   43.6350 C.2   156  CYS156      0.2601
    154  O          8.7480   33.6660   42.5710 O.2   156  CYS156     -0.2717
    155  CB        11.8020   34.2460   43.7040 C.3   156  CYS156      0.0970
    156  SG        11.7110   35.5550   44.9590 S.3   156  CYS156     -0.0800
    157  N          8.8930   34.3900   44.7110 N.am  157  ASP157     -0.1973
    158  CA         7.6080   35.0590   44.7870 C.3   157  ASP157      0.1709
    159  C          6.4140   34.1330   44.6920 C.2   157  ASP157      0.2293
    160  O          6.2560   33.4040   43.7190 O.2   157  ASP157     -0.2864
    161  CB         7.5100   36.1260   43.7020 C.3   157  ASP157      0.1436
    162  CG         6.6660   37.3050   44.1260 C.2   157  ASP157      0.3671
    163  OD1        5.5030   37.0950   44.5210 O.co2 157  ASP157     -0.2456
    164  OD2        7.1680   38.4440   44.0620 O.co2 157  ASP157     -0.2456
@<TRIPOS>BOND
     1   123   122    2
     2   122   121    1
     3   121   120    1
     4   121   124    1
     5   124   125    1
     6   129   130    1
     7   115   114    2
     8   134   133    1
     9   125   126    1
    10   114   113    1
    11   118   117   ar
    12   130   133    1
    13   130   131    1
    14   126   127    1
    15   110   109    1
    16   111   109    1
    17   113   112    1
    18   113   116    1
    19   117   116    1
    20   117   119   ar
    21   135   131   am
    22   135   136    1
    23   131   132    2
    24   112   107   am
    25   109   106    1
    26   127   128    1
    27   107   108    2
    28   107   106    1
    29   137   136    1
    30   137   138    2
    31   136   139    1
    32   139   140    1
    33   141   140    2
    34   140   142   am
    35   106   105    1
    36    21    19   ar
    37   143   144    1
    38   146   145    2
    39   145   144    1
    40   105    98   am
    41    20    19   ar
    42   144   147    1
    43    19    18    1
    44   101   100    1
    45   101   102    1
    46    99    98    2
    47    98    97    1
    48    17    18    1
    49    17    14    1
    50   100    97    1
    51   149   148    1
    52   154   153    2
    53   103   102   ar
    54   102   104   ar
    55   147   148    1
    56   151   152    1
    57    13    14    1
    58    13    11   am
    59     4     3    2
    60    97    96    1
    61    16    15    2
    62    15    14    1
    63   148   150    1
    64    10    11    1
    65    10     9    2
    66   153   152    1
    67   153   157   am
    68   161   162    1
    69   161   158    1
    70   155   152    1
    71   155   156    1
    72   160   159    2
    73    96    90   am
    74    11    12    2
    75     3     9    1
    76     3     2    1
    77   164   162   ar
    78   162   163   ar
    79    30    28   ar
    80    30    32   ar
    81    92    93    1
    82    92    89    1
    83   159   158    1
    84    28    27   ar
    85   157   158    1
    86    90    91    2
    87    90    89    1
    88     2     5    1
    89     2     1    1
    90    33    32    1
    91    93    94    1
    92    32    31   ar
    93    89    88    1
    94     5     7    1
    95     5     6    1
    96    22    23    1
    97    94    95    1
    98    27    26    1
    99    27    29   ar
   100    26    23    1
   101    31    29   ar
   102     6     8    1
   103    88    82   am
   104    23    24    1
   105    55    56    1
   106    40    38    1
   107    38    39    1
   108    38    35    1
   109    59    61    1
   110    59    56    1
   111    59    60    1
   112    37    36    2
   113    83    82    2
   114    82    81    1
   115    24    25    2
   116    56    57    1
   117    34    35    1
   118    60    62    1
   119    54    53    1
   120    35    36    1
   121    86    85    1
   122    53    52    1
   123    58    57    2
   124    81    84    1
   125    81    80    1
   126    85    84    1
   127    85    87    1
   128    52    51    1
   129    51    50    1
   130    75    74    2
   131    71    69   am
   132    45    42    1
   133    80    74   am
   134    70    69    2
   135    74    73    1
   136    69    68    1
   137    50    47    1
   138    76    73    1
   139    76    77    1
   140    78    77   ar
   141    42    41    1
   142    42    43    1
   143    73    72    1
   144    47    46    1
   145    47    48    1
   146    67    68    1
   147    67    64    1
   148    77    79   ar
   149    72    65   am
   150    43    44    2
   151    65    66    2
   152    65    64    1
   153    48    49    2
   154    64    63    1
