@<TRIPOS>MOLECULE
tmp/3w5eA00.pdb
 223 216 0 0 0
SMALL
GASTEIGER

@<TRIPOS>ATOM
      1  N         26.5070    8.2140  -14.9260 N.3    80  TYR80      -0.1227
      2  CA        26.2980    9.3260  -14.0020 C.3    80  TYR80       0.1736
      3  C         25.0340    9.1240  -13.1660 C.2    80  TYR80       0.2595
      4  O         25.1100    9.1840  -11.9380 O.2    80  TYR80      -0.2718
      5  CB        26.2000   10.6650  -14.7520 C.3    80  TYR80       0.0548
      6  CG        25.9740   11.8580  -13.8440 C.ar   80  TYR80      -0.0200
      7  CD1       27.0520   12.5680  -13.3230 C.ar   80  TYR80      -0.0009
      8  CD2       24.6810   12.3010  -13.5200 C.ar   80  TYR80      -0.0009
      9  CE1       26.8610   13.6520  -12.5070 C.ar   80  TYR80       0.0417
     10  CE2       24.4920   13.4080  -12.7180 C.ar   80  TYR80       0.0417
     11  CZ        25.5920   14.0730  -12.2090 C.ar   80  TYR80       0.1957
     12  OH        25.4330   15.1550  -11.3910 O.3    80  TYR80      -0.2866
     13  N         23.8850    8.9090  -13.8390 N.am   81  HIS81      -0.1975
     14  CA        22.5740    8.8070  -13.1680 C.3    81  HIS81       0.1656
     15  C         22.3770    7.5050  -12.4760 C.2    81  HIS81       0.2291
     16  O         21.4540    6.7610  -12.7780 O.2    81  HIS81      -0.2864
     17  CB        21.4160    9.1620  -14.1250 C.3    81  HIS81       0.0771
     18  CG        21.4130   10.6170  -14.5470 C.ar   81  HIS81       0.0820
     19  ND1       21.9170   11.0250  -15.7130 N.ar   81  HIS81      -0.2267
     20  CD2       21.0100   11.7770  -13.8680 C.ar   81  HIS81       0.1154
     21  CE1       21.8190   12.3780  -15.8140 C.ar   81  HIS81       0.1986
     22  NE2       21.2600   12.8350  -14.6830 N.ar   81  HIS81      -0.2212
     23  N         18.5950   11.5890  -22.1850 N.3   129  SER129     -0.1217
     24  CA        17.7170   12.7760  -22.0810 C.3   129  SER129      0.1889
     25  C         16.2100   12.5700  -22.3290 C.2   129  SER129      0.2288
     26  O         15.8000   11.6320  -22.9740 O.2   129  SER129     -0.2866
     27  CB        18.2100   13.8580  -23.0530 C.3   129  SER129      0.2089
     28  OG        17.9520   13.4640  -24.4070 O.3   129  SER129     -0.2183
     29  N         15.3750   20.3900  -16.4360 N.3   194  MET194     -0.1245
     30  CA        16.2320   21.4900  -16.9180 C.3   194  MET194      0.1570
     31  C         15.5560   22.5130  -17.7880 C.2   194  MET194      0.2261
     32  O         15.8730   23.6730  -17.7220 O.2   194  MET194     -0.2867
     33  CB        17.4610   20.9630  -17.6900 C.3   194  MET194      0.0387
     34  CG        18.7920   21.2180  -16.9900 C.3   194  MET194      0.0595
     35  SD        18.8640   20.3750  -15.3930 S.3   194  MET194     -0.1393
     36  CE        20.6370   20.1340  -15.2320 C.3   194  MET194      0.0692
     37  N         20.9790   19.2610   -7.0440 N.3   239  ASP239     -0.1225
     38  CA        21.0680   18.5980   -8.3290 C.3   239  ASP239      0.1805
     39  C         22.1870   19.1770   -9.1830 C.2   239  ASP239      0.2597
     40  O         22.8560   18.4340   -9.8950 O.2   239  ASP239     -0.2718
     41  CB        19.7500   18.6960   -9.0960 C.3   239  ASP239      0.1424
     42  CG        19.5720   17.5550  -10.1350 C.2   239  ASP239      0.3668
     43  OD1       20.4050   16.6340  -10.2190 O.co2 239  ASP239     -0.2456
     44  OD2       18.5690   17.5680  -10.8760 O.co2 239  ASP239     -0.2456
     45  N         22.3980   20.4920   -9.0890 N.am  240  LEU240     -0.1979
     46  CA        23.4470   21.1810   -9.8570 C.3   240  LEU240      0.1596
     47  C         24.6450   21.5970   -8.9960 C.2   240  LEU240      0.2287
     48  O         25.1770   22.7100   -9.1530 O.2   240  LEU240     -0.2864
     49  CB        22.8430   22.3990  -10.5780 C.3   240  LEU240      0.0297
     50  CG        22.3940   22.1470  -12.0110 C.3   240  LEU240      0.0022
     51  CD1       21.9200   20.7140  -12.1670 C.3   240  LEU240      0.0001
     52  CD2       21.3530   23.1390  -12.5210 C.3   240  LEU240      0.0001
     53  N         27.5560   19.6690   -8.3780 N.3   242  ASN242     -0.1226
     54  CA        28.8440   19.0810   -8.6860 C.3   242  ASN242      0.1770
     55  C         29.9180   20.1770   -8.8060 C.2   242  ASN242      0.2439
     56  O         30.9340   20.1120   -8.1230 O.2   242  ASN242     -0.2733
     57  CB        28.7780   18.2240   -9.9610 C.3   242  ASN242      0.1168
     58  CG        28.0150   16.8840   -9.7760 C.2   242  ASN242      0.2627
     59  OD1       27.7790   16.1830  -10.7480 O.2   242  ASN242     -0.2716
     60  ND2       27.6890   16.5140   -8.5590 N.am  242  ASN242     -0.0877
     61  N         29.6860   21.2000   -9.6570 N.am  243  PRO243     -0.2729
     62  CA        30.7690   22.1480   -9.8980 C.3   243  PRO243      0.1401
     63  C         31.1870   22.9560   -8.6540 C.2   243  PRO243      0.2269
     64  O         32.2220   23.6260   -8.6860 O.2   243  PRO243     -0.2865
     65  CB        30.1830   23.0700  -10.9970 C.3   243  PRO243      0.0296
     66  CG        29.0850   22.2540  -11.6150 C.3   243  PRO243      0.0237
     67  CD        28.4850   21.5710  -10.4400 C.3   243  PRO243      0.0939
     68  N         34.6480   17.3070   -8.5050 N.3   250  TYR250     -0.1241
     69  CA        33.9950   17.8630   -9.6760 C.3   250  TYR250      0.1605
     70  C         34.3880   17.1590  -10.9750 C.2   250  TYR250      0.2264
     71  O         33.5380   16.9010  -11.8240 O.2   250  TYR250     -0.2867
     72  CB        34.3040   19.3480   -9.7710 C.3   250  TYR250      0.0534
     73  CG        33.6860   20.1030  -10.9400 C.ar  250  TYR250     -0.0201
     74  CD1       32.6290   19.5730  -11.7060 C.ar  250  TYR250     -0.0009
     75  CD2       34.1280   21.4010  -11.2330 C.ar  250  TYR250     -0.0009
     76  CE1       32.0790   20.3060  -12.7590 C.ar  250  TYR250      0.0417
     77  CE2       33.5830   22.1450  -12.2670 C.ar  250  TYR250      0.0417
     78  CZ        32.5740   21.5960  -13.0320 C.ar  250  TYR250      0.1957
     79  OH        32.0720   22.3810  -14.0450 O.3   250  TYR250     -0.2866
     80  N         32.7660   13.8020  -11.4180 N.3   253  TRP253     -0.1227
     81  CA        31.4120   14.0340  -11.9290 C.3   253  TRP253      0.1737
     82  C         31.3730   14.3460  -13.3920 C.2   253  TRP253      0.2596
     83  O         30.5440   13.8060  -14.1380 O.2   253  TRP253     -0.2718
     84  CB        30.6600   15.1390  -11.1510 C.3   253  TRP253      0.0564
     85  CG        30.4200   14.8020   -9.6900 C.ar  253  TRP253      0.0003
     86  CD1       30.7950   15.5520   -8.5770 C.ar  253  TRP253      0.0946
     87  CD2       29.7810   13.5960   -9.1480 C.ar  253  TRP253      0.0152
     88  NE1       30.4370   14.9320   -7.4160 N.ar  253  TRP253     -0.2442
     89  CE2       29.7990   13.7490   -7.6860 C.ar  253  TRP253      0.0810
     90  CE3       29.1640   12.4700   -9.7060 C.ar  253  TRP253      0.0012
     91  CZ2       29.2550   12.7750   -6.8330 C.ar  253  TRP253      0.0191
     92  CZ3       28.6310   11.5050   -8.8360 C.ar  253  TRP253      0.0001
     93  CH2       28.6860   11.6610   -7.4340 C.ar  253  TRP253      0.0015
     94  N         32.2190   15.2690  -13.8270 N.am  254  THR254     -0.1953
     95  CA        32.2230   15.6370  -15.2410 C.3   254  THR254      0.1897
     96  C         32.6040   14.4410  -16.0850 C.2   254  THR254      0.2313
     97  O         31.9280   14.1580  -17.0920 O.2   254  THR254     -0.2863
     98  CB        33.1490   16.8200  -15.4950 C.3   254  THR254      0.1794
     99  OG1       32.6580   17.9130  -14.7320 O.3   254  THR254     -0.2208
    100  CG2       33.1280   17.2310  -16.9290 C.3   254  THR254      0.0378
    101  N         29.3910   12.2060  -16.2980 N.3   257  ILE257     -0.1231
    102  CA        28.3320   12.7240  -17.1700 C.3   257  ILE257      0.1692
    103  C         28.7260   12.7140  -18.6540 C.2   257  ILE257      0.2591
    104  O         27.8870   12.4840  -19.5060 O.2   257  ILE257     -0.2718
    105  CB        27.8620   14.1250  -16.7580 C.3   257  ILE257      0.0266
    106  CG1       26.5390   14.4780  -17.4400 C.3   257  ILE257      0.0019
    107  CG2       28.8600   15.1730  -17.1780 C.3   257  ILE257      0.0020
    108  CD1       25.3720   13.6410  -17.0060 C.3   257  ILE257      0.0001
    109  N         29.9940   12.9650  -18.9560 N.am  258  MET258     -0.1979
    110  CA        30.4740   12.9650  -20.3510 C.3   258  MET258      0.1605
    111  C         30.4200   11.5620  -20.9180 C.2   258  MET258      0.2287
    112  O         29.9740   11.3770  -22.0500 O.2   258  MET258     -0.2864
    113  CB        31.9020   13.5290  -20.4780 C.3   258  MET258      0.0413
    114  CG        32.0050   15.0130  -20.2140 C.3   258  MET258      0.0598
    115  SD        30.7860   16.0540  -21.0790 S.3   258  MET258     -0.1393
    116  CE        31.0660   15.3570  -22.7150 C.3   258  MET258      0.0692
    117  N         26.8400   11.1040  -21.6640 N.3   261  PHE261     -0.1241
    118  CA        26.4400   11.8210  -22.8770 C.3   261  PHE261      0.1605
    119  C         26.9570   11.0650  -24.1240 C.2   261  PHE261      0.2264
    120  O         26.2420   10.8570  -25.0630 O.2   261  PHE261     -0.2867
    121  CB        26.9410   13.2790  -22.8520 C.3   261  PHE261      0.0534
    122  CG        26.2080   14.1800  -21.8580 C.ar  261  PHE261     -0.0203
    123  CD1       25.0900   13.7350  -21.1380 C.ar  261  PHE261     -0.0042
    124  CD2       26.6110   15.5050  -21.6740 C.ar  261  PHE261     -0.0042
    125  CE1       24.4130   14.5820  -20.2490 C.ar  261  PHE261     -0.0003
    126  CE2       25.9420   16.3530  -20.7850 C.ar  261  PHE261     -0.0003
    127  CZ        24.8450   15.8930  -20.0690 C.ar  261  PHE261     -0.0000
    128  N         24.9760    8.0640  -24.8430 N.3   264  GLN264     -0.1245
    129  CA        23.7890    8.5200  -25.5620 C.3   264  GLN264      0.1566
    130  C         24.0450    8.7100  -27.0740 C.2   264  GLN264      0.2260
    131  O         23.2240    8.3180  -27.9020 O.2   264  GLN264     -0.2867
    132  CB        23.2050    9.8320  -24.9730 C.3   264  GLN264      0.0367
    133  CG        21.8500   10.1910  -25.6040 C.3   264  GLN264      0.0905
    134  CD        21.0700   11.2650  -24.8400 C.2   264  GLN264      0.2608
    135  OE1       20.9910   11.2510  -23.6190 O.2   264  GLN264     -0.2717
    136  NE2       20.4920   12.1920  -25.5680 N.am  264  GLN264     -0.0878
    137  N         25.6750   14.2970  -32.6750 N.3   278  MET278     -0.1245
    138  CA        26.3760   15.0590  -31.6420 C.3   278  MET278      0.1570
    139  C         27.8540   14.7340  -31.7510 C.2   278  MET278      0.2261
    140  O         28.2140   13.6830  -32.3020 O.2   278  MET278     -0.2867
    141  CB        25.8190   14.7630  -30.2330 C.3   278  MET278      0.0387
    142  CG        26.4860   13.6370  -29.4550 C.3   278  MET278      0.0595
    143  SD        25.8630   13.4480  -27.7640 S.3   278  MET278     -0.1393
    144  CE        26.0480   15.0930  -27.0750 C.3   278  MET278      0.0692
    145  N         32.7170   23.3110  -23.0080 N.3   289  SER289     -0.1202
    146  CA        31.3150   23.1050  -22.7180 C.3   289  SER289      0.2020
    147  C         30.9910   23.2280  -21.2390 C.2   289  SER289      0.2618
    148  O         29.8770   23.6350  -20.8940 O.2   289  SER289     -0.2717
    149  CB        30.8240   21.7800  -23.2870 C.3   289  SER289      0.2103
    150  OG        30.6540   21.9150  -24.6850 O.3   289  SER289     -0.2182
    151  N         31.9580   22.9030  -20.3780 N.am  290  GLN290     -0.1979
    152  CA        31.8060   23.1270  -18.9410 C.3   290  GLN290      0.1601
    153  C         31.6530   24.6020  -18.6130 C.2   290  GLN290      0.2287
    154  O         30.7080   24.9940  -17.9410 O.2   290  GLN290     -0.2864
    155  CB        32.9820   22.5520  -18.1460 C.3   290  GLN290      0.0394
    156  CG        32.8270   21.0810  -17.8560 C.3   290  GLN290      0.0908
    157  CD        31.4470   20.7440  -17.3360 C.2   290  GLN290      0.2608
    158  OE1       31.0590   21.1970  -16.2730 O.2   290  GLN290     -0.2717
    159  NE2       30.6970   19.9310  -18.0910 N.am  290  GLN290     -0.0878
    160  N         28.5540   25.7660  -19.6380 N.3   293  PHE293     -0.1241
    161  CA        27.5590   25.2490  -18.6710 C.3   293  PHE293      0.1605
    162  C         27.4940   26.0530  -17.3550 C.2   293  PHE293      0.2264
    163  O         26.4120   26.3190  -16.8170 O.2   293  PHE293     -0.2867
    164  CB        27.8490   23.7660  -18.4160 C.3   293  PHE293      0.0534
    165  CG        26.8820   23.0860  -17.4840 C.ar  293  PHE293     -0.0203
    166  CD1       25.5190   23.0260  -17.7850 C.ar  293  PHE293     -0.0042
    167  CD2       27.3390   22.4720  -16.3120 C.ar  293  PHE293     -0.0042
    168  CE1       24.6210   22.4110  -16.9150 C.ar  293  PHE293     -0.0003
    169  CE2       26.4440   21.8380  -15.4520 C.ar  293  PHE293     -0.0003
    170  CZ        25.0910   21.8040  -15.7560 C.ar  293  PHE293     -0.0000
    171  N         28.1390   19.5810  -27.3740 N.3   336  LEU336     -0.1231
    172  CA        27.4010   19.3730  -26.1270 C.3   336  LEU336      0.1693
    173  C         26.4650   20.5070  -25.7620 C.2   336  LEU336      0.2591
    174  O         25.2900   20.2770  -25.4790 O.2   336  LEU336     -0.2718
    175  CB        28.3790   19.1290  -24.9780 C.3   336  LEU336      0.0284
    176  CG        29.3440   17.9600  -25.2140 C.3   336  LEU336      0.0019
    177  CD1       30.5240   17.9670  -24.2470 C.3   336  LEU336      0.0001
    178  CD2       28.6080   16.6190  -25.1830 C.3   336  LEU336      0.0001
    179  N         26.9820   21.7300  -25.7640 N.am  337  MET337     -0.1979
    180  CA        26.1950   22.8630  -25.3110 C.3   337  MET337      0.1605
    181  C         25.1990   23.2770  -26.3860 C.2   337  MET337      0.2287
    182  O         24.0790   23.6680  -26.0730 O.2   337  MET337     -0.2864
    183  CB        27.1090   24.0220  -24.8920 C.3   337  MET337      0.0413
    184  CG        26.3910   25.2830  -24.4190 C.3   337  MET337      0.0598
    185  SD        25.5300   25.2750  -22.8260 S.3   337  MET337     -0.1393
    186  CE        26.6520   24.3190  -21.8220 C.3   337  MET337      0.0692
    187  N         23.7730   21.2510  -28.3970 N.3   339  LYS339     -0.1231
    188  CA        22.7510   20.2050  -28.2770 C.3   339  LYS339      0.1693
    189  C         21.8980   20.4380  -27.0490 C.2   339  LYS339      0.2592
    190  O         20.6770   20.2740  -27.0940 O.2   339  LYS339     -0.2718
    191  CB        23.3830   18.7930  -28.2300 C.3   339  LYS339      0.0285
    192  CG        22.3720   17.6440  -28.2040 C.3   339  LYS339      0.0035
    193  CD        23.0640   16.3030  -28.3850 C.3   339  LYS339      0.0206
    194  CE        22.2070   15.1070  -27.9760 C.3   339  LYS339      0.1093
    195  NZ        21.1460   14.7700  -28.9580 N.3   339  LYS339     -0.1314
    196  N         22.5450   20.8290  -25.9540 N.am  340  PHE340     -0.1976
    197  CA        21.8220   21.2250  -24.7570 C.3   340  PHE340      0.1639
    198  C         20.8500   22.3880  -24.9810 C.2   340  PHE340      0.2290
    199  O         19.6830   22.2850  -24.6110 O.2   340  PHE340     -0.2864
    200  CB        22.7770   21.5810  -23.6290 C.3   340  PHE340      0.0560
    201  CG        22.0820   22.1040  -22.4080 C.ar  340  PHE340     -0.0200
    202  CD1       21.4200   21.2360  -21.5510 C.ar  340  PHE340     -0.0042
    203  CD2       22.0770   23.4660  -22.1230 C.ar  340  PHE340     -0.0042
    204  CE1       20.7720   21.7140  -20.4270 C.ar  340  PHE340     -0.0003
    205  CE2       21.4270   23.9490  -21.0000 C.ar  340  PHE340     -0.0003
    206  CZ        20.7770   23.0760  -20.1490 C.ar  340  PHE340     -0.0000
    207  N         17.7860   21.8570  -27.5160 N.3   343  GLU343     -0.1231
    208  CA        16.7570   20.9610  -26.9940 C.3   343  GLU343      0.1699
    209  C         15.9890   21.5380  -25.8010 C.2   343  GLU343      0.2592
    210  O         15.2030   20.8280  -25.1800 O.2   343  GLU343     -0.2718
    211  CB        17.3630   19.6090  -26.6310 C.3   343  GLU343      0.0402
    212  CG        17.8670   18.8080  -27.8230 C.3   343  GLU343      0.1161
    213  CD        18.4460   17.4650  -27.4120 C.2   343  GLU343      0.3649
    214  OE1       18.4740   17.1690  -26.1890 O.co2 343  GLU343     -0.2457
    215  OE2       18.8660   16.7060  -28.3090 O.co2 343  GLU343     -0.2457
    216  N         16.2260   22.8130  -25.4740 N.am  344  LEU344     -0.1980
    217  CA        15.4020   23.5230  -24.4860 C.3   344  LEU344      0.1596
    218  C         14.1270   24.1040  -25.1120 C.2   344  LEU344      0.2287
    219  O         13.1020   24.2590  -24.4260 O.2   344  LEU344     -0.2864
    220  CB        16.1840   24.6500  -23.8090 C.3   344  LEU344      0.0297
    221  CG        17.1650   24.3460  -22.6880 C.3   344  LEU344      0.0022
    222  CD1       17.2790   25.5680  -21.7890 C.3   344  LEU344      0.0001
    223  CD2       16.6960   23.1440  -21.8940 C.3   344  LEU344      0.0001
@<TRIPOS>BOND
     1   137   138    1
     2   140   139    2
     3   139   138    1
     4   138   141    1
     5   141   142    1
     6   142   143    1
     7   195   194    1
     8   187   188    1
     9   193   192    1
    10   193   194    1
    11   215   213   ar
    12   188   191    1
    13   188   189    1
    14   191   192    1
    15   131   130    2
    16   212   213    1
    17   212   211    1
    18   143   144    1
    19   207   208    1
    20   213   214   ar
    21   171   172    1
    22   190   189    2
    23   130   129    1
    24   189   196   am
    25   208   211    1
    26   208   209    1
    27   181   182    2
    28   181   180    1
    29   172   173    1
    30   172   175    1
    31   196   197    1
    32   209   216   am
    33   209   210    2
    34   179   173   am
    35   179   180    1
    36   173   174    2
    37   133   132    1
    38   133   134    1
    39   136   134   am
    40   129   132    1
    41   129   128    1
    42   216   217    1
    43   180   183    1
    44   176   178    1
    45   176   175    1
    46   176   177    1
    47   218   217    1
    48   218   219    2
    49   120   119    2
    50   198   197    1
    51   198   199    2
    52   183   184    1
    53   134   135    2
    54   197   200    1
    55   150   149    1
    56   217   220    1
    57   184   185    1
    58    28    27    1
    59   119   118    1
    60   220   221    1
    61   200   201    1
    62   149   146    1
    63    27    24    1
    64   145   146    1
    65    26    25    2
    66   118   121    1
    67   118   117    1
    68   121   122    1
    69   185   186    1
    70   146   147    1
    71   116   115    1
    72   221   223    1
    73   221   222    1
    74   201   203   ar
    75   201   202   ar
    76    25    24    1
    77    23    24    1
    78   203   205   ar
    79   112   111    2
    80   122   124   ar
    81   122   123   ar
    82   124   126   ar
    83   202   204   ar
    84   147   148    2
    85   147   151   am
    86   123   125   ar
    87   115   114    1
    88   205   206   ar
    89   111   110    1
    90   126   127   ar
    91   113   110    1
    92   113   114    1
    93   204   206   ar
    94   151   152    1
    95   110   109    1
    96   125   127   ar
    97   160   161    1
    98   104   103    2
    99   109   103   am
   100   152   153    1
   101   152   155    1
   102   161   164    1
   103   161   162    1
   104   103   102    1
   105   153   154    2
   106   164   165    1
   107   155   156    1
   108   159   157   am
   109   156   157    1
   110    31    32    2
   111    31    30    1
   112   166   165   ar
   113   166   168   ar
   114    33    34    1
   115    33    30    1
   116   165   167   ar
   117   106   108    1
   118   106   105    1
   119   162   163    2
   120   157   158    2
   121   107   105    1
   122   102   105    1
   123   102   101    1
   124    97    96    2
   125    34    35    1
   126   100    98    1
   127    30    29    1
   128   168   170   ar
   129   167   169   ar
   130    96    95    1
   131    21    19   ar
   132    21    22   ar
   133   170   169   ar
   134    19    18   ar
   135    98    95    1
   136    98    99    1
   137    35    36    1
   138    95    94    1
   139     1     2    1
   140     5     2    1
   141     5     6    1
   142    22    20   ar
   143    18    17    1
   144    18    20   ar
   145    83    82    2
   146    17    14    1
   147    79    78    1
   148     2     3    1
   149     6     8   ar
   150     6     7   ar
   151    13    14    1
   152    13     3   am
   153    94    82   am
   154     8    10   ar
   155    82    81    1
   156     7     9   ar
   157    14    15    1
   158     3     4    2
   159    78    76   ar
   160    78    77   ar
   161    16    15    2
   162    76    74   ar
   163    10    11   ar
   164    52    50    1
   165     9    11   ar
   166    77    75   ar
   167    11    12    1
   168    51    50    1
   169    50    49    1
   170    81    80    1
   171    81    84    1
   172    71    70    2
   173    74    73   ar
   174    66    65    1
   175    66    67    1
   176    75    73   ar
   177    84    85    1
   178    65    62    1
   179    70    69    1
   180    73    72    1
   181    44    42   ar
   182    59    58    2
   183    49    46    1
   184    67    61    1
   185    43    42   ar
   186    42    41    1
   187    57    58    1
   188    57    54    1
   189    62    61    1
   190    62    63    1
   191    40    39    2
   192    46    45    1
   193    46    47    1
   194    58    60   am
   195    72    69    1
   196    90    87   ar
   197    90    92   ar
   198    85    87   ar
   199    85    86   ar
   200    69    68    1
   201    61    55   am
   202    39    45   am
   203    39    38    1
   204    48    47    2
   205    87    89   ar
   206    41    38    1
   207    92    93   ar
   208    55    54    1
   209    55    56    2
   210    54    53    1
   211    64    63    2
   212    86    88   ar
   213    38    37    1
   214    89    88   ar
   215    89    91   ar
   216    93    91   ar
