@<TRIPOS>MOLECULE
tmp/3w5fB01.pdb
 85 82 0 0 0
SMALL
GASTEIGER

@<TRIPOS>ATOM
      1  N         31.7980  -10.3650   70.8660 N.3   425  LEU425     -0.1231
      2  CA        32.1070   -9.5360   69.7000 C.3   425  LEU425      0.1693
      3  C         30.9820   -8.5430   69.3910 C.2   425  LEU425      0.2593
      4  O         29.9600   -8.9070   68.8120 O.2   425  LEU425     -0.2718
      5  CB        32.3820  -10.4140   68.4820 C.3   425  LEU425      0.0284
      6  CG        32.8630   -9.7530   67.1850 C.3   425  LEU425      0.0019
      7  CD1       34.0330   -8.8040   67.4100 C.3   425  LEU425      0.0001
      8  CD2       33.2440  -10.8300   66.1750 C.3   425  LEU425      0.0001
      9  N         31.1740   -7.2860   69.7730 N.am  426  THR426     -0.1939
     10  CA        30.1040   -6.3000   69.6390 C.3   426  THR426      0.2028
     11  C         30.5670   -4.9980   69.0100 C.2   426  THR426      0.2642
     12  O         31.7560   -4.6790   69.0170 O.2   426  THR426     -0.2714
     13  CB        29.3900   -6.0130   70.9850 C.3   426  THR426      0.1808
     14  OG1       30.3270   -5.4950   71.9360 O.3   426  THR426     -0.2208
     15  CG2       28.7360   -7.2830   71.5510 C.3   426  THR426      0.0379
     16  N         29.6060   -4.2670   68.4520 N.am  427  ALA427     -0.1977
     17  CA        29.8150   -2.9380   67.8950 C.3   427  ALA427      0.1597
     18  C         28.4960   -2.1830   67.8980 C.2   427  ALA427      0.2287
     19  O         27.4260   -2.7840   67.8230 O.2   427  ALA427     -0.2864
     20  CB        30.3440   -3.0310   66.4760 C.3   427  ALA427      0.0319
     21  N         26.5540   -1.7160   62.0970 N.3   430  LEU430     -0.1231
     22  CA        26.5480   -2.8550   61.1900 C.3   430  LEU430      0.1693
     23  C         27.8240   -2.9480   60.3680 C.2   430  LEU430      0.2592
     24  O         28.2360   -1.9800   59.7240 O.2   430  LEU430     -0.2718
     25  CB        25.3270   -2.7870   60.2760 C.3   430  LEU430      0.0284
     26  CG        23.9730   -2.9470   60.9760 C.3   430  LEU430      0.0019
     27  CD1       22.8550   -2.5760   60.0150 C.3   430  LEU430      0.0001
     28  CD2       23.7960   -4.3620   61.5040 C.3   430  LEU430      0.0001
     29  N         28.4320   -4.1290   60.3980 N.am  431  TRP431     -0.1962
     30  CA        29.6970   -4.4020   59.7330 C.3   431  TRP431      0.1771
     31  C         29.4810   -5.2440   58.5090 C.2   431  TRP431      0.2619
     32  O         28.5910   -6.0980   58.4830 O.2   431  TRP431     -0.2715
     33  CB        30.6170   -5.1580   60.6780 C.3   431  TRP431      0.0590
     34  CG        31.2140   -4.3570   61.8080 C.ar  431  TRP431      0.0006
     35  CD1       31.3420   -2.9750   61.9060 C.ar  431  TRP431      0.0946
     36  CD2       31.8610   -4.8870   63.0180 C.ar  431  TRP431      0.0152
     37  NE1       31.9760   -2.6250   63.0740 N.ar  431  TRP431     -0.2442
     38  CE2       32.3180   -3.7240   63.7820 C.ar  431  TRP431      0.0810
     39  CE3       32.0820   -6.1630   63.5330 C.ar  431  TRP431      0.0012
     40  CZ2       32.9710   -3.8560   65.0010 C.ar  431  TRP431      0.0191
     41  CZ3       32.7390   -6.2830   64.7650 C.ar  431  TRP431      0.0001
     42  CH2       33.1680   -5.1560   65.4810 C.ar  431  TRP431      0.0015
     43  N         30.3030   -5.0230   57.4890 N.am  432  GLU432     -0.1977
     44  CA        30.2190   -5.7840   56.2410 C.3   432  GLU432      0.1602
     45  C         30.7210   -7.2170   56.4780 C.2   432  GLU432      0.2287
     46  O         31.6460   -7.4370   57.2630 O.2   432  GLU432     -0.2864
     47  CB        31.0100   -5.0620   55.1390 C.3   432  GLU432      0.0415
     48  CG        30.8380   -5.6370   53.7380 C.3   432  GLU432      0.1163
     49  CD        31.7250   -6.8500   53.4830 C.2   432  GLU432      0.3649
     50  OE1       32.8250   -6.9470   54.0770 O.co2 432  GLU432     -0.2457
     51  OE2       31.3130   -7.7230   52.6880 O.co2 432  GLU432     -0.2457
     52  N         34.4020   -8.4870   55.7910 N.3   435  ASN435     -0.1225
     53  CA        35.2830   -7.8380   56.7610 C.3   435  ASN435      0.1785
     54  C         35.3280   -8.6100   58.0820 C.2   435  ASN435      0.2597
     55  O         36.3970   -8.7840   58.6730 O.2   435  ASN435     -0.2718
     56  CB        34.8320   -6.3890   56.9700 C.3   435  ASN435      0.1169
     57  CG        35.6810   -5.6350   57.9750 C.2   435  ASN435      0.2627
     58  OD1       36.9080   -5.7620   58.0170 O.2   435  ASN435     -0.2716
     59  ND2       35.0060   -4.8270   58.7930 N.am  435  ASN435     -0.0877
     60  N         34.1700   -9.1000   58.5250 N.am  436  VAL436     -0.1980
     61  CA        34.0780   -9.8100   59.8120 C.3   436  VAL436      0.1595
     62  C         34.5420  -11.2720   59.7300 C.2   436  VAL436      0.2287
     63  O         35.2750  -11.7480   60.6030 O.2   436  VAL436     -0.2864
     64  CB        32.6500   -9.7370   60.4120 C.3   436  VAL436      0.0276
     65  CG1       32.5870  -10.4110   61.7800 C.3   436  VAL436      0.0022
     66  CG2       32.1780   -8.2960   60.5200 C.3   436  VAL436      0.0022
     67  N         36.1850  -12.7770   57.0680 N.3   438  ARG438     -0.1245
     68  CA        37.3180  -12.9840   56.1540 C.3   438  ARG438      0.1563
     69  C         37.1300  -14.2650   55.3410 C.2   438  ARG438      0.2260
     70  O         38.1030  -14.9350   54.9740 O.2   438  ARG438     -0.2867
     71  CB        38.6560  -12.9780   56.9160 C.3   438  ARG438      0.0307
     72  CG        38.9140  -11.6830   57.6920 C.3   438  ARG438      0.0489
     73  CD        39.0170  -10.5030   56.7380 C.3   438  ARG438      0.2205
     74  NE        38.9150   -9.1990   57.3980 N.pl3 438  ARG438     -0.0865
     75  CZ        39.9520   -8.4400   57.7430 C.cat 438  ARG438      0.5346
     76  NH1       41.1990   -8.8450   57.5180 N.pl3 438  ARG438      0.1354
     77  NH2       39.7400   -7.2670   58.3190 N.pl3 438  ARG438      0.1354
     78  N         23.9180   -4.5980   56.0140 N.3   536  LEU536     -0.1245
     79  CA        24.3740   -3.2260   56.2470 C.3   536  LEU536      0.1561
     80  C         23.1930   -2.2880   56.4500 C.2   536  LEU536      0.2260
     81  O         23.3650   -1.0770   56.6510 O.2   536  LEU536     -0.2867
     82  CB        25.2730   -2.7490   55.1050 C.3   536  LEU536      0.0270
     83  CG        26.6560   -3.4070   55.0650 C.3   536  LEU536      0.0019
     84  CD1       27.3720   -3.0260   53.7860 C.3   536  LEU536      0.0001
     85  CD2       27.4820   -3.0350   56.2920 C.3   536  LEU536      0.0001
@<TRIPOS>BOND
     1    51    49   ar
     2    49    48    1
     3    49    50   ar
     4    48    47    1
     5    84    83    1
     6    70    69    2
     7    83    82    1
     8    83    85    1
     9    82    79    1
    10    47    44    1
    11    69    68    1
    12    52    53    1
    13    78    79    1
    14    68    71    1
    15    68    67    1
    16    44    45    1
    17    44    43    1
    18    79    80    1
    19    80    81    2
    20    45    46    2
    21    73    74    1
    22    73    72    1
    23    53    56    1
    24    53    54    1
    25    71    72    1
    26    56    57    1
    27    74    75    2
    28    43    31   am
    29    76    75    1
    30    75    77    1
    31    57    58    2
    32    57    59   am
    33    54    60   am
    34    54    55    2
    35    32    31    2
    36    31    30    1
    37    60    61    1
    38    24    23    2
    39    62    61    1
    40    62    63    2
    41    30    29    1
    42    30    33    1
    43    61    64    1
    44    27    26    1
    45    25    26    1
    46    25    22    1
    47    23    29   am
    48    23    22    1
    49    64    66    1
    50    64    65    1
    51    33    34    1
    52    26    28    1
    53    22    21    1
    54    34    35   ar
    55    34    36   ar
    56    35    37   ar
    57    36    39   ar
    58    36    38   ar
    59    37    38   ar
    60    39    41   ar
    61    38    40   ar
    62    41    42   ar
    63    40    42   ar
    64     8     6    1
    65    20    17    1
    66     6     7    1
    67     6     5    1
    68    19    18    2
    69    17    18    1
    70    17    16    1
    71    16    11   am
    72     5     2    1
    73     4     3    2
    74    11    12    2
    75    11    10    1
    76     3     2    1
    77     3     9   am
    78    10     9    1
    79    10    13    1
    80     2     1    1
    81    13    15    1
    82    13    14    1
