@<TRIPOS>MOLECULE
tmp/3w5fA04.pdb
 101 103 0 0 0
SMALL
GASTEIGER

@<TRIPOS>ATOM
      1  N         16.1550   32.9840   42.5820 N.3   198  LYS198     -0.1245
      2  CA        17.5690   33.2730   42.8070 C.3   198  LYS198      0.1561
      3  C         17.8440   34.7230   42.3810 C.2   198  LYS198      0.2260
      4  O         18.6000   34.9830   41.4390 O.2   198  LYS198     -0.2867
      5  CB        18.4340   32.2660   42.0240 C.3   198  LYS198      0.0271
      6  CG        19.7960   31.9690   42.6070 C.3   198  LYS198      0.0035
      7  CD        20.3530   30.7030   41.9680 C.3   198  LYS198      0.0206
      8  CE        21.5990   30.2300   42.6760 C.3   198  LYS198      0.1093
      9  NZ        21.2720   29.7480   44.0490 N.3   198  LYS198     -0.1314
     10  N         13.4920   30.7040   45.9720 N.3   210  CYS210     -0.1221
     11  CA        14.6580   29.8520   46.1840 C.3   210  CYS210      0.1808
     12  C         14.5780   28.5710   45.3570 C.2   210  CYS210      0.2601
     13  O         13.4990   28.0290   45.1760 O.2   210  CYS210     -0.2717
     14  CB        14.7300   29.5070   47.6720 C.3   210  CYS210      0.0970
     15  SG        16.2110   28.6240   48.1870 S.3   210  CYS210     -0.0800
     16  N         15.7250   28.1220   44.8430 N.am  211  ASN211     -0.1960
     17  CA        15.8540   26.8200   44.1620 C.3   211  ASN211      0.1819
     18  C         16.9060   25.9870   44.8410 C.2   211  ASN211      0.2622
     19  O         17.8750   26.5200   45.3640 O.2   211  ASN211     -0.2715
     20  CB        16.2890   26.9980   42.7060 C.3   211  ASN211      0.1195
     21  CG        15.2270   27.6540   41.8510 C.2   211  ASN211      0.2630
     22  OD1       14.0420   27.6100   42.1680 O.2   211  ASN211     -0.2716
     23  ND2       15.6520   28.2480   40.7420 N.am  211  ASN211     -0.0877
     24  N         16.7450   24.6690   44.8250 N.am  212  GLY212     -0.1940
     25  CA        17.8030   23.8280   45.3590 C.3   212  GLY212      0.2014
     26  C         17.3050   22.5260   45.9340 C.2   212  GLY212      0.2639
     27  O         16.1080   22.2320   45.8980 O.2   212  GLY212     -0.2714
     28  N         18.2350   21.7390   46.4660 N.am  213  PHE213     -0.1959
     29  CA        17.8610   20.5110   47.1710 C.3   213  PHE213      0.1771
     30  C         17.2180   20.8520   48.5090 C.2   213  PHE213      0.2620
     31  O         16.3540   20.1220   48.9870 O.2   213  PHE213     -0.2715
     32  CB        19.0740   19.6020   47.3770 C.3   213  PHE213      0.0574
     33  CG        19.6420   19.0660   46.0990 C.ar  213  PHE213     -0.0200
     34  CD1       18.8550   18.2910   45.2470 C.ar  213  PHE213     -0.0042
     35  CD2       20.9510   19.3440   45.7340 C.ar  213  PHE213     -0.0042
     36  CE1       19.3670   17.7980   44.0550 C.ar  213  PHE213     -0.0003
     37  CE2       21.4660   18.8510   44.5470 C.ar  213  PHE213     -0.0003
     38  CZ        20.6710   18.0850   43.7050 C.ar  213  PHE213     -0.0000
     39  N         17.6380   21.9730   49.0990 N.am  214  TYR214     -0.1960
     40  CA        17.1210   22.4270   50.3890 C.3   214  TYR214      0.1771
     41  C         16.9640   23.9280   50.3480 C.2   214  TYR214      0.2620
     42  O         17.7960   24.6250   49.7700 O.2   214  TYR214     -0.2715
     43  CB        18.1000   22.1000   51.5240 C.3   214  TYR214      0.0574
     44  CG        18.5210   20.6540   51.5750 C.ar  214  TYR214     -0.0198
     45  CD1       17.7550   19.7170   52.2560 C.ar  214  TYR214     -0.0009
     46  CD2       19.6840   20.2230   50.9260 C.ar  214  TYR214     -0.0009
     47  CE1       18.1340   18.3810   52.2990 C.ar  214  TYR214      0.0417
     48  CE2       20.0760   18.8930   50.9650 C.ar  214  TYR214      0.0417
     49  CZ        19.2960   17.9820   51.6460 C.ar  214  TYR214      0.1957
     50  OH        19.6810   16.6780   51.6770 O.3   214  TYR214     -0.2866
     51  N         15.9200   24.4370   50.9730 N.am  215  CYS215     -0.1954
     52  CA        15.7560   25.8980   51.0070 C.3   215  CYS215      0.1843
     53  C         15.2360   26.3650   52.3680 C.2   215  CYS215      0.2625
     54  O         14.6810   27.4430   52.4700 O.2   215  CYS215     -0.2714
     55  CB        14.8430   26.4020   49.8640 C.3   215  CYS215      0.0997
     56  SG        15.5800   26.6600   48.2120 S.3   215  CYS215     -0.0797
     57  N         15.4200   25.5620   53.4150 N.am  216  GLU216     -0.1963
     58  CA        14.8220   25.8810   54.7270 C.3   216  GLU216      0.1733
     59  C         15.2760   27.2060   55.3540 C.2   216  GLU216      0.2617
     60  O         14.5180   27.8150   56.1170 O.2   216  GLU216     -0.2715
     61  CB        15.0270   24.7330   55.7250 C.3   216  GLU216      0.0429
     62  CG        16.4700   24.5380   56.1910 C.3   216  GLU216      0.1163
     63  CD        17.2480   23.5580   55.3330 C.2   216  GLU216      0.3649
     64  OE1       16.6400   22.8990   54.4720 O.co2 216  GLU216     -0.2457
     65  OE2       18.4710   23.4210   55.5370 O.co2 216  GLU216     -0.2457
     66  N         16.5050   27.6310   55.0450 N.am  217  GLY217     -0.1940
     67  CA        17.0800   28.8600   55.6050 C.3   217  GLY217      0.2014
     68  C         16.7850   30.1090   54.7920 C.2   217  GLY217      0.2638
     69  O         17.1030   31.2290   55.1990 O.2   217  GLY217     -0.2714
     70  N         16.1580   29.9260   53.6410 N.am  218  PHE218     -0.1973
     71  CA        15.8920   31.0430   52.7460 C.3   218  PHE218      0.1639
     72  C         14.8480   31.9770   53.3380 C.2   218  PHE218      0.2290
     73  O         13.8780   31.5220   53.9390 O.2   218  PHE218     -0.2864
     74  CB        15.3830   30.5000   51.4160 C.3   218  PHE218      0.0560
     75  CG        14.8900   31.5560   50.4780 C.ar  218  PHE218     -0.0200
     76  CD1       15.7950   32.3200   49.7500 C.ar  218  PHE218     -0.0042
     77  CD2       13.5270   31.7750   50.3020 C.ar  218  PHE218     -0.0042
     78  CE1       15.3560   33.2960   48.8690 C.ar  218  PHE218     -0.0003
     79  CE2       13.0750   32.7530   49.4240 C.ar  218  PHE218     -0.0003
     80  CZ        13.9910   33.5090   48.7000 C.ar  218  PHE218     -0.0000
     81  N         17.8610   12.3240   60.4930 N.3   378  TRP378     -0.1241
     82  CA        17.5370   13.1050   59.3040 C.3   378  TRP378      0.1605
     83  C         16.0710   12.9700   58.9630 C.2   378  TRP378      0.2264
     84  O         15.7060   12.6390   57.8270 O.2   378  TRP378     -0.2867
     85  CB        18.4210   12.6200   58.1570 C.3   378  TRP378      0.0550
     86  CG        18.6250   13.5910   57.0190 C.ar  378  TRP378      0.0003
     87  CD1       18.1000   13.5050   55.7310 C.ar  378  TRP378      0.0946
     88  CD2       19.4590   14.7960   57.0130 C.ar  378  TRP378      0.0152
     89  NE1       18.5270   14.5510   54.9580 N.ar  378  TRP378     -0.2442
     90  CE2       19.3410   15.3680   55.6680 C.ar  378  TRP378      0.0810
     91  CE3       20.2450   15.4480   57.9590 C.ar  378  TRP378      0.0012
     92  CZ2       20.0030   16.5330   55.3040 C.ar  378  TRP378      0.0191
     93  CZ3       20.9040   16.6240   57.5840 C.ar  378  TRP378      0.0001
     94  CH2       20.7870   17.1510   56.2850 C.ar  378  TRP378      0.0015
     95  N         23.1900   15.5210   53.9940 N.3   648  THR648     -0.1218
     96  CA        23.0420   16.4500   52.8710 C.3   648  THR648      0.1862
     97  C         23.2180   15.7680   51.5130 C.2   648  THR648      0.2287
     98  O         24.2570   15.1810   51.2280 O.2   648  THR648     -0.2866
     99  CB        23.9960   17.6410   53.0070 C.3   648  THR648      0.1770
    100  OG1       23.7790   18.2670   54.2780 O.3   648  THR648     -0.2211
    101  CG2       23.7500   18.6530   51.8970 C.3   648  THR648      0.0375
@<TRIPOS>BOND
     1    23    21   am
     2     4     3    2
     3    21    22    2
     4    21    20    1
     5     7     6    1
     6     7     8    1
     7     5     6    1
     8     5     2    1
     9     3     2    1
    10     1     2    1
    11     8     9    1
    12    20    17    1
    13    38    36   ar
    14    38    37   ar
    15    36    34   ar
    16    17    18    1
    17    17    16    1
    18    37    35   ar
    19    24    18   am
    20    24    25    1
    21    18    19    2
    22    16    12   am
    23    13    12    2
    24    34    33   ar
    25    12    11    1
    26    25    26    1
    27    35    33   ar
    28    27    26    2
    29    26    28   am
    30    10    11    1
    31    33    32    1
    32    11    14    1
    33    28    29    1
    34    29    32    1
    35    29    30    1
    36    14    15    1
    37    15    56    1
    38    56    55    1
    39    30    31    2
    40    30    39   am
    41    80    78   ar
    42    80    79   ar
    43    78    76   ar
    44    39    40    1
    45    79    77   ar
    46    76    75   ar
    47    42    41    2
    48    55    52    1
    49    77    75   ar
    50    41    40    1
    51    41    51   am
    52    40    43    1
    53    75    74    1
    54    46    48   ar
    55    46    44   ar
    56    48    49   ar
    57    51    52    1
    58    52    53    1
    59    98    97    2
    60    74    71    1
    61    97    96    1
    62    43    44    1
    63    44    45   ar
    64    49    50    1
    65    49    47   ar
    66   101    99    1
    67    45    47   ar
    68    53    54    2
    69    53    57   am
    70    71    72    1
    71    71    70    1
    72    96    99    1
    73    96    95    1
    74    99   100    1
    75    72    73    2
    76    57    58    1
    77    70    68   am
    78    64    63   ar
    79    58    59    1
    80    58    61    1
    81    68    69    2
    82    68    67    1
    83    89    90   ar
    84    89    87   ar
    85    66    59   am
    86    66    67    1
    87    92    90   ar
    88    92    94   ar
    89    63    65   ar
    90    63    62    1
    91    59    60    2
    92    90    88   ar
    93    61    62    1
    94    87    86   ar
    95    94    93   ar
    96    88    86   ar
    97    88    91   ar
    98    86    85    1
    99    93    91   ar
   100    84    83    2
   101    85    82    1
   102    83    82    1
   103    82    81    1
