@<TRIPOS>MOLECULE
tmp/3w5fB02.pdb
 137 135 0 0 0
SMALL
GASTEIGER

@<TRIPOS>ATOM
      1  N         44.0150  -22.4890   34.7420 N.3    55  TYR55      -0.1241
      2  CA        44.3390  -21.3800   35.6180 C.3    55  TYR55       0.1605
      3  C         45.1600  -21.8570   36.8060 C.2    55  TYR55       0.2264
      4  O         45.1600  -23.0420   37.1400 O.2    55  TYR55      -0.2867
      5  CB        43.0560  -20.7580   36.1500 C.3    55  TYR55       0.0534
      6  CG        42.2690  -19.9370   35.1570 C.ar   55  TYR55      -0.0201
      7  CD1       42.8460  -18.8360   34.5190 C.ar   55  TYR55      -0.0009
      8  CD2       40.9280  -20.2140   34.9060 C.ar   55  TYR55      -0.0009
      9  CE1       42.1150  -18.0480   33.6430 C.ar   55  TYR55       0.0417
     10  CE2       40.1910  -19.4450   34.0120 C.ar   55  TYR55       0.0417
     11  CZ        40.7890  -18.3580   33.3960 C.ar   55  TYR55       0.1957
     12  OH        40.0570  -17.5800   32.5300 O.3    55  TYR55      -0.2866
     13  N         39.1670  -15.0240   37.1480 N.3    99  CYS99      -0.1221
     14  CA        37.7150  -15.0990   36.9420 C.3    99  CYS99       0.1808
     15  C         37.2460  -16.5330   37.2190 C.2    99  CYS99       0.2601
     16  O         37.0950  -16.9130   38.3780 O.2    99  CYS99      -0.2717
     17  CB        37.3350  -14.6400   35.5290 C.3    99  CYS99       0.0970
     18  SG        35.5570  -14.4160   35.2740 S.3    99  CYS99      -0.0800
     19  N         37.0230  -17.3140   36.1610 N.am  100  ALA100     -0.1965
     20  CA        36.8630  -18.7760   36.2720 C.3   100  ALA100      0.1728
     21  C         35.6160  -19.2300   37.0380 C.2   100  ALA100      0.2616
     22  O         35.5380  -20.3920   37.4680 O.2   100  ALA100     -0.2715
     23  CB        38.1090  -19.4050   36.8920 C.3   100  ALA100      0.0334
     24  N         34.6330  -18.3370   37.1910 N.am  101  GLU101     -0.1977
     25  CA        33.4690  -18.6300   38.0390 C.3   101  GLU101      0.1602
     26  C         33.9400  -19.1820   39.3940 C.2   101  GLU101      0.2287
     27  O         33.3240  -20.0870   39.9810 O.2   101  GLU101     -0.2864
     28  CB        32.5080  -19.6050   37.3410 C.3   101  GLU101      0.0415
     29  CG        31.6670  -18.9760   36.2360 C.3   101  GLU101      0.1163
     30  CD        32.4210  -18.7660   34.9380 C.2   101  GLU101      0.3649
     31  OE1       32.8300  -19.7720   34.3100 O.co2 101  GLU101     -0.2457
     32  OE2       32.5670  -17.5900   34.5190 O.co2 101  GLU101     -0.2457
     33  N         43.6360  -11.6220   33.2480 N.3   161  ASN161     -0.1225
     34  CA        42.5750  -12.3480   32.5610 C.3   161  ASN161      0.1785
     35  C         41.4920  -11.3700   32.1450 C.2   161  ASN161      0.2597
     36  O         40.8190  -10.7880   33.0010 O.2   161  ASN161     -0.2718
     37  CB        41.9600  -13.4340   33.4550 C.3   161  ASN161      0.1169
     38  CG        40.9730  -14.3150   32.7020 C.2   161  ASN161      0.2627
     39  OD1       41.3550  -15.3130   32.0910 O.2   161  ASN161     -0.2716
     40  ND2       39.7020  -13.9430   32.7340 N.am  161  ASN161     -0.0877
     41  N         41.3220  -11.1990   30.8320 N.am  162  GLU162     -0.1979
     42  CA        40.3020  -10.2990   30.2690 C.3   162  GLU162      0.1602
     43  C         40.3560   -8.9230   30.9060 C.2   162  GLU162      0.2287
     44  O         39.3270   -8.3810   31.3370 O.2   162  GLU162     -0.2864
     45  CB        38.8860  -10.8810   30.4000 C.3   162  GLU162      0.0415
     46  CG        38.7330  -12.2110   29.6800 C.3   162  GLU162      0.1163
     47  CD        37.2940  -12.6360   29.5200 C.2   162  GLU162      0.3649
     48  OE1       36.4790  -12.3050   30.4000 O.co2 162  GLU162     -0.2457
     49  OE2       36.9910  -13.3180   28.5160 O.co2 162  GLU162     -0.2457
     50  N         39.6400  -19.5780   24.8840 N.3   231  GLU231     -0.1245
     51  CA        38.4200  -20.1820   25.4330 C.3   231  GLU231      0.1567
     52  C         37.3460  -20.3660   24.3700 C.2   231  GLU231      0.2260
     53  O         36.6000  -19.4390   24.0570 O.2   231  GLU231     -0.2867
     54  CB        37.8440  -19.3530   26.5950 C.3   231  GLU231      0.0388
     55  CG        38.7750  -19.1440   27.7830 C.3   231  GLU231      0.1160
     56  CD        38.2240  -18.1540   28.7890 C.2   231  GLU231      0.3649
     57  OE1       37.0040  -17.8520   28.7330 O.co2 231  GLU231     -0.2457
     58  OE2       39.0110  -17.6770   29.6330 O.co2 231  GLU231     -0.2457
     59  N         34.0540  -21.6930   24.2970 N.3   233  TRP233     -0.1241
     60  CA        33.1110  -22.0820   25.3490 C.3   233  TRP233      0.1605
     61  C         32.3160  -23.2810   24.9290 C.2   233  TRP233      0.2264
     62  O         31.7020  -23.2890   23.8540 O.2   233  TRP233     -0.2867
     63  CB        32.1960  -20.9290   25.6970 C.3   233  TRP233      0.0550
     64  CG        32.9480  -19.7580   26.2700 C.ar  233  TRP233      0.0003
     65  CD1       34.1140  -19.7860   27.0320 C.ar  233  TRP233      0.0946
     66  CD2       32.5990  -18.3400   26.1340 C.ar  233  TRP233      0.0152
     67  NE1       34.4870  -18.5070   27.3910 N.ar  233  TRP233     -0.2442
     68  CE2       33.6170  -17.5920   26.8800 C.ar  233  TRP233      0.0810
     69  CE3       31.5640  -17.6430   25.5100 C.ar  233  TRP233      0.0012
     70  CZ2       33.6000  -16.2020   26.9600 C.ar  233  TRP233      0.0191
     71  CZ3       31.5450  -16.2430   25.6130 C.ar  233  TRP233      0.0001
     72  CH2       32.5410  -15.5420   26.3210 C.ar  233  TRP233      0.0015
     73  N         27.9190  -23.3960   29.1300 N.3   236  TRP236     -0.1227
     74  CA        27.9780  -22.2730   30.0580 C.3   236  TRP236      0.1737
     75  C         27.9660  -22.8240   31.4480 C.2   236  TRP236      0.2595
     76  O         27.6610  -24.0010   31.6550 O.2   236  TRP236     -0.2718
     77  CB        26.7840  -21.3560   29.8350 C.3   236  TRP236      0.0564
     78  CG        26.9460  -19.9100   30.2460 C.ar  236  TRP236      0.0003
     79  CD1       26.1960  -19.2110   31.1900 C.ar  236  TRP236      0.0946
     80  CD2       27.8610  -18.9180   29.6790 C.ar  236  TRP236      0.0152
     81  NE1       26.5890  -17.8910   31.2600 N.ar  236  TRP236     -0.2442
     82  CE2       27.5750  -17.6480   30.3700 C.ar  236  TRP236      0.0810
     83  CE3       28.8440  -18.9450   28.7000 C.ar  236  TRP236      0.0012
     84  CZ2       28.2720  -16.4850   30.0820 C.ar  236  TRP236      0.0191
     85  CZ3       29.5370  -17.7580   28.4160 C.ar  236  TRP236      0.0001
     86  CH2       29.2540  -16.5640   29.0870 C.ar  236  TRP236      0.0015
     87  N         28.2960  -21.9830   32.4210 N.am  237  TYR237     -0.1976
     88  CA        28.3020  -22.4280   33.8050 C.3   237  TYR237      0.1639
     89  C         26.8720  -22.5960   34.2870 C.2   237  TYR237      0.2290
     90  O         25.9440  -22.0100   33.7150 O.2   237  TYR237     -0.2864
     91  CB        29.0500  -21.4340   34.7030 C.3   237  TYR237      0.0560
     92  CG        28.5000  -20.0220   34.7400 C.ar  237  TYR237     -0.0198
     93  CD1       27.5000  -19.6610   35.6590 C.ar  237  TYR237     -0.0009
     94  CD2       29.0140  -19.0300   33.8980 C.ar  237  TYR237     -0.0009
     95  CE1       27.0050  -18.3610   35.7140 C.ar  237  TYR237      0.0417
     96  CE2       28.5320  -17.7210   33.9580 C.ar  237  TYR237      0.0417
     97  CZ        27.5280  -17.4030   34.8670 C.ar  237  TYR237      0.1957
     98  OH        27.0500  -16.1190   34.9420 O.3   237  TYR237     -0.2866
     99  N         37.0610  -24.4850   26.6570 N.3   270  TYR270     -0.1241
    100  CA        36.7450  -24.0820   28.0260 C.3   270  TYR270      0.1605
    101  C         35.2890  -24.5130   28.2420 C.2   270  TYR270      0.2264
    102  O         34.3900  -23.8110   27.7960 O.2   270  TYR270     -0.2867
    103  CB        36.9130  -22.5480   28.2080 C.3   270  TYR270      0.0534
    104  CG        36.8400  -22.1390   29.6630 C.ar  270  TYR270     -0.0201
    105  CD1       35.6070  -22.0540   30.3270 C.ar  270  TYR270     -0.0009
    106  CD2       38.0060  -21.8740   30.3940 C.ar  270  TYR270     -0.0009
    107  CE1       35.5370  -21.7350   31.6790 C.ar  270  TYR270      0.0417
    108  CE2       37.9390  -21.5280   31.7420 C.ar  270  TYR270      0.0417
    109  CZ        36.7090  -21.4670   32.3760 C.ar  270  TYR270      0.1957
    110  OH        36.6570  -21.1530   33.7080 O.3   270  TYR270     -0.2866
    111  N         29.6860  -27.5650   32.6080 N.3   293  TYR293     -0.1241
    112  CA        29.9720  -26.7590   31.4070 C.3   293  TYR293      0.1605
    113  C         29.5940  -27.4490   30.0980 C.2   293  TYR293      0.2264
    114  O         29.9680  -26.9710   29.0260 O.2   293  TYR293     -0.2867
    115  CB        31.4480  -26.2730   31.3480 C.3   293  TYR293      0.0534
    116  CG        31.5940  -24.7600   31.4090 C.ar  293  TYR293     -0.0201
    117  CD1       31.5490  -23.9800   30.2400 C.ar  293  TYR293     -0.0009
    118  CD2       31.7600  -24.1120   32.6330 C.ar  293  TYR293     -0.0009
    119  CE1       31.6670  -22.5890   30.3090 C.ar  293  TYR293      0.0417
    120  CE2       31.8800  -22.7310   32.7030 C.ar  293  TYR293      0.0417
    121  CZ        31.8360  -21.9770   31.5520 C.ar  293  TYR293      0.1957
    122  OH        31.9570  -20.5970   31.6960 O.3   293  TYR293     -0.2866
    123  N         22.2720  -14.4390   41.3480 N.3   492  LEU492     -0.1245
    124  CA        23.6190  -14.0650   40.9340 C.3   492  LEU492      0.1561
    125  C         23.6950  -12.5940   40.5450 C.2   492  LEU492      0.2260
    126  O         24.5940  -11.8740   40.9840 O.2   492  LEU492     -0.2867
    127  CB        24.0800  -14.9460   39.7630 C.3   492  LEU492      0.0270
    128  CG        25.5790  -14.9580   39.4360 C.3   492  LEU492      0.0019
    129  CD1       25.9500  -16.2440   38.7150 C.3   492  LEU492      0.0001
    130  CD2       25.9880  -13.7580   38.5920 C.3   492  LEU492      0.0001
    131  N         33.8180  -11.3680   38.9610 N.3   524  VAL524     -0.1245
    132  CA        33.9220  -10.6430   37.6930 C.3   524  VAL524      0.1561
    133  C         33.1920   -9.3140   37.8240 C.2   524  VAL524      0.2260
    134  O         32.2590   -9.2040   38.6170 O.2   524  VAL524     -0.2867
    135  CB        33.3820  -11.4920   36.5000 C.3   524  VAL524      0.0252
    136  CG1       31.8760  -11.7490   36.5980 C.3   524  VAL524      0.0019
    137  CG2       33.7650  -10.8940   35.1450 C.3   524  VAL524      0.0019
@<TRIPOS>BOND
     1    62    61    2
     2    53    52    2
     3    59    60    1
     4    52    51    1
     5    50    51    1
     6    61    60    1
     7    60    63    1
     8    51    54    1
     9    69    71   ar
    10    69    66   ar
    11    71    72   ar
    12    63    64    1
    13    66    64   ar
    14    66    68   ar
    15    64    65   ar
    16    72    70   ar
    17    54    55    1
    18    99   100    1
    19    68    70   ar
    20    68    67   ar
    21    65    67   ar
    22    55    56    1
    23   102   101    2
    24   100   103    1
    25   100   101    1
    26   103   104    1
    27    85    83   ar
    28    85    86   ar
    29    49    47   ar
    30    83    80   ar
    31    57    56   ar
    32    56    58   ar
    33   114   113    2
    34    86    84   ar
    35    73    74    1
    36    47    46    1
    37    47    48   ar
    38   104   105   ar
    39   104   106   ar
    40    80    78   ar
    41    80    82   ar
    42    46    45    1
    43    77    74    1
    44    77    78    1
    45    74    75    1
    46    84    82   ar
    47   113   112    1
    48   117   119   ar
    49   117   116   ar
    50    78    79   ar
    51    42    45    1
    52    42    41    1
    53    42    43    1
    54   119   121   ar
    55   105   107   ar
    56    82    81   ar
    57   106   108   ar
    58    41    35   am
    59    43    44    2
    60    79    81   ar
    61   115   112    1
    62   115   116    1
    63   112   111    1
    64   116   118   ar
    65    75    76    2
    66    75    87   am
    67   121   122    1
    68   121   120   ar
    69   107   109   ar
    70   108   109   ar
    71    39    38    2
    72    35    34    1
    73    35    36    2
    74   109   110    1
    75    87    88    1
    76    12    11    1
    77    34    33    1
    78    34    37    1
    79   118   120   ar
    80    38    40   am
    81    38    37    1
    82    11     9   ar
    83    11    10   ar
    84     9     7   ar
    85    90    89    2
    86    88    89    1
    87    88    91    1
    88    94    96   ar
    89    94    92   ar
    90    96    97   ar
    91    10     8   ar
    92    31    30   ar
    93     7     6   ar
    94    32    30   ar
    95    91    92    1
    96    92    93   ar
    97     1     2    1
    98    97    98    1
    99    97    95   ar
   100     8     6   ar
   101    30    29    1
   102   137   135    1
   103     6     5    1
   104    18    17    1
   105    17    14    1
   106     2     5    1
   107     2     3    1
   108    93    95   ar
   109    19    20    1
   110    19    15   am
   111    29    28    1
   112    20    23    1
   113    20    21    1
   114   135   136    1
   115   135   132    1
   116     3     4    2
   117    14    13    1
   118    14    15    1
   119    21    24   am
   120    21    22    2
   121    24    25    1
   122    15    16    2
   123    28    25    1
   124   132   133    1
   125   132   131    1
   126   133   134    2
   127    25    26    1
   128   130   128    1
   129   129   128    1
   130    26    27    2
   131   128   127    1
   132   127   124    1
   133   125   124    1
   134   125   126    2
   135   124   123    1
