@<TRIPOS>MOLECULE
tmp/3w5hA00.pdb
 223 219 0 0 0
SMALL
GASTEIGER

@<TRIPOS>ATOM
      1  N          1.1300   31.4030   11.5040 N.3    49  HIS49      -0.1241
      2  CA         2.4620   30.8790   11.6700 C.3    49  HIS49       0.1621
      3  C          2.5290   29.9930   12.9390 C.2    49  HIS49       0.2264
      4  O          1.5870   29.9100   13.7060 O.2    49  HIS49      -0.2867
      5  CB         3.5160   32.0130   11.7300 C.3    49  HIS49       0.0745
      6  CG         3.2650   33.0070   12.8360 C.ar   49  HIS49       0.0817
      7  ND1        2.5260   34.1410   12.6230 N.ar   49  HIS49      -0.2268
      8  CD2        3.6670   33.0570   14.1170 C.ar   49  HIS49       0.1154
      9  CE1        2.4810   34.8460   13.7390 C.ar   49  HIS49       0.1986
     10  NE2        3.1450   34.2010   14.6910 N.ar   49  HIS49      -0.2212
     11  N         10.6960   32.0040   18.5820 N.3    63  ARG63      -0.1231
     12  CA        10.6720   32.7530   17.3110 C.3    63  ARG63       0.1679
     13  C          9.5650   32.2070   16.4380 C.2    63  ARG63       0.2434
     14  O          9.3040   31.0040   16.4200 O.2    63  ARG63      -0.2733
     15  CB        11.9570   32.6080   16.5310 C.3    63  ARG63       0.0321
     16  CG        13.2380   33.0790   17.2300 C.3    63  ARG63       0.0489
     17  CD        13.3400   34.5980   17.3650 C.3    63  ARG63       0.2205
     18  NE        14.6070   34.9640   17.9820 N.pl3  63  ARG63      -0.0865
     19  CZ        14.7880   35.3480   19.2200 C.cat  63  ARG63       0.5346
     20  NH1       13.7830   35.3530   20.1000 N.pl3  63  ARG63       0.1354
     21  NH2       16.0030   35.6920   19.6050 N.pl3  63  ARG63       0.1354
     22  N          8.9360   33.0900   15.6140 N.am   64  PRO64      -0.2718
     23  CA         7.9240   32.6670   14.6780 C.3    64  PRO64       0.1535
     24  C          8.4970   32.1800   13.3420 C.2    64  PRO64       0.2599
     25  O          9.4700   32.7320   12.8310 O.2    64  PRO64      -0.2715
     26  CB         7.1000   33.9570   14.4510 C.3    64  PRO64       0.0310
     27  CG         8.1310   35.0630   14.5910 C.3    64  PRO64       0.0237
     28  CD         9.0370   34.5650   15.7250 C.3    64  PRO64       0.0939
     29  N          7.8240   31.1870   12.7570 N.am   65  TYR65      -0.1960
     30  CA         8.1630   30.7000   11.4330 C.3    65  TYR65       0.1771
     31  C          6.9040   30.3480   10.6660 C.2    65  TYR65       0.2620
     32  O          5.9550   29.7880   11.2450 O.2    65  TYR65      -0.2715
     33  CB         9.0540   29.4030   11.4760 C.3    65  TYR65       0.0574
     34  CG        10.3510   29.7130   12.1520 C.ar   65  TYR65      -0.0198
     35  CD1       11.4100   30.2760   11.4410 C.ar   65  TYR65      -0.0009
     36  CD2       10.5120   29.5960   13.5120 C.ar   65  TYR65      -0.0009
     37  CE1       12.5730   30.6900   12.0480 C.ar   65  TYR65       0.0417
     38  CE2       11.6610   30.0280   14.1480 C.ar   65  TYR65       0.0417
     39  CZ        12.6940   30.5920   13.4160 C.ar   65  TYR65       0.1957
     40  OH        13.7880   31.0700   14.0830 O.3    65  TYR65      -0.2866
     41  N          6.9250   30.6220    9.3510 N.am   66  THR66      -0.1951
     42  CA         5.8640   30.1600    8.4810 C.3    66  THR66       0.1897
     43  C          6.4310   29.0190    7.6280 C.2    66  THR66       0.2313
     44  O          7.3190   29.2480    6.8080 O.2    66  THR66      -0.2863
     45  CB         5.3260   31.2680    7.5710 C.3    66  THR66       0.1794
     46  OG1        4.8760   32.3230    8.4230 O.3    66  THR66      -0.2208
     47  CG2        4.2260   30.7290    6.6880 C.3    66  THR66       0.0378
     48  N         10.4670   23.7090    7.1750 N.3    79  LEU79      -0.1231
     49  CA        10.8640   25.0890    7.4300 C.3    79  LEU79       0.1693
     50  C         12.1020   25.4130    6.5790 C.2    79  LEU79       0.2592
     51  O         13.0730   24.6780    6.6170 O.2    79  LEU79      -0.2718
     52  CB        11.2390   25.3470    8.8910 C.3    79  LEU79       0.0284
     53  CG        10.1860   24.9470    9.9270 C.3    79  LEU79       0.0019
     54  CD1       10.6630   25.3370   11.3090 C.3    79  LEU79       0.0001
     55  CD2        8.8090   25.5690    9.6540 C.3    79  LEU79       0.0001
     56  N         12.0330   26.5240    5.8450 N.am   80  VAL80      -0.1966
     57  CA        13.2160   27.0790    5.1890 C.3    80  VAL80       0.1727
     58  C         13.7500   28.1690    6.1050 C.2    80  VAL80       0.2616
     59  O         12.9790   29.0540    6.5290 O.2    80  VAL80      -0.2715
     60  CB        12.8880   27.5830    3.7820 C.3    80  VAL80       0.0290
     61  CG1       14.0160   28.4640    3.2370 C.3    80  VAL80       0.0023
     62  CG2       12.6670   26.3790    2.8900 C.3    80  VAL80       0.0023
     63  N         15.0330   28.0780    6.4280 N.am   81  ILE81      -0.1963
     64  CA        15.6840   28.8700    7.4290 C.3    81  ILE81       0.1727
     65  C         16.9350   29.5260    6.8810 C.2    81  ILE81       0.2616
     66  O         17.8070   28.8520    6.3150 O.2    81  ILE81      -0.2715
     67  CB        16.0720   27.9750    8.6490 C.3    81  ILE81       0.0290
     68  CG1       14.8430   27.3250    9.2750 C.3    81  ILE81       0.0022
     69  CG2       16.9190   28.7410    9.6630 C.3    81  ILE81       0.0023
     70  CD1       13.9010   28.2750    9.9920 C.3    81  ILE81       0.0001
     71  N         17.0500   30.8370    7.0910 N.am   82  LYS82      -0.1977
     72  CA        18.2970   31.5590    6.8860 C.3    82  LYS82       0.1596
     73  C         19.1110   31.4580    8.1650 C.2    82  LYS82       0.2287
     74  O         18.6690   31.9050    9.2400 O.2    82  LYS82      -0.2864
     75  CB        18.0030   33.0300    6.5430 C.3    82  LYS82       0.0298
     76  CG        19.2320   33.8850    6.3270 C.3    82  LYS82       0.0038
     77  CD        20.1760   33.4240    5.1790 C.3    82  LYS82       0.0206
     78  CE        19.5400   33.2610    3.8390 C.3    82  LYS82       0.1093
     79  NZ        20.5170   33.3950    2.7140 N.3    82  LYS82      -0.1314
     80  N         21.8700   32.6750   10.5050 N.3    84  TYR84      -0.1227
     81  CA        22.6290   33.8450   10.9800 C.3    84  TYR84       0.1736
     82  C         23.8820   33.4110   11.7440 C.2    84  TYR84       0.2595
     83  O         23.8650   33.2430   12.9790 O.2    84  TYR84      -0.2718
     84  CB        21.7130   34.7640   11.8060 C.3    84  TYR84       0.0548
     85  CG        20.6540   35.4340   10.9400 C.ar   84  TYR84      -0.0200
     86  CD1       19.3180   35.4770   11.3200 C.ar   84  TYR84      -0.0009
     87  CD2       20.9730   36.0600    9.7380 C.ar   84  TYR84      -0.0009
     88  CE1       18.3580   36.0860   10.5460 C.ar   84  TYR84       0.0417
     89  CE2       19.9910   36.6630    8.9760 C.ar   84  TYR84       0.0417
     90  CZ        18.6790   36.6840    9.3620 C.ar   84  TYR84       0.1957
     91  OH        17.7270   37.3110    8.5790 O.3    84  TYR84      -0.2866
     92  N         24.9360   33.1860   10.9230 N.am   85  PHE85      -0.1976
     93  CA        26.1480   32.7790   11.6170 C.3    85  PHE85       0.1639
     94  C         26.7820   33.9610   12.3210 C.2    85  PHE85       0.2290
     95  O         26.7470   35.1130   11.8320 O.2    85  PHE85      -0.2864
     96  CB        27.1680   32.2060   10.6000 C.3    85  PHE85       0.0560
     97  CG        26.7710   30.8510   10.0520 C.ar   85  PHE85      -0.0200
     98  CD1       26.8270   29.7310   10.8560 C.ar   85  PHE85      -0.0042
     99  CD2       26.3500   30.6950    8.7290 C.ar   85  PHE85      -0.0042
    100  CE1       26.4950   28.4450   10.3960 C.ar   85  PHE85      -0.0003
    101  CE2       26.0330   29.4220    8.2160 C.ar   85  PHE85      -0.0003
    102  CZ        26.1170   28.3040    9.0830 C.ar   85  PHE85      -0.0000
    103  N         29.7390   37.3660   10.9050 N.3    88  THR88      -0.1203
    104  CA        29.5040   37.5610    9.4650 C.3    88  THR88       0.1994
    105  C         29.1730   39.0230    9.3400 C.2    88  THR88       0.2617
    106  O         29.9150   39.7890    8.7640 O.2    88  THR88      -0.2717
    107  CB        28.6330   36.4280    8.8670 C.3    88  THR88       0.1784
    108  OG1       27.2840   36.1940    9.2960 O.3    88  THR88      -0.2211
    109  CG2       29.3010   35.1510    9.2900 C.3    88  THR88       0.0376
    110  N         28.1460   39.5240    9.9580 N.am   89  HIS89      -0.1975
    111  CA        27.6000   40.8550    9.7170 C.3    89  HIS89       0.1656
    112  C         28.1420   41.7660   10.7690 C.2    89  HIS89       0.2291
    113  O         28.0220   41.4240   11.9540 O.2    89  HIS89      -0.2864
    114  CB        26.0580   40.8190    9.7380 C.3    89  HIS89       0.0771
    115  CG        25.4030   42.0690    9.2810 C.ar   89  HIS89       0.0820
    116  ND1       25.6030   43.2620    9.9010 N.ar   89  HIS89      -0.2267
    117  CD2       24.5200   42.2490    8.2420 C.ar   89  HIS89       0.1154
    118  CE1       24.8960   44.1310    9.2830 C.ar   89  HIS89       0.1986
    119  NE2       24.2230   43.6040    8.2550 N.ar   89  HIS89      -0.2212
    120  N         25.8480   42.5370   13.8020 N.3    92  PHE92      -0.1241
    121  CA        25.2910   41.3870   14.4890 C.3    92  PHE92       0.1605
    122  C         26.3770   40.3290   14.7770 C.2    92  PHE92       0.2264
    123  O         26.2760   39.1810   14.3270 O.2    92  PHE92      -0.2867
    124  CB        24.1090   40.7960   13.6860 C.3    92  PHE92       0.0534
    125  CG        23.0260   41.7930   13.3590 C.ar   92  PHE92      -0.0203
    126  CD1       22.1360   42.1860   14.3330 C.ar   92  PHE92      -0.0042
    127  CD2       23.0020   42.2990   12.0470 C.ar   92  PHE92      -0.0042
    128  CE1       21.1770   43.1280   14.0240 C.ar   92  PHE92      -0.0003
    129  CE2       22.0250   43.2060   11.7300 C.ar   92  PHE92      -0.0003
    130  CZ        21.1290   43.6360   12.7180 C.ar   92  PHE92      -0.0000
    131  N         25.5070   36.7720   15.6090 N.3    95  GLY95      -0.1210
    132  CA        24.6360   35.9930   14.8120 C.3    95  GLY95       0.1956
    133  C         23.3360   35.7130   15.5960 C.2    95  GLY95       0.2612
    134  O         23.0740   36.2910   16.6720 O.2    95  GLY95      -0.2717
    135  N         22.5150   34.8530   14.9480 N.am   96  GLY96      -0.1942
    136  CA        21.1500   34.6550   15.3880 C.3    96  GLY96       0.2014
    137  C         21.0070   33.4410   16.3090 C.2    96  GLY96       0.2639
    138  O         21.6090   32.3860   16.0560 O.2    96  GLY96      -0.2714
    139  N         20.2220   33.5730   17.3530 N.am   97  LYS97      -0.1963
    140  CA        20.1050   32.5240   18.3500 C.3    97  LYS97       0.1728
    141  C         19.3970   31.2780   17.8350 C.2    97  LYS97       0.2616
    142  O         19.9600   30.1480   17.8770 O.2    97  LYS97      -0.2715
    143  CB        19.3840   33.0640   19.5830 C.3    97  LYS97       0.0311
    144  CG        20.2430   34.0780   20.3650 C.3    97  LYS97       0.0038
    145  CD        19.4460   34.7160   21.4920 C.3    97  LYS97       0.0206
    146  CE        20.4050   35.6930   22.2620 C.3    97  LYS97       0.1093
    147  NZ        19.6630   36.4060   23.3010 N.3    97  LYS97      -0.1314
    148  N         18.1380   31.4020   17.4380 N.am   98  MET98      -0.1963
    149  CA        17.3800   30.2150   17.0180 C.3    98  MET98       0.1736
    150  C         17.9310   29.6220   15.7240 C.2    98  MET98       0.2617
    151  O         17.9610   28.4020   15.5850 O.2    98  MET98      -0.2715
    152  CB        15.9020   30.5640   16.8640 C.3    98  MET98       0.0427
    153  CG        15.0240   29.3740   16.4720 C.3    98  MET98       0.0599
    154  SD        14.9940   27.9940   17.6430 S.3    98  MET98      -0.1393
    155  CE        13.9710   28.6650   18.9450 C.3    98  MET98       0.0692
    156  N         18.3480   30.4550   14.7880 N.am   99  SER99      -0.1950
    157  CA        18.7910   29.9080   13.5110 C.3    99  SER99       0.1924
    158  C         20.0840   29.1270   13.6510 C.2    99  SER99       0.2314
    159  O         20.2280   28.0720   13.0410 O.2    99  SER99      -0.2863
    160  CB        18.8630   30.9990   12.4450 C.3    99  SER99       0.2116
    161  OG        19.8690   31.9790   12.7300 O.3    99  SER99      -0.2180
    162  N         13.8050   37.2340    5.6990 N.3   153  THR153     -0.1218
    163  CA        13.0420   36.0800    6.1430 C.3   153  THR153      0.1862
    164  C         11.5720   36.4070    6.3280 C.2   153  THR153      0.2287
    165  O         10.9340   35.6040    6.9630 O.2   153  THR153     -0.2866
    166  CB        13.4600   35.7010    7.5920 C.3   153  THR153      0.1770
    167  OG1       13.2620   36.8340    8.3800 O.3   153  THR153     -0.2211
    168  CG2       14.8990   35.1990    7.6000 C.3   153  THR153      0.0375
    169  N          8.3740   34.1020    3.8440 N.3   156  THR156     -0.1204
    170  CA         7.5510   32.8900    3.9510 C.3   156  THR156      0.1979
    171  C          6.0870   33.1700    4.2910 C.2   156  THR156      0.2459
    172  O          5.2310   32.4440    3.7340 O.2   156  THR156     -0.2732
    173  CB         8.1760   31.8360    4.8670 C.3   156  THR156      0.1783
    174  OG1        8.3540   32.4390    6.1500 O.3   156  THR156     -0.2211
    175  CG2        9.5120   31.3410    4.2870 C.3   156  THR156      0.0376
    176  N          5.7220   34.1900    5.0560 N.am  157  PRO157     -0.2728
    177  CA         4.2870   34.4990    5.1730 C.3   157  PRO157      0.1401
    178  C          3.6570   34.8440    3.8300 C.2   157  PRO157      0.2269
    179  O          2.4910   34.5430    3.5750 O.2   157  PRO157     -0.2865
    180  CB         4.2520   35.6860    6.1710 C.3   157  PRO157      0.0296
    181  CG         5.4710   35.4540    7.0200 C.3   157  PRO157      0.0237
    182  CD         6.5230   34.9750    6.0330 C.3   157  PRO157      0.0939
    183  N         19.3790   41.9690    1.2460 N.3   182  GLN182     -0.1245
    184  CA        20.6800   42.6350    1.3480 C.3   182  GLN182      0.1566
    185  C         21.4390   42.6290    0.0420 C.2   182  GLN182      0.2260
    186  O         22.0500   43.6000   -0.3750 O.2   182  GLN182     -0.2867
    187  CB        21.5050   41.9910    2.4540 C.3   182  GLN182      0.0367
    188  CG        20.9380   41.8740    3.8600 C.3   182  GLN182      0.0905
    189  CD        21.9420   41.1800    4.8230 C.2   182  GLN182      0.2608
    190  OE1       21.9830   39.8940    5.0020 O.2   182  GLN182     -0.2717
    191  NE2       22.8480   41.9810    5.2640 N.am  182  GLN182     -0.0878
    192  N         16.0750   34.3860   -0.3790 N.3   188  LEU188     -0.1245
    193  CA        15.4690   33.0880   -0.1330 C.3   188  LEU188      0.1561
    194  C         14.4210   32.7690   -1.1820 C.2   188  LEU188      0.2260
    195  O         13.6630   33.6220   -1.6230 O.2   188  LEU188     -0.2867
    196  CB        14.7400   33.0900    1.2250 C.3   188  LEU188      0.0270
    197  CG        15.5960   33.0630    2.4920 C.3   188  LEU188      0.0019
    198  CD1       14.7070   33.3430    3.7060 C.3   188  LEU188      0.0001
    199  CD2       16.3320   31.7480    2.6390 C.3   188  LEU188      0.0001
    200  N          6.1640   41.9920    5.8170 N.3   245  CYS245     -0.1235
    201  CA         6.9320   41.2560    6.8210 C.3   245  CYS245      0.1677
    202  C          8.4050   41.4760    6.5370 C.2   245  CYS245      0.2270
    203  O          8.8850   41.1530    5.4590 O.2   245  CYS245     -0.2867
    204  CB         6.5860   39.7620    6.8090 C.3   245  CYS245      0.0956
    205  SG         7.3010   38.8700    8.2220 S.3   245  CYS245     -0.0801
    206  N         12.3550   43.2200    8.6280 N.3   247  PRO247     -0.2116
    207  CA        12.9590   43.7720    9.8220 C.3   247  PRO247      0.1372
    208  C         12.2660   45.0890   10.2500 C.2   247  PRO247      0.2244
    209  O         11.7950   45.8600    9.4510 O.2   247  PRO247     -0.2868
    210  CB        14.3820   44.0610    9.3580 C.3   247  PRO247      0.0268
    211  CG        14.6640   43.0520    8.3090 C.3   247  PRO247      0.0207
    212  CD        13.3390   43.0030    7.5440 C.3   247  PRO247      0.0892
    213  N          2.8590   41.1650    9.4490 N.3   272  PHE272     -0.1241
    214  CA         2.9070   39.8450   10.0710 C.3   272  PHE272      0.1605
    215  C          3.7850   39.7880   11.2880 C.2   272  PHE272      0.2264
    216  O          4.6890   40.6110   11.4130 O.2   272  PHE272     -0.2867
    217  CB         3.3920   38.8110    9.0610 C.3   272  PHE272      0.0534
    218  CG         2.4330   38.4090    7.9980 C.ar  272  PHE272     -0.0203
    219  CD1        2.4830   38.8820    6.7110 C.ar  272  PHE272     -0.0042
    220  CD2        1.4420   37.4380    8.2850 C.ar  272  PHE272     -0.0042
    221  CE1        1.6280   38.4290    5.7310 C.ar  272  PHE272     -0.0003
    222  CE2        0.5900   36.9840    7.3090 C.ar  272  PHE272     -0.0003
    223  CZ         0.6840   37.4720    6.0350 C.ar  272  PHE272     -0.0000
@<TRIPOS>BOND
     1   195   194    2
     2   194   193    1
     3   192   193    1
     4   186   185    2
     5   193   196    1
     6   185   184    1
     7   196   197    1
     8   183   184    1
     9   184   187    1
    10   187   188    1
    11   197   199    1
    12   197   198    1
    13    79    78    1
    14    62    60    1
    15    61    60    1
    16   179   178    2
    17   172   171    2
    18    60    57    1
    19   178   177    1
    20    78    77    1
    21   169   170    1
    22   188   189    1
    23   170   171    1
    24   170   173    1
    25   175   173    1
    26   171   176   am
    27   189   190    2
    28   189   191   am
    29   173   174    1
    30   176   177    1
    31   176   182    1
    32   177   180    1
    33    77    76    1
    34    57    56    1
    35    57    58    1
    36   203   202    2
    37   162   163    1
    38   221   223   ar
    39   221   219   ar
    40   200   201    1
    41    56    50   am
    42   182   181    1
    43   223   222   ar
    44    58    63   am
    45    58    59    2
    46   163   164    1
    47   163   166    1
    48   180   181    1
    49    66    65    2
    50    76    75    1
    51   164   165    2
    52    63    64    1
    53   202   201    1
    54    75    72    1
    55    50    51    2
    56    50    49    1
    57    47    45    1
    58   219   218   ar
    59    44    43    2
    60   204   201    1
    61   204   205    1
    62    65    71   am
    63    65    64    1
    64    72    71    1
    65    72    73    1
    66    48    49    1
    67   222   220   ar
    68    64    67    1
    69    49    52    1
    70   212   211    1
    71   212   206    1
    72    45    46    1
    73    45    42    1
    74   166   168    1
    75   166   167    1
    76    43    42    1
    77   218   220   ar
    78   218   217    1
    79    73    74    2
    80   101    99   ar
    81   101   102   ar
    82   117   119   ar
    83   117   115   ar
    84   119   118   ar
    85   211   210    1
    86    42    41    1
    87    91    90    1
    88   206   207    1
    89    67    68    1
    90    67    69    1
    91    99    97   ar
    92   106   105    2
    93   107   109    1
    94   107   108    1
    95   107   104    1
    96    52    53    1
    97    89    90   ar
    98    89    87   ar
    99   217   214    1
   100   102   100   ar
   101    68    70    1
   102   115   114    1
   103   115   116   ar
   104   118   116   ar
   105   105   104    1
   106   105   110   am
   107    41    31   am
   108   210   207    1
   109    90    88   ar
   110   213   214    1
   111   209   208    2
   112   104   103    1
   113    55    53    1
   114   111   114    1
   115   111   110    1
   116   111   112    1
   117    87    85   ar
   118   207   208    1
   119    53    54    1
   120    97    96    1
   121    97    98   ar
   122   214   215    1
   123   100    98   ar
   124    80    81    1
   125    88    86   ar
   126    96    93    1
   127    31    32    2
   128    31    30    1
   129   112   113    2
   130    92    93    1
   131    92    82   am
   132    85    86   ar
   133    85    84    1
   134    81    82    1
   135    81    84    1
   136   215   216    2
   137    30    33    1
   138    30    29    1
   139    35    37   ar
   140    35    34   ar
   141    33    34    1
   142     1     2    1
   143    93    94    1
   144     2     5    1
   145     2     3    1
   146     5     6    1
   147   129   127   ar
   148   129   130   ar
   149    82    83    2
   150    95    94    2
   151   127   125   ar
   152    37    39   ar
   153    34    36   ar
   154   160   161    1
   155   160   157    1
   156     7     6   ar
   157     7     9   ar
   158   130   128   ar
   159    29    24   am
   160    25    24    2
   161     6     8   ar
   162     3     4    2
   163   159   158    2
   164    24    23    1
   165   125   124    1
   166   125   126   ar
   167    39    40    1
   168    39    38   ar
   169   157   158    1
   170   157   156    1
   171    36    38   ar
   172   124   121    1
   173     9    10   ar
   174   120   121    1
   175   128   126   ar
   176     8    10   ar
   177   123   122    2
   178    26    27    1
   179    26    23    1
   180   121   122    1
   181    27    28    1
   182    23    22    1
   183   156   150   am
   184   132   133    1
   185   132   131    1
   186   135   136    1
   187   135   133   am
   188   136   137    1
   189   151   150    2
   190   133   134    2
   191    22    28    1
   192    22    13   am
   193   150   149    1
   194   138   137    2
   195   137   139   am
   196    14    13    2
   197    13    12    1
   198   153   152    1
   199   153   154    1
   200    15    16    1
   201    15    12    1
   202   152   149    1
   203   149   148    1
   204    16    17    1
   205    12    11    1
   206   139   140    1
   207    17    18    1
   208   148   141   am
   209   154   155    1
   210   141   142    2
   211   141   140    1
   212    18    19    2
   213   140   143    1
   214    19    21    1
   215    19    20    1
   216   143   144    1
   217   144   145    1
   218   145   146    1
   219   146   147    1
