@<TRIPOS>MOLECULE
tmp/3w5jA00.pdb
 106 101 0 0 0
SMALL
GASTEIGER

@<TRIPOS>ATOM
      1  N         -4.1010  -17.7790    6.3170 N.3    11  PRO11      -0.2102
      2  CA        -3.9010  -19.0460    5.6180 C.3    11  PRO11       0.1504
      3  C         -3.5280  -20.2130    6.5450 C.2    11  PRO11       0.2576
      4  O         -2.8680  -20.0070    7.5770 O.2    11  PRO11      -0.2718
      5  CB        -2.7460  -18.7330    4.6560 C.3    11  PRO11       0.0282
      6  CG        -2.7940  -17.2490    4.4740 C.3    11  PRO11       0.0208
      7  CD        -3.2120  -16.7220    5.8160 C.3    11  PRO11       0.0893
      8  N         -3.9510  -21.4250    6.1850 N.am   12  ASN12      -0.1961
      9  CA        -3.5820  -22.6490    6.9130 C.3    12  ASN12       0.1819
     10  C         -3.9260  -22.5700    8.3940 C.2    12  ASN12       0.2622
     11  O         -3.1010  -22.8950    9.2490 O.2    12  ASN12      -0.2715
     12  CB        -2.0860  -23.0000    6.7380 C.3    12  ASN12       0.1195
     13  CG        -1.7380  -23.4050    5.3250 C.2    12  ASN12       0.2630
     14  OD1       -2.6090  -23.4610    4.4570 O.2    12  ASN12      -0.2716
     15  ND2       -0.4600  -23.6870    5.0750 N.am   12  ASN12      -0.0877
     16  N         -5.1350  -22.1030    8.6930 N.am   13  THR13      -0.1937
     17  CA        -5.6340  -22.0230   10.0770 C.3    13  THR13       0.2028
     18  C         -6.6940  -23.0850   10.3520 C.2    13  THR13       0.2643
     19  O         -7.2580  -23.1450   11.4420 O.2    13  THR13      -0.2714
     20  CB        -6.1930  -20.6160   10.4020 C.3    13  THR13       0.1808
     21  OG1       -7.0760  -20.1880    9.3530 O.3    13  THR13      -0.2208
     22  CG2       -5.0400  -19.6170   10.5120 C.3    13  THR13       0.0379
     23  N         -6.9510  -23.9560    9.3860 N.am   14  GLY14      -0.1939
     24  CA        -7.8450  -25.1010    9.6200 C.3    14  GLY14       0.2014
     25  C         -9.2680  -24.8640    9.1330 C.2    14  GLY14       0.2639
     26  O        -10.2200  -25.5480    9.5640 O.2    14  GLY14      -0.2714
     27  N         -9.4040  -23.8750    8.2590 N.am   15  LYS15      -0.1963
     28  CA       -10.7080  -23.4680    7.7430 C.3    15  LYS15       0.1728
     29  C        -11.3740  -24.5370    6.9010 C.2    15  LYS15       0.2617
     30  O        -12.5680  -24.7730    7.0710 O.2    15  LYS15      -0.2715
     31  CB       -10.6030  -22.1490    6.9580 C.3    15  LYS15       0.0311
     32  CG       -10.2820  -20.9550    7.8570 C.3    15  LYS15       0.0038
     33  CD       -10.6070  -19.6080    7.2250 C.3    15  LYS15       0.0206
     34  CE        -9.6640  -19.2300    6.1450 C.3    15  LYS15       0.1093
     35  NZ       -10.0140  -19.8300    4.8870 N.3    15  LYS15      -0.1314
     36  N        -10.6450  -25.1390    5.9530 N.am   16  SER16      -0.1936
     37  CA       -11.2530  -26.1380    5.0770 C.3    16  SER16       0.2055
     38  C        -11.6190  -27.3610    5.9110 C.2    16  SER16       0.2643
     39  O        -12.6610  -27.9910    5.6610 O.2    16  SER16      -0.2714
     40  CB       -10.3620  -26.5100    3.8950 C.3    16  SER16       0.2130
     41  OG        -9.1830  -27.1580    4.3120 O.3    16  SER16      -0.2179
     42  N        -10.7870  -27.6510    6.9150 N.am   17  THR17      -0.1950
     43  CA       -10.9920  -28.7700    7.8350 C.3    17  THR17       0.1897
     44  C        -12.2640  -28.5860    8.6570 C.2    17  THR17       0.2313
     45  O        -13.0920  -29.4980    8.7380 O.2    17  THR17      -0.2863
     46  CB        -9.7900  -29.0070    8.7450 C.3    17  THR17       0.1794
     47  OG1       -8.6740  -29.3540    7.9300 O.3    17  THR17      -0.2208
     48  CG2      -10.0410  -30.1330    9.7340 C.3    17  THR17       0.0378
     49  N        -15.8690  -30.7230    8.5410 N.3    21  ARG21      -0.1245
     50  CA       -16.5250  -31.1510    9.7830 C.3    21  ARG21       0.1563
     51  C        -17.9900  -30.6510    9.8830 C.2    21  ARG21       0.2260
     52  O        -18.9200  -31.3980   10.2290 O.2    21  ARG21      -0.2867
     53  CB       -15.7130  -30.6330   10.9760 C.3    21  ARG21       0.0307
     54  CG       -16.1790  -31.0790   12.3940 C.3    21  ARG21       0.0489
     55  CD       -15.1920  -30.5460   13.4330 C.3    21  ARG21       0.2205
     56  NE       -15.4610  -30.9840   14.8020 N.pl3  21  ARG21      -0.0865
     57  CZ       -14.8510  -30.4890   15.8830 C.cat  21  ARG21       0.5346
     58  NH1      -13.9390  -29.5220   15.7650 N.pl3  21  ARG21       0.1354
     59  NH2      -15.1520  -30.9600   17.0920 N.pl3  21  ARG21       0.1354
     60  N        -16.3990  -20.5770    2.9740 N.3    55  ASP55      -0.1239
     61  CA       -15.0050  -20.4770    3.4100 C.3    55  ASP55       0.1674
     62  C        -14.2780  -19.4270    2.5690 C.2    55  ASP55       0.2266
     63  O        -14.1200  -19.6000    1.3630 O.2    55  ASP55      -0.2867
     64  CB       -14.3740  -21.8600    3.2830 C.3    55  ASP55       0.1410
     65  CG       -12.8970  -21.9020    3.6230 C.2    55  ASP55       0.3668
     66  OD1      -12.2950  -20.9270    4.1550 O.co2  55  ASP55      -0.2456
     67  OD2      -12.3400  -22.9960    3.3510 O.co2  55  ASP55      -0.2456
     68  N         -8.5640  -22.1960   17.3920 N.3   115  ASN115     -0.1225
     69  CA        -8.2230  -23.5260   16.8890 C.3   115  ASN115      0.1785
     70  C         -6.9230  -24.0450   17.4880 C.2   115  ASN115      0.2597
     71  O         -6.1530  -23.2720   18.0500 O.2   115  ASN115     -0.2718
     72  CB        -8.0650  -23.4610   15.3540 C.3   115  ASN115      0.1169
     73  CG        -8.8260  -24.5570   14.6430 C.2   115  ASN115      0.2627
     74  OD1       -9.3320  -25.4980   15.2780 O.2   115  ASN115     -0.2716
     75  ND2       -8.9150  -24.4540   13.3260 N.am  115  ASN115     -0.0877
     76  N         -6.6730  -25.3460   17.3490 N.am  116  MET116     -0.1979
     77  CA        -5.4060  -25.9580   17.7770 C.3   116  MET116      0.1605
     78  C         -5.0060  -25.6180   19.2200 C.2   116  MET116      0.2287
     79  O         -3.8140  -25.4320   19.5270 O.2   116  MET116     -0.2864
     80  CB        -4.2850  -25.5360   16.8370 C.3   116  MET116      0.0413
     81  CG        -4.6460  -25.6110   15.3800 C.3   116  MET116      0.0598
     82  SD        -3.2410  -25.2100   14.3360 S.3   116  MET116     -0.1393
     83  CE        -4.0900  -25.1270   12.7450 C.3   116  MET116      0.0692
     84  N         -2.6060  -28.2540   20.9880 N.3   119  GLU119     -0.1245
     85  CA        -1.2560  -28.0430   20.4750 C.3   119  GLU119      0.1567
     86  C         -0.6050  -26.8450   21.1670 C.2   119  GLU119      0.2260
     87  O          0.5800  -26.8820   21.4940 O.2   119  GLU119     -0.2867
     88  CB        -1.2930  -27.8320   18.9590 C.3   119  GLU119      0.0388
     89  CG         0.0700  -27.7650   18.2840 C.3   119  GLU119      0.1160
     90  CD        -0.0340  -27.6270   16.7730 C.2   119  GLU119      0.3649
     91  OE1       -1.1610  -27.6760   16.2280 O.co2 119  GLU119     -0.2457
     92  OE2        1.0230  -27.4740   16.1170 O.co2 119  GLU119     -0.2457
     93  N        -11.2560  -24.6920   20.5200 N.3   143  LEU143     -0.1231
     94  CA       -11.4760  -26.0160   19.9460 C.3   143  LEU143      0.1693
     95  C        -10.2060  -26.8300   20.0960 C.2   143  LEU143      0.2592
     96  O         -9.1190  -26.3500   19.7780 O.2   143  LEU143     -0.2718
     97  CB       -11.8130  -25.9110   18.4650 C.3   143  LEU143      0.0284
     98  CG       -13.0080  -25.0250   18.1110 C.3   143  LEU143      0.0019
     99  CD1      -13.0920  -24.8410   16.6070 C.3   143  LEU143      0.0001
    100  CD2      -14.2820  -25.6230   18.6440 C.3   143  LEU143      0.0001
    101  N        -10.3410  -28.0530   20.5860 N.am  144  SER144     -0.1952
    102  CA        -9.1940  -28.9340   20.8100 C.3   144  SER144      0.1924
    103  C         -8.8440  -29.7100   19.5380 C.2   144  SER144      0.2314
    104  O         -9.6950  -29.8990   18.6560 O.2   144  SER144     -0.2863
    105  CB        -9.5010  -29.8940   21.9660 C.3   144  SER144      0.2116
    106  OG        -9.9730  -29.1720   23.1060 O.3   144  SER144     -0.2180
@<TRIPOS>BOND
     1    63    62    2
     2    62    61    1
     3    60    61    1
     4    64    61    1
     5    64    65    1
     6    67    65   ar
     7    65    66   ar
     8    40    41    1
     9    40    37    1
    10    14    13    2
    11     6     5    1
    12     6     7    1
    13     5     2    1
    14    35    34    1
    15    15    13   am
    16    37    38    1
    17    37    36    1
    18    13    12    1
    19     2     1    1
    20     2     3    1
    21    39    38    2
    22     7     1    1
    23    38    42   am
    24    36    29   am
    25    34    33    1
    26     8     3   am
    27     8     9    1
    28     3     4    2
    29    12     9    1
    30    29    30    2
    31    29    28    1
    32     9    10    1
    33    42    43    1
    34    31    28    1
    35    31    32    1
    36    33    32    1
    37    28    27    1
    38    43    44    1
    39    43    46    1
    40    47    46    1
    41    27    25   am
    42    10    16   am
    43    10    11    2
    44    49    50    1
    45    44    45    2
    46    16    17    1
    47    46    48    1
    48    25    26    2
    49    25    24    1
    50    21    20    1
    51    23    24    1
    52    23    18   am
    53    50    51    1
    54    50    53    1
    55    51    52    2
    56    17    18    1
    57    17    20    1
    58    18    19    2
    59    20    22    1
    60    53    54    1
    61    54    55    1
    62    83    82    1
    63    75    73   am
    64    55    56    1
    65    82    81    1
    66    73    74    2
    67    73    72    1
    68    56    57    2
    69    72    69    1
    70    81    80    1
    71    58    57    1
    72    57    59    1
    73    92    90   ar
    74    91    90   ar
    75    99    98    1
    76    90    89    1
    77    80    77    1
    78    69    68    1
    79    69    70    1
    80    76    70   am
    81    76    77    1
    82    70    71    2
    83    77    78    1
    84    98    97    1
    85    98   100    1
    86    89    88    1
    87    97    94    1
    88   104   103    2
    89    88    85    1
    90    78    79    2
    91   103   102    1
    92    96    95    2
    93    94    95    1
    94    94    93    1
    95    95   101   am
    96    85    84    1
    97    85    86    1
    98   101   102    1
    99   102   105    1
   100    86    87    2
   101   105   106    1
