@<TRIPOS>MOLECULE
tmp/3w5pA01.pdb
 238 224 0 0 0
SMALL
GASTEIGER

@<TRIPOS>ATOM
      1  N         15.5000    6.9390   10.2670 N.3    21  TYR21      -0.1241
      2  CA        15.6390    7.6940   11.5030 C.3    21  TYR21       0.1605
      3  C         15.4940    9.1700   11.1420 C.2    21  TYR21       0.2264
      4  O         16.4150    9.7760   10.5960 O.2    21  TYR21      -0.2867
      5  CB        17.0020    7.4400   12.1510 C.3    21  TYR21       0.0534
      6  CG        17.1330    8.0580   13.5290 C.ar   21  TYR21      -0.0201
      7  CD1       17.4260    9.4130   13.6860 C.ar   21  TYR21      -0.0009
      8  CD2       16.9260    7.2940   14.6780 C.ar   21  TYR21      -0.0009
      9  CE1       17.5100    9.9930   14.9510 C.ar   21  TYR21       0.0417
     10  CE2       17.0030    7.8620   15.9480 C.ar   21  TYR21       0.0417
     11  CZ        17.2960    9.2160   16.0750 C.ar   21  TYR21       0.1957
     12  OH        17.3620    9.7920   17.3230 O.3    21  TYR21      -0.2866
     13  N         11.7970   14.1050   14.2670 N.3    25  TYR25      -0.1241
     14  CA        10.8500   13.4010   15.1290 C.3    25  TYR25       0.1605
     15  C          9.4070   13.8590   14.9050 C.2    25  TYR25       0.2264
     16  O          8.5890   13.8710   15.8310 O.2    25  TYR25      -0.2867
     17  CB        11.2530   13.6020   16.5990 C.3    25  TYR25       0.0534
     18  CG        12.7220   13.3210   16.8750 C.ar   25  TYR25      -0.0201
     19  CD1       13.6680   14.3540   16.8950 C.ar   25  TYR25      -0.0009
     20  CD2       13.1750   12.0170   17.0540 C.ar   25  TYR25      -0.0009
     21  CE1       15.0320   14.0850   17.0820 C.ar   25  TYR25       0.0417
     22  CE2       14.5190   11.7370   17.2350 C.ar   25  TYR25       0.0417
     23  CZ        15.4450   12.7690   17.2460 C.ar   25  TYR25       0.1957
     24  OH        16.7770   12.4650   17.3850 O.3    25  TYR25      -0.2866
     25  N          6.2750   11.7750   16.1020 N.3    28  PHE28      -0.1241
     26  CA         5.9880   11.6280   17.5270 C.3    28  PHE28       0.1605
     27  C          4.6400   12.2280   17.9100 C.2    28  PHE28       0.2264
     28  O          4.0770   11.9030   18.9600 O.2    28  PHE28      -0.2867
     29  CB         7.1110   12.2580   18.3620 C.3    28  PHE28       0.0534
     30  CG         8.3390   11.3830   18.4970 C.ar   28  PHE28      -0.0203
     31  CD1        8.8070   10.6370   17.4180 C.ar   28  PHE28      -0.0042
     32  CD2        9.0440   11.3320   19.6990 C.ar   28  PHE28      -0.0042
     33  CE1        9.9610    9.8540   17.5310 C.ar   28  PHE28      -0.0003
     34  CE2       10.1980   10.5550   19.8220 C.ar   28  PHE28      -0.0003
     35  CZ        10.6560    9.8150   18.7360 C.ar   28  PHE28      -0.0000
     36  N          3.4550    5.1150   30.0750 N.3    43  LEU43      -0.1245
     37  CA         3.3470    3.8510   29.3510 C.3    43  LEU43       0.1561
     38  C          2.7210    3.9360   27.9550 C.2    43  LEU43       0.2260
     39  O          3.2630    3.3860   26.9920 O.2    43  LEU43      -0.2867
     40  CB         2.5970    2.8230   30.2030 C.3    43  LEU43       0.0270
     41  CG         2.4110    1.4350   29.5840 C.3    43  LEU43       0.0019
     42  CD1        3.7300    0.9180   29.0250 C.3    43  LEU43       0.0001
     43  CD2        1.8610    0.4950   30.6400 C.3    43  LEU43       0.0001
     44  N          5.2110    6.0210   25.4870 N.3    46  LEU46      -0.1231
     45  CA         6.4260    5.2580   25.2230 C.3    46  LEU46       0.1693
     46  C          6.1610    3.9240   24.5380 C.2    46  LEU46       0.2591
     47  O          7.0300    3.4040   23.8370 O.2    46  LEU46      -0.2718
     48  CB         7.2090    5.0440   26.5270 C.3    46  LEU46       0.0284
     49  CG         7.7020    6.3390   27.1830 C.3    46  LEU46       0.0019
     50  CD1        8.4640    6.0300   28.4630 C.3    46  LEU46       0.0001
     51  CD2        8.5910    7.0960   26.2030 C.3    46  LEU46       0.0001
     52  N          4.9700    3.3650   24.7390 N.am   47  ALA47      -0.1980
     53  CA         4.6330    2.0990   24.0890 C.3    47  ALA47       0.1597
     54  C          4.5580    2.3680   22.5840 C.2    47  ALA47       0.2287
     55  O          5.1030    1.6170   21.7810 O.2    47  ALA47      -0.2864
     56  CB         3.2900    1.5710   24.6010 C.3    47  ALA47       0.0319
     57  N          5.9250    4.8670   20.9760 N.3    49  LEU49      -0.1231
     58  CA         7.2650    5.2880   20.5910 C.3    49  LEU49       0.1693
     59  C          8.1310    4.0750   20.2710 C.2    49  LEU49       0.2591
     60  O          8.8040    4.0260   19.2410 O.2    49  LEU49      -0.2718
     61  CB         7.8800    6.0970   21.7490 C.3    49  LEU49       0.0284
     62  CG         9.2830    6.7040   21.6400 C.3    49  LEU49       0.0019
     63  CD1       10.3590    5.6430   21.7780 C.3    49  LEU49       0.0001
     64  CD2        9.3990    7.4010   20.3260 C.3    49  LEU49       0.0001
     65  N          8.1080    3.0920   21.1630 N.am   50  VAL50      -0.1980
     66  CA         8.8910    1.8820   20.9710 C.3    50  VAL50       0.1595
     67  C          8.3530    1.0650   19.7940 C.2    50  VAL50       0.2287
     68  O          9.1250    0.5360   18.9940 O.2    50  VAL50      -0.2864
     69  CB         8.8940    1.0280   22.2700 C.3    50  VAL50       0.0276
     70  CG1        9.5100   -0.3420   22.0130 C.3    50  VAL50       0.0022
     71  CG2        9.6880    1.7550   23.3510 C.3    50  VAL50       0.0022
     72  N          9.4140    2.6550   16.6970 N.3    53  SER53      -0.1217
     73  CA        10.8440    2.4220   16.5670 C.3    53  SER53       0.1889
     74  C         11.1260    1.0150   16.0770 C.2    53  SER53       0.2288
     75  O         12.0660    0.7990   15.3200 O.2    53  SER53      -0.2866
     76  CB        11.5410    2.6620   17.9090 C.3    53  SER53       0.2089
     77  OG        11.4040    4.0180   18.3090 O.3    53  SER53      -0.2183
     78  N         15.0590   -4.3040   20.6570 N.3    84  ILE84      -0.1245
     79  CA        15.2650   -3.4080   21.7840 C.3    84  ILE84       0.1561
     80  C         16.6890   -2.8620   21.8280 C.2    84  ILE84       0.2260
     81  O         16.9070   -1.7050   22.1830 O.2    84  ILE84      -0.2867
     82  CB        14.9200   -4.0950   23.1500 C.3    84  ILE84       0.0252
     83  CG1       14.6730   -3.0280   24.2160 C.3    84  ILE84       0.0019
     84  CG2       16.0740   -4.9880   23.6110 C.3    84  ILE84       0.0019
     85  CD1       13.5220   -2.0950   23.9050 C.3    84  ILE84       0.0001
     86  N         17.1200   -0.2410   19.1400 N.3    87  ILE87      -0.1231
     87  CA        16.3880    0.9380   19.5830 C.3    87  ILE87       0.1692
     88  C         17.2590    1.7100   20.6000 C.2    87  ILE87       0.2591
     89  O         17.4070    2.9430   20.5220 O.2    87  ILE87      -0.2718
     90  CB        15.0270    0.5140   20.1860 C.3    87  ILE87       0.0266
     91  CG1       14.1000    0.0810   19.0410 C.3    87  ILE87       0.0019
     92  CG2       14.4060    1.6460   20.9800 C.3    87  ILE87       0.0020
     93  CD1       12.7570   -0.4670   19.4800 C.3    87  ILE87       0.0001
     94  N         17.8540    0.9850   21.5410 N.am   88  MET88      -0.1979
     95  CA        18.7180    1.6210   22.5280 C.3    88  MET88       0.1605
     96  C         19.9240    2.2420   21.8270 C.2    88  MET88       0.2287
     97  O         20.3680    3.3260   22.1930 O.2    88  MET88      -0.2864
     98  CB        19.1880    0.6040   23.5770 C.3    88  MET88       0.0413
     99  CG        18.0620    0.0730   24.4630 C.3    88  MET88       0.0598
    100  SD        18.5890   -1.2900   25.5430 S.3    88  MET88      -0.1393
    101  CE        17.2330   -1.2960   26.7220 C.3    88  MET88       0.0692
    102  N         20.2220    3.2690   18.4580 N.3    90  ARG90      -0.1231
    103  CA        19.8670    4.4030   17.6050 C.3    90  ARG90       0.1694
    104  C         19.4890    5.6070   18.4420 C.2    90  ARG90       0.2592
    105  O         19.6500    6.7510   18.0060 O.2    90  ARG90      -0.2718
    106  CB        18.7170    4.0340   16.6490 C.3    90  ARG90       0.0321
    107  CG        17.3600    3.8230   17.2950 C.3    90  ARG90       0.0489
    108  CD        16.5210    2.8090   16.5020 C.3    90  ARG90       0.2205
    109  NE        16.3850    3.1440   15.0800 N.pl3  90  ARG90      -0.0865
    110  CZ        15.4500    3.9440   14.5750 C.cat  90  ARG90       0.5346
    111  NH1       14.5400    4.5060   15.3660 N.pl3  90  ARG90       0.1354
    112  NH2       15.4290    4.1830   13.2670 N.pl3  90  ARG90       0.1354
    113  N         19.0090    5.3550   19.6540 N.am   91  SER91      -0.1952
    114  CA        18.5940    6.4480   20.5380 C.3    91  SER91       0.1924
    115  C         19.7640    7.3120   20.9870 C.2    91  SER91       0.2314
    116  O         19.5590    8.4290   21.4930 O.2    91  SER91      -0.2863
    117  CB        17.8740    5.9060   21.7770 C.3    91  SER91       0.2116
    118  OG        18.7800    5.3470   22.7060 O.3    91  SER91      -0.2180
    119  N         19.7750   11.0010   19.8470 N.3    94  SER94      -0.1217
    120  CA        19.0370   12.0660   20.5250 C.3    94  SER94       0.1889
    121  C         19.4740   12.2490   21.9810 C.2    94  SER94       0.2288
    122  O         19.1060   13.2370   22.6250 O.2    94  SER94      -0.2866
    123  CB        17.5260   11.8060   20.4910 C.3    94  SER94       0.2089
    124  OG        17.1540   10.7610   21.3740 O.3    94  SER94      -0.2183
    125  N         17.0620   12.1250   26.5080 N.3   102  TRP102     -0.1241
    126  CA        16.8800   11.9360   25.0790 C.3   102  TRP102      0.1605
    127  C         16.0500   13.1240   24.6400 C.2   102  TRP102      0.2264
    128  O         14.8600   13.2170   24.9430 O.2   102  TRP102     -0.2867
    129  CB        16.1390   10.6270   24.8020 C.3   102  TRP102      0.0550
    130  CG        16.9840    9.4060   25.0300 C.ar  102  TRP102      0.0003
    131  CD1       17.8060    8.7990   24.1230 C.ar  102  TRP102      0.0946
    132  CD2       17.0730    8.6310   26.2320 C.ar  102  TRP102      0.0152
    133  NE1       18.3960    7.6880   24.6820 N.ar  102  TRP102     -0.2442
    134  CE2       17.9640    7.5630   25.9770 C.ar  102  TRP102      0.0810
    135  CE3       16.4840    8.7340   27.5000 C.ar  102  TRP102      0.0012
    136  CZ2       18.2790    6.6020   26.9440 C.ar  102  TRP102      0.0191
    137  CZ3       16.7950    7.7820   28.4580 C.ar  102  TRP102      0.0001
    138  CH2       17.6860    6.7250   28.1750 C.ar  102  TRP102      0.0015
    139  N         14.2690   14.7330   21.9210 N.3   104  CYS104     -0.1235
    140  CA        13.6840   14.4890   20.6150 C.3   104  CYS104      0.1677
    141  C         12.9370   15.6930   20.0320 C.2   104  CYS104      0.2270
    142  O         11.7660   15.5890   19.6530 O.2   104  CYS104     -0.2867
    143  CB        12.7660   13.2620   20.6840 C.3   104  CYS104      0.0956
    144  SG        13.6570   11.7170   21.0790 S.3   104  CYS104     -0.0801
    145  N         12.9210   13.2170   26.9870 N.3   111  TYR111     -0.1241
    146  CA        12.7740   12.2510   28.0710 C.3   111  TYR111      0.1605
    147  C         13.9840   12.0590   28.9770 C.2   111  TYR111      0.2264
    148  O         15.1000   11.8320   28.5040 O.2   111  TYR111     -0.2867
    149  CB        12.3620   10.8970   27.4810 C.3   111  TYR111      0.0534
    150  CG        11.4150   11.0030   26.2980 C.ar  111  TYR111     -0.0201
    151  CD1       11.9040   11.2070   25.0050 C.ar  111  TYR111     -0.0009
    152  CD2       10.0330   10.9020   26.4710 C.ar  111  TYR111     -0.0009
    153  CE1       11.0360   11.3010   23.9090 C.ar  111  TYR111      0.0417
    154  CE2        9.1570   11.0000   25.3890 C.ar  111  TYR111      0.0417
    155  CZ         9.6660   11.1970   24.1100 C.ar  111  TYR111      0.1957
    156  OH         8.8120   11.2810   23.0340 O.3   111  TYR111     -0.2866
    157  N         11.2090    8.2200   31.7150 N.3   116  VAL116     -0.1245
    158  CA        11.4630    6.8610   31.2690 C.3   116  VAL116      0.1561
    159  C         11.1670    5.7860   32.3150 C.2   116  VAL116      0.2260
    160  O         10.9970    4.6150   31.9740 O.2   116  VAL116     -0.2867
    161  CB        12.9320    6.7620   30.7680 C.3   116  VAL116      0.0252
    162  CG1       13.3360    5.3290   30.5460 C.3   116  VAL116      0.0019
    163  CG2       13.0730    7.5450   29.4640 C.3   116  VAL116      0.0019
    164  N          6.9510    3.7460   32.9800 N.3   119  ALA119     -0.1245
    165  CA         6.3530    2.8360   32.0070 C.3   119  ALA119      0.1562
    166  C          6.4340    1.3760   32.4340 C.2   119  ALA119      0.2260
    167  O          6.4280    0.4770   31.5950 O.2   119  ALA119     -0.2867
    168  CB         7.0160    3.0170   30.6320 C.3   119  ALA119      0.0290
    169  N          8.9590   -0.1960   33.8000 N.3   121  HIS121     -0.1241
    170  CA        10.3350   -0.6640   33.9260 C.3   121  HIS121      0.1621
    171  C         11.0550    0.0730   35.0510 C.2   121  HIS121      0.2264
    172  O         10.8590    1.2720   35.2460 O.2   121  HIS121     -0.2867
    173  CB        11.0620   -0.4950   32.5870 C.3   121  HIS121      0.0745
    174  CG        10.6380   -1.4910   31.5520 C.ar  121  HIS121      0.0817
    175  ND1       11.1110   -2.7860   31.5270 N.ar  121  HIS121     -0.2268
    176  CD2        9.7360   -1.4010   30.5450 C.ar  121  HIS121      0.1154
    177  CE1       10.5200   -3.4500   30.5490 C.ar  121  HIS121      0.1986
    178  NE2        9.6800   -2.6320   29.9380 N.ar  121  HIS121     -0.2212
    179  N         16.8900   -1.3860   35.0650 N.3   125  LEU125     -0.1231
    180  CA        17.0590   -1.3660   33.6120 C.3   125  LEU125      0.1693
    181  C         17.5620    0.0170   33.2160 C.2   125  LEU125      0.2591
    182  O         18.5560    0.1470   32.5100 O.2   125  LEU125     -0.2718
    183  CB        15.7310   -1.6310   32.8900 C.3   125  LEU125      0.0284
    184  CG        15.7500   -1.4800   31.3540 C.3   125  LEU125      0.0019
    185  CD1       16.7170   -2.4850   30.7550 C.3   125  LEU125      0.0001
    186  CD2       14.3550   -1.6930   30.7810 C.3   125  LEU125      0.0001
    187  N         16.8780    1.0440   33.7080 N.am  126  ILE126     -0.1980
    188  CA        17.2050    2.4310   33.3830 C.3   126  ILE126      0.1595
    189  C         18.6060    2.9340   33.7400 C.2   126  ILE126      0.2287
    190  O         19.2480    3.5980   32.9300 O.2   126  ILE126     -0.2864
    191  CB        16.1760    3.3930   34.0130 C.3   126  ILE126      0.0276
    192  CG1       14.7570    2.9240   33.6810 C.3   126  ILE126      0.0022
    193  CG2       16.4000    4.8180   33.4960 C.3   126  ILE126      0.0022
    194  CD1       14.4950    2.8050   32.2170 C.3   126  ILE126      0.0001
    195  N         21.0660    1.5710   31.4220 N.3   129  LEU129     -0.1245
    196  CA        20.8010    2.1050   30.0850 C.3   129  LEU129      0.1561
    197  C         21.3860    3.5120   29.9520 C.2   129  LEU129      0.2260
    198  O         21.9720    3.8530   28.9250 O.2   129  LEU129     -0.2867
    199  CB        19.2950    2.1520   29.7990 C.3   129  LEU129      0.0270
    200  CG        18.8950    2.9200   28.5290 C.3   129  LEU129      0.0019
    201  CD1       19.5440    2.2940   27.2970 C.3   129  LEU129      0.0001
    202  CD2       17.3720    2.9300   28.3920 C.3   129  LEU129      0.0001
    203  N         15.6690   -6.1690   30.1480 N.3   213  HIS213     -0.1241
    204  CA        14.4140   -5.6800   29.5910 C.3   213  HIS213      0.1621
    205  C         13.4390   -6.8550   29.4680 C.2   213  HIS213      0.2264
    206  O         12.2620   -6.7340   29.8200 O.2   213  HIS213     -0.2867
    207  CB        14.6360   -5.0440   28.2100 C.3   213  HIS213      0.0745
    208  CG        13.3650   -4.7490   27.4720 C.ar  213  HIS213      0.0817
    209  ND1       12.8220   -5.6170   26.5490 N.ar  213  HIS213     -0.2268
    210  CD2       12.5080   -3.7020   27.5540 C.ar  213  HIS213      0.1154
    211  CE1       11.6850   -5.1190   26.0940 C.ar  213  HIS213      0.1986
    212  NE2       11.4720   -3.9580   26.6890 N.ar  213  HIS213     -0.2212
    213  N         -0.2900   -1.5680   25.6870 N.3   230  LEU230     -0.1245
    214  CA         0.7730   -1.6880   24.6900 C.3   230  LEU230      0.1561
    215  C          0.1760   -1.7840   23.2940 C.2   230  LEU230      0.2260
    216  O         -1.0260   -1.6250   23.1180 O.2   230  LEU230     -0.2867
    217  CB         1.6380   -2.9180   24.9810 C.3   230  LEU230      0.0270
    218  CG         2.2500   -2.9460   26.3870 C.3   230  LEU230      0.0019
    219  CD1        3.1520   -4.1610   26.5170 C.3   230  LEU230      0.0001
    220  CD2        3.0300   -1.6650   26.6510 C.3   230  LEU230      0.0001
    221  N          4.2920   -4.5860   19.6140 N.3   234  VAL234     -0.1245
    222  CA         5.1410   -4.7790   20.7870 C.3   234  VAL234      0.1561
    223  C          4.8420   -6.1520   21.3930 C.2   234  VAL234      0.2260
    224  O          5.7460   -6.9480   21.6510 O.2   234  VAL234     -0.2867
    225  CB         4.8740   -3.7030   21.8520 C.3   234  VAL234      0.0252
    226  CG1        5.5670   -4.0720   23.1550 C.3   234  VAL234      0.0019
    227  CG2        5.3600   -2.3480   21.3560 C.3   234  VAL234      0.0019
    228  N          7.9160   -8.6650   21.5660 N.3   238  PHE238     -0.1241
    229  CA         8.4210   -8.9510   22.9010 C.3   238  PHE238      0.1605
    230  C          7.8160  -10.1790   23.5880 C.2   238  PHE238      0.2264
    231  O          8.3430  -10.6460   24.5960 O.2   238  PHE238     -0.2867
    232  CB         8.2610   -7.7020   23.7760 C.3   238  PHE238      0.0534
    233  CG         9.1180   -6.5360   23.3290 C.ar  238  PHE238     -0.0203
    234  CD1        8.7640   -5.2300   23.6470 C.ar  238  PHE238     -0.0042
    235  CD2       10.2800   -6.7510   22.5940 C.ar  238  PHE238     -0.0042
    236  CE1        9.5560   -4.1500   23.2350 C.ar  238  PHE238     -0.0003
    237  CE2       11.0790   -5.6820   22.1790 C.ar  238  PHE238     -0.0003
    238  CZ        10.7150   -4.3800   22.4990 C.ar  238  PHE238     -0.0000
@<TRIPOS>BOND
     1     1     2    1
     2     4     3    2
     3     3     2    1
     4     2     5    1
     5     5     6    1
     6   112   110    1
     7     6     7   ar
     8     6     8   ar
     9     7     9   ar
    10    13    14    1
    11   110   109    2
    12   110   111    1
    13     8    10   ar
    14    15    14    1
    15    15    16    2
    16     9    11   ar
    17   109   108    1
    18    14    17    1
    19    75    74    2
    20    10    11   ar
    21    11    12    1
    22    74    73    1
    23    25    26    1
    24   108   107    1
    25    73    72    1
    26    73    76    1
    27    17    18    1
    28   106   107    1
    29   106   103    1
    30    18    19   ar
    31    18    20   ar
    32    19    21   ar
    33    20    22   ar
    34    21    23   ar
    35    22    23   ar
    36    23    24    1
    37    31    33   ar
    38    31    30   ar
    39    26    27    1
    40    26    29    1
    41    33    35   ar
    42   103   104    1
    43   103   102    1
    44    76    77    1
    45    27    28    2
    46   105   104    2
    47    29    30    1
    48   104   113   am
    49    30    32   ar
    50    35    34   ar
    51    68    67    2
    52    91    93    1
    53    91    90    1
    54    86    87    1
    55    60    59    2
    56    87    90    1
    57    87    88    1
    58   221   222    1
    59   142   141    2
    60   113   114    1
    61    32    34   ar
    62    67    66    1
    63   119   120    1
    64   141   140    1
    65    90    92    1
    66    59    58    1
    67    59    65   am
    68    64    62    1
    69   123   120    1
    70   123   124    1
    71    89    88    2
    72   120   121    1
    73   114   115    1
    74   114   117    1
    75    58    57    1
    76    58    61    1
    77    88    94   am
    78   140   143    1
    79   140   139    1
    80    78    79    1
    81   143   144    1
    82   222   223    1
    83   222   225    1
    84    66    65    1
    85    66    69    1
    86   115   116    2
    87   227   225    1
    88   223   224    2
    89    94    95    1
    90   228   229    1
    91    62    61    1
    92    62    63    1
    93   117   118    1
    94    55    54    2
    95    79    80    1
    96    79    82    1
    97    96    97    2
    98    96    95    1
    99    80    81    2
   100   225   226    1
   101   121   122    2
   102    70    69    1
   103   237   238   ar
   104   237   235   ar
   105    69    71    1
   106   238   236   ar
   107    95    98    1
   108    54    53    1
   109   235   233   ar
   110   229   230    1
   111   229   232    1
   112   156   155    1
   113   216   215    2
   114    82    84    1
   115    82    83    1
   116   236   234   ar
   117   215   214    1
   118   233   234   ar
   119   233   232    1
   120    98    99    1
   121   230   231    2
   122    47    46    2
   123    85    83    1
   124   153   155   ar
   125   153   151   ar
   126    53    56    1
   127    53    52    1
   128   155   154   ar
   129   131   133   ar
   130   131   130   ar
   131    99   100    1
   132    46    52   am
   133    46    45    1
   134   127   128    2
   135   127   126    1
   136   133   134   ar
   137   214   217    1
   138   214   213    1
   139   129   130    1
   140   129   126    1
   141   217   218    1
   142   151   150   ar
   143   130   132   ar
   144   126   125    1
   145    45    44    1
   146    45    48    1
   147   154   152   ar
   148   100   101    1
   149   134   132   ar
   150   134   136   ar
   151   211   209   ar
   152   211   212   ar
   153    51    49    1
   154   132   135   ar
   155   150   152   ar
   156   150   149    1
   157   218   219    1
   158   218   220    1
   159    48    49    1
   160   209   208   ar
   161   212   210   ar
   162   136   138   ar
   163   145   146    1
   164    39    38    2
   165    49    50    1
   166   201   200    1
   167   208   210   ar
   168   208   207    1
   169   149   146    1
   170   135   137   ar
   171    38    37    1
   172   146   147    1
   173   138   137   ar
   174   207   204    1
   175   202   200    1
   176   148   147    2
   177   200   199    1
   178   198   197    2
   179    42    41    1
   180    37    36    1
   181    37    40    1
   182   163   161    1
   183   205   204    1
   184   205   206    2
   185    41    40    1
   186    41    43    1
   187   204   203    1
   188   199   196    1
   189   178   176   ar
   190   178   177   ar
   191   197   196    1
   192   196   195    1
   193   176   174   ar
   194   162   161    1
   195   177   175   ar
   196   168   165    1
   197   185   184    1
   198   161   158    1
   199   186   184    1
   200   158   157    1
   201   158   159    1
   202   184   183    1
   203   175   174   ar
   204   174   173    1
   205   167   166    2
   206   160   159    2
   207   165   166    1
   208   165   164    1
   209   194   192    1
   210   182   181    2
   211   173   170    1
   212   183   180    1
   213   190   189    2
   214   181   180    1
   215   181   187   am
   216   188   187    1
   217   188   189    1
   218   188   191    1
   219   193   191    1
   220   180   179    1
   221   192   191    1
   222   169   170    1
   223   170   171    1
   224   171   172    2
