@<TRIPOS>MOLECULE
tmp/3w5sA00.pdb
 80 75 0 0 0
SMALL
GASTEIGER

@<TRIPOS>ATOM
      1  N         21.0190  129.9000   28.3060 N.3    42  HIS42      -0.1226
      2  CA        20.0390  129.2270   29.1530 C.3    42  HIS42       0.1752
      3  C         20.6770  128.5290   30.3430 C.2    42  HIS42       0.2595
      4  O         19.9910  128.2030   31.3170 O.2    42  HIS42      -0.2718
      5  CB        19.2100  128.2250   28.3200 C.3    42  HIS42       0.0759
      6  CG        18.6350  128.8150   27.0630 C.ar   42  HIS42       0.0818
      7  ND1       19.0550  128.4510   25.8000 N.ar   42  HIS42      -0.2268
      8  CD2       17.6840  129.7640   26.8840 C.ar   42  HIS42       0.1154
      9  CE1       18.3780  129.1410   24.8980 C.ar   42  HIS42       0.1986
     10  NE2       17.5400  129.9440   25.5300 N.ar   42  HIS42      -0.2212
     11  N         21.9890  128.2960   30.2670 N.am   43  GLN43      -0.1979
     12  CA        22.7200  127.7020   31.3800 C.3    43  GLN43       0.1601
     13  C         23.9990  128.4680   31.7120 C.2    43  GLN43       0.2287
     14  O         24.9640  127.9210   32.2450 O.2    43  GLN43      -0.2864
     15  CB        23.0080  126.2290   31.1440 C.3    43  GLN43       0.0394
     16  CG        21.7220  125.3890   31.1130 C.3    43  GLN43       0.0908
     17  CD        21.9700  123.9210   31.3280 C.2    43  GLN43       0.2608
     18  OE1       21.9830  123.1680   30.3870 O.2    43  GLN43      -0.2717
     19  NE2       22.1950  123.5160   32.5790 N.am   43  GLN43      -0.0878
     20  N         24.9360  128.2420   35.4650 N.3    46  ASP46      -0.1239
     21  CA        25.4490  126.9090   35.7640 C.3    46  ASP46       0.1674
     22  C         26.8940  126.7710   35.2740 C.2    46  ASP46       0.2266
     23  O         27.7420  126.2110   35.9620 O.2    46  ASP46      -0.2867
     24  CB        24.5910  125.8250   35.1170 C.3    46  ASP46       0.1410
     25  CG        23.1960  125.7480   35.6880 C.2    46  ASP46       0.3668
     26  OD1       23.0020  126.0640   36.8820 O.co2  46  ASP46      -0.2456
     27  OD2       22.2810  125.3470   34.9270 O.co2  46  ASP46      -0.2456
     28  N         22.8770  121.2740   26.4730 N.3    94  GLY94      -0.1225
     29  CA        22.2080  120.4260   25.4710 C.3    94  GLY94       0.1811
     30  C         22.9710  120.3030   24.1590 C.2    94  GLY94       0.2280
     31  O         24.1870  120.5650   24.0670 O.2    94  GLY94      -0.2866
     32  N         22.8440  117.8460   29.4280 N.3   117  THR117     -0.1203
     33  CA        21.7270  118.1420   30.3290 C.3   117  THR117      0.1994
     34  C         20.3800  118.0030   29.6020 C.2   117  THR117      0.2618
     35  O         19.3290  118.3930   30.1220 O.2   117  THR117     -0.2717
     36  CB        21.8470  119.5510   30.9400 C.3   117  THR117      0.1784
     37  OG1       21.7590  120.5110   29.8750 O.3   117  THR117     -0.2211
     38  CG2       23.1980  119.7120   31.6370 C.3   117  THR117      0.0376
     39  N         20.4260  117.4550   28.3870 N.am  118  THR118     -0.1952
     40  CA        19.1890  117.1400   27.6380 C.3   118  THR118      0.1897
     41  C         19.2760  115.7230   27.0800 C.2   118  THR118      0.2313
     42  O         20.1700  114.9660   27.4590 O.2   118  THR118     -0.2863
     43  CB        18.9370  118.1460   26.4900 C.3   118  THR118      0.1794
     44  OG1       19.8180  117.9050   25.3830 O.3   118  THR118     -0.2208
     45  CG2       19.1050  119.5930   26.9810 C.3   118  THR118      0.0378
     46  N         21.5640  116.7640   36.9600 N.3   155  LEU155     -0.1245
     47  CA        21.7060  117.9690   36.1490 C.3   155  LEU155      0.1561
     48  C         20.5710  118.1610   35.1460 C.2   155  LEU155      0.2260
     49  O         20.5000  119.1780   34.4530 O.2   155  LEU155     -0.2867
     50  CB        23.0710  117.9600   35.4290 C.3   155  LEU155      0.0270
     51  CG        24.2990  117.9110   36.3260 C.3   155  LEU155      0.0019
     52  CD1       25.5850  118.0250   35.4620 C.3   155  LEU155      0.0001
     53  CD2       24.3210  118.9930   37.4240 C.3   155  LEU155      0.0001
     54  N         16.2270  120.2540   36.2870 N.3   158  GLY158     -0.1210
     55  CA        15.7380  121.5660   35.9070 C.3   158  GLY158      0.1956
     56  C         15.3510  121.7530   34.4560 C.2   158  GLY158      0.2612
     57  O         14.9770  122.8630   34.0730 O.2   158  GLY158     -0.2717
     58  N         15.4450  120.7000   33.6450 N.am  159  LEU159     -0.1966
     59  CA        15.0820  120.8250   32.2360 C.3   159  LEU159      0.1713
     60  C         13.5620  120.9780   32.1400 C.2   159  LEU159      0.2458
     61  O         12.8330  120.1320   32.6160 O.2   159  LEU159     -0.2730
     62  CB        15.5490  119.5890   31.4480 C.3   159  LEU159      0.0310
     63  CG        15.3500  119.6400   29.9330 C.3   159  LEU159      0.0022
     64  CD1       16.1420  120.8030   29.2940 C.3   159  LEU159      0.0001
     65  CD2       15.7470  118.2660   29.3460 C.3   159  LEU159      0.0001
     66  N         13.0760  122.0900   31.5650 N.am  160  PRO160     -0.2727
     67  CA        11.6220  122.3130   31.5450 C.3   160  PRO160      0.1402
     68  C         10.8990  121.1560   30.8750 C.2   160  PRO160      0.2269
     69  O         11.4590  120.4980   30.0060 O.2   160  PRO160     -0.2865
     70  CB        11.4910  123.6080   30.7310 C.3   160  PRO160      0.0296
     71  CG        12.7540  124.3660   31.0700 C.3   160  PRO160      0.0237
     72  CD        13.8070  123.2630   31.0410 C.3   160  PRO160      0.0939
     73  N         10.4030  121.0050   26.7170 N.3   163  ILE163     -0.1245
     74  CA        11.6240  120.6300   25.9990 C.3   163  ILE163      0.1561
     75  C         12.1360  119.2480   26.4200 C.2   163  ILE163      0.2260
     76  O         12.7740  118.5480   25.6350 O.2   163  ILE163     -0.2867
     77  CB        12.7220  121.7270   26.0890 C.3   163  ILE163      0.0252
     78  CG1       13.9690  121.3930   25.2680 C.3   163  ILE163      0.0019
     79  CG2       13.1140  121.9910   27.5350 C.3   163  ILE163      0.0019
     80  CD1       13.7460  121.2330   23.7280 C.3   163  ILE163      0.0001
@<TRIPOS>BOND
     1    80    78    1
     2    31    30    2
     3    30    29    1
     4     9    10   ar
     5     9     7   ar
     6    78    77    1
     7    44    43    1
     8    29    28    1
     9    10     8   ar
    10    76    75    2
    11     7     6   ar
    12    74    77    1
    13    74    75    1
    14    74    73    1
    15    77    79    1
    16    43    45    1
    17    43    40    1
    18     8     6   ar
    19     6     5    1
    20    41    42    2
    21    41    40    1
    22    40    39    1
    23     1     2    1
    24     5     2    1
    25    39    34   am
    26     2     3    1
    27    64    63    1
    28    65    63    1
    29    32    33    1
    30    34    35    2
    31    34    33    1
    32    37    36    1
    33    63    62    1
    34    69    68    2
    35    11     3   am
    36    11    12    1
    37    33    36    1
    38     3     4    2
    39    18    17    2
    40    70    71    1
    41    70    67    1
    42    68    67    1
    43    36    38    1
    44    72    71    1
    45    72    66    1
    46    16    15    1
    47    16    17    1
    48    15    12    1
    49    17    19   am
    50    12    13    1
    51    62    59    1
    52    67    66    1
    53    66    60   am
    54    13    14    2
    55    60    59    1
    56    60    61    2
    57    59    58    1
    58    58    56   am
    59    57    56    2
    60    49    48    2
    61    56    55    1
    62    27    25   ar
    63    24    25    1
    64    24    21    1
    65    48    47    1
    66    22    21    1
    67    22    23    2
    68    50    47    1
    69    50    51    1
    70    52    51    1
    71    20    21    1
    72    25    26   ar
    73    55    54    1
    74    47    46    1
    75    51    53    1
