@<TRIPOS>MOLECULE
tmp/3w5wA00.pdb
 130 123 0 0 0
SMALL
GASTEIGER

@<TRIPOS>ATOM
      1  N        -39.4620   21.5740   43.8770 N.3    28  HIS28      -0.1241
      2  CA       -39.2920   20.2270   43.3100 C.3    28  HIS28       0.1621
      3  C        -38.3240   19.2460   43.9730 C.2    28  HIS28       0.2264
      4  O        -37.3830   19.6470   44.6490 O.2    28  HIS28      -0.2867
      5  CB       -38.9290   20.3510   41.8300 C.3    28  HIS28       0.0745
      6  CG       -37.5870   20.9690   41.5870 C.ar   28  HIS28       0.0817
      7  ND1      -36.4080   20.2690   41.7350 N.ar   28  HIS28      -0.2268
      8  CD2      -37.2350   22.2230   41.2160 C.ar   28  HIS28       0.1154
      9  CE1      -35.3900   21.0650   41.4640 C.ar   28  HIS28       0.1986
     10  NE2      -35.8640   22.2560   41.1460 N.ar   28  HIS28      -0.2212
     11  N        -46.0930   16.0730   39.3500 N.3   103  LYS103     -0.1231
     12  CA       -45.2010   14.9290   39.3850 C.3   103  LYS103      0.1693
     13  C        -43.8140   15.3390   39.8400 C.2   103  LYS103      0.2591
     14  O        -43.0470   14.5150   40.3250 O.2   103  LYS103     -0.2718
     15  CB       -45.1160   14.2780   38.0070 C.3   103  LYS103      0.0285
     16  CG       -44.6810   15.2250   36.8960 C.3   103  LYS103      0.0035
     17  CD       -44.4560   14.4780   35.5780 C.3   103  LYS103      0.0206
     18  CE       -44.0640   15.4220   34.4480 C.3   103  LYS103      0.1093
     19  NZ       -43.8900   14.6840   33.1650 N.3   103  LYS103     -0.1314
     20  N        -43.5050   16.6210   39.6860 N.am  104  ARG104     -0.1980
     21  CA       -42.2010   17.1600   40.0560 C.3   104  ARG104      0.1597
     22  C        -41.9090   17.1600   41.5540 C.2   104  ARG104      0.2287
     23  O        -40.7480   17.0740   41.9640 O.2   104  ARG104     -0.2864
     24  CB       -42.0580   18.5780   39.5060 C.3   104  ARG104      0.0334
     25  CG       -41.9110   18.6340   38.0030 C.3   104  ARG104      0.0492
     26  CD       -40.6490   17.9300   37.5960 C.3   104  ARG104      0.2205
     27  NE       -39.4960   18.6180   38.1470 N.pl3 104  ARG104     -0.0865
     28  CZ       -38.3280   18.0330   38.3720 C.cat 104  ARG104      0.5346
     29  NH1      -38.1810   16.7460   38.0870 N.pl3 104  ARG104      0.1354
     30  NH2      -37.3150   18.7300   38.8820 N.pl3 104  ARG104      0.1354
     31  N        -21.2170   15.6890   40.7770 N.3   258  GLU258     -0.1245
     32  CA       -22.0750   16.8020   40.3770 C.3   258  GLU258      0.1567
     33  C        -21.3570   17.6620   39.3380 C.2   258  GLU258      0.2260
     34  O        -20.1390   17.8330   39.3980 O.2   258  GLU258     -0.2867
     35  CB       -22.4200   17.6670   41.5930 C.3   258  GLU258      0.0388
     36  CG       -23.3480   18.8360   41.2900 C.3   258  GLU258      0.1160
     37  CD       -24.7980   18.4060   41.1090 C.2   258  GLU258      0.3649
     38  OE1      -25.0590   17.4860   40.3000 O.co2 258  GLU258     -0.2457
     39  OE2      -25.6790   18.9960   41.7770 O.co2 258  GLU258     -0.2457
     40  N        -20.8120   15.9880   34.2480 N.3   261  VAL261     -0.1245
     41  CA       -21.3210   15.8300   32.8890 C.3   261  VAL261      0.1561
     42  C        -21.1200   17.0900   32.0380 C.2   261  VAL261      0.2260
     43  O        -21.1710   17.0360   30.8080 O.2   261  VAL261     -0.2867
     44  CB       -22.8180   15.4660   32.9160 C.3   261  VAL261      0.0252
     45  CG1      -23.6000   16.5660   33.6030 C.3   261  VAL261      0.0019
     46  CG2      -23.3290   15.2380   31.5070 C.3   261  VAL261      0.0019
     47  N        -26.8550    4.9640   35.9740 N.3   284  LYS284     -0.1245
     48  CA       -27.4630    6.2930   36.0770 C.3   284  LYS284      0.1561
     49  C        -26.9570    7.2000   34.9510 C.2   284  LYS284      0.2260
     50  O        -25.7790    7.5720   34.9150 O.2   284  LYS284     -0.2867
     51  CB       -27.1320    6.9230   37.4380 C.3   284  LYS284      0.0271
     52  CG       -27.5370    8.3890   37.5940 C.3   284  LYS284      0.0035
     53  CD       -29.0490    8.5800   37.6050 C.3   284  LYS284      0.0206
     54  CE       -29.5530    9.2650   36.3310 C.3   284  LYS284      0.1093
     55  NZ       -29.0440   10.6620   36.1580 N.3   284  LYS284     -0.1314
     56  N        -26.8980   10.7410   32.7650 N.3   286  SER286     -0.1217
     57  CA       -27.0610   12.1860   32.8560 C.3   286  SER286      0.1889
     58  C        -26.6330   12.7670   31.5190 C.2   286  SER286      0.2288
     59  O        -25.5360   12.4890   31.0270 O.2   286  SER286     -0.2866
     60  CB       -26.2070   12.7680   33.9810 C.3   286  SER286      0.2089
     61  OG       -26.7670   12.4570   35.2440 O.3   286  SER286     -0.2183
     62  N        -26.1930   16.2400   29.0080 N.3   288  ARG288     -0.1245
     63  CA       -25.9880   17.6770   28.9890 C.3   288  ARG288      0.1563
     64  C        -25.5950   18.0710   27.5740 C.2   288  ARG288      0.2260
     65  O        -24.9830   17.2850   26.8500 O.2   288  ARG288     -0.2867
     66  CB       -24.8700   18.0640   29.9650 C.3   288  ARG288      0.0307
     67  CG       -25.0460   19.4330   30.6150 C.3   288  ARG288      0.0489
     68  CD       -25.3370   19.3000   32.1050 C.3   288  ARG288      0.2205
     69  NE       -26.4730   18.4200   32.3660 N.pl3 288  ARG288     -0.0865
     70  CZ       -26.8360   18.0050   33.5750 C.cat 288  ARG288      0.5346
     71  NH1      -27.8830   17.2090   33.7080 N.pl3 288  ARG288      0.1354
     72  NH2      -26.1510   18.3820   34.6460 N.pl3 288  ARG288      0.1354
     73  N        -35.4020    5.6390   29.4060 N.3   304  ASN304     -0.1225
     74  CA       -36.6380    5.8460   30.1710 C.3   304  ASN304      0.1785
     75  C        -36.6650    7.1120   31.0270 C.2   304  ASN304      0.2598
     76  O        -36.9700    7.0490   32.2230 O.2   304  ASN304     -0.2718
     77  CB       -36.9170    4.6520   31.0920 C.3   304  ASN304      0.1169
     78  CG       -36.8450    3.3270   30.3740 C.2   304  ASN304      0.2627
     79  OD1      -35.7800    2.7120   30.2900 O.2   304  ASN304     -0.2716
     80  ND2      -37.9790    2.8780   29.8440 N.am  304  ASN304     -0.0877
     81  N        -36.3710    8.2600   30.4280 N.am  305  GLY305     -0.1942
     82  CA       -36.3750    9.4790   31.2120 C.3   305  GLY305      0.2014
     83  C        -37.0610   10.6800   30.5950 C.2   305  GLY305      0.2639
     84  O        -38.1190   10.5790   29.9720 O.2   305  GLY305     -0.2714
     85  N        -36.4330   11.8310   30.7890 N.am  306  GLY306     -0.1939
     86  CA       -36.9550   13.0790   30.2760 C.3   306  GLY306      0.2014
     87  C        -36.0980   14.1880   30.8450 C.2   306  GLY306      0.2639
     88  O        -34.9600   13.9420   31.2500 O.2   306  GLY306     -0.2714
     89  N        -36.6400   15.4010   30.8890 N.am  307  GLY307     -0.1939
     90  CA       -35.8890   16.5250   31.4140 C.3   307  GLY307      0.2014
     91  C        -36.0350   17.7340   30.5170 C.2   307  GLY307      0.2638
     92  O        -37.0940   17.9470   29.9360 O.2   307  GLY307     -0.2714
     93  N        -34.9690   18.5170   30.3890 N.am  308  HIS308     -0.1973
     94  CA       -35.0000   19.7200   29.5620 C.3   308  HIS308      0.1656
     95  C        -34.1130   19.6250   28.3260 C.2   308  HIS308      0.2291
     96  O        -33.3270   18.6880   28.1750 O.2   308  HIS308     -0.2864
     97  CB       -34.6030   20.9330   30.4060 C.3   308  HIS308      0.0771
     98  CG       -35.3280   21.0080   31.7120 C.ar  308  HIS308      0.0820
     99  ND1      -36.7050   20.9920   31.7990 N.ar  308  HIS308     -0.2267
    100  CD2      -34.8710   21.0470   32.9860 C.ar  308  HIS308      0.1154
    101  CE1      -37.0650   21.0130   33.0700 C.ar  308  HIS308      0.1986
    102  NE2      -35.9710   21.0470   33.8120 N.ar  308  HIS308     -0.2212
    103  N        -30.4190   19.7810   29.7030 N.3   311  ALA311     -0.1231
    104  CA       -30.0490   18.9140   30.8190 C.3   311  ALA311      0.1694
    105  C        -31.1610   17.9260   31.1730 C.2   311  ALA311      0.2593
    106  O        -32.3270   18.2990   31.2800 O.2   311  ALA311     -0.2718
    107  CB       -29.6910   19.7630   32.0350 C.3   311  ALA311      0.0304
    108  N        -30.7920   16.6660   31.3650 N.am  312  SER312     -0.1938
    109  CA       -31.7670   15.6350   31.6970 C.3   312  SER312      0.2055
    110  C        -31.0910   14.2840   31.9110 C.2   312  SER312      0.2644
    111  O        -29.9310   14.1050   31.5480 O.2   312  SER312     -0.2714
    112  CB       -32.7900   15.5250   30.5730 C.3   312  SER312      0.2130
    113  OG       -32.1470   15.2930   29.3330 O.3   312  SER312     -0.2179
    114  N        -31.8190   13.3330   32.4900 N.am  313  GLY313     -0.1939
    115  CA       -31.2430   12.0220   32.7370 C.3   313  GLY313      0.2014
    116  C        -32.2090   10.8520   32.6750 C.2   313  GLY313      0.2639
    117  O        -33.1630   10.8540   31.8980 O.2   313  GLY313     -0.2714
    118  N        -31.9510    9.8470   33.5060 N.am  314  GLY314     -0.1939
    119  CA       -32.7810    8.6560   33.5460 C.3   314  GLY314      0.2014
    120  C        -31.9010    7.4330   33.7280 C.2   314  GLY314      0.2638
    121  O        -30.6920    7.5070   33.5080 O.2   314  GLY314     -0.2714
    122  N        -32.4870    6.3060   34.1210 N.am  315  GLU315     -0.1977
    123  CA       -31.6960    5.0970   34.3260 C.3   315  GLU315      0.1602
    124  C        -31.8570    4.0140   33.2640 C.2   315  GLU315      0.2287
    125  O        -32.9000    3.8930   32.6240 O.2   315  GLU315     -0.2864
    126  CB       -31.9870    4.4910   35.7120 C.3   315  GLU315      0.0415
    127  CG       -31.1970    3.1970   36.0010 C.3   315  GLU315      0.1163
    128  CD       -31.0780    2.8680   37.4860 C.2   315  GLU315      0.3649
    129  OE1      -32.1150    2.6240   38.1350 O.co2 315  GLU315     -0.2457
    130  OE2      -29.9400    2.8510   38.0020 O.co2 315  GLU315     -0.2457
@<TRIPOS>BOND
     1    65    64    2
     2    64    63    1
     3    96    95    2
     4    95    94    1
     5    63    62    1
     6    63    66    1
     7   113   112    1
     8    73    74    1
     9    94    93    1
    10    94    97    1
    11   103   104    1
    12    80    78   am
    13    92    91    2
    14    66    67    1
    15    84    83    2
    16    74    75    1
    17    74    77    1
    18    86    85    1
    19    86    87    1
    20    79    78    2
    21    78    77    1
    22    93    91   am
    23    97    98    1
    24    81    75   am
    25    81    82    1
    26    91    90    1
    27   112   109    1
    28    83    85   am
    29    83    82    1
    30    67    68    1
    31    43    42    2
    32   104   105    1
    33   104   107    1
    34    87    89   am
    35    87    88    2
    36    89    90    1
    37    59    58    2
    38    75    76    2
    39   105   106    2
    40   105   108   am
    41   108   109    1
    42    46    44    1
    43    58    57    1
    44   111   110    2
    45   109   110    1
    46    98    99   ar
    47    98   100   ar
    48    99   101   ar
    49   117   116    2
    50   110   114   am
    51    42    41    1
    52    68    69    1
    53    69    70    2
    54   114   115    1
    55   125   124    2
    56   116   115    1
    57   116   118   am
    58    56    57    1
    59    57    60    1
    60    41    44    1
    61    41    40    1
    62    44    45    1
    63   100   102   ar
    64   101   102   ar
    65    19    18    1
    66   124   123    1
    67   118   119    1
    68   121   120    2
    69   119   120    1
    70    70    71    1
    71    70    72    1
    72   120   122   am
    73    60    61    1
    74   122   123    1
    75   123   126    1
    76    18    17    1
    77    50    49    2
    78    49    48    1
    79    17    16    1
    80   126   127    1
    81    47    48    1
    82   127   128    1
    83    48    51    1
    84    55    54    1
    85    54    53    1
    86    16    15    1
    87    51    52    1
    88   128   130   ar
    89   128   129   ar
    90    52    53    1
    91    26    25    1
    92    26    27    1
    93    25    24    1
    94    15    12    1
    95    29    28    1
    96    27    28    2
    97    28    30    1
    98    33    34    2
    99    33    32    1
   100    11    12    1
   101    12    13    1
   102    24    21    1
   103    20    13   am
   104    20    21    1
   105    13    14    2
   106    21    22    1
   107    38    37   ar
   108    32    31    1
   109    32    35    1
   110    37    36    1
   111    37    39   ar
   112    10     8   ar
   113    10     9   ar
   114     8     6   ar
   115    36    35    1
   116     9     7   ar
   117    22    23    2
   118     6     7   ar
   119     6     5    1
   120     5     2    1
   121     2     1    1
   122     2     3    1
   123     3     4    2
