@<TRIPOS>MOLECULE
tmp/3w67A01.pdb
 176 167 0 0 0
SMALL
GASTEIGER

@<TRIPOS>ATOM
      1  N         -0.1350   -2.8390   16.0160 N.3    35  ARG35      -0.1231
      2  CA         0.1750   -4.0060   16.8120 C.3    35  ARG35       0.1694
      3  C         -0.7760   -4.2270   18.0050 C.2    35  ARG35       0.2592
      4  O         -0.3900   -4.8000   19.0330 O.2    35  ARG35      -0.2718
      5  CB         1.6470   -4.0020   17.2090 C.3    35  ARG35       0.0321
      6  CG         2.6120   -4.1420   16.0390 C.3    35  ARG35       0.0489
      7  CD         2.4950   -5.4910   15.3200 C.3    35  ARG35       0.2205
      8  NE         3.4290   -5.5860   14.1980 N.pl3  35  ARG35      -0.0865
      9  CZ         3.1310   -5.3690   12.9110 C.cat  35  ARG35       0.5346
     10  NH1        1.9120   -5.0240   12.5230 N.pl3  35  ARG35       0.1354
     11  NH2        4.0770   -5.4840   11.9950 N.pl3  35  ARG35       0.1354
     12  N         -2.0190   -3.7750   17.8370 N.am   36  ASP36      -0.1974
     13  CA        -3.1100   -3.9960   18.7930 C.3    36  ASP36       0.1709
     14  C         -2.7600   -3.5300   20.2350 C.2    36  ASP36       0.2293
     15  O         -3.0990   -4.1760   21.2250 O.2    36  ASP36      -0.2864
     16  CB        -3.5820   -5.4630   18.7490 C.3    36  ASP36       0.1436
     17  CG        -4.1950   -5.8760   17.3920 C.2    36  ASP36       0.3671
     18  OD1       -4.3720   -5.0510   16.4690 O.co2  36  ASP36      -0.2456
     19  OD2       -4.5160   -7.0670   17.2620 O.co2  36  ASP36      -0.2456
     20  N          5.7080   -4.8360   20.7110 N.3    41  LEU41      -0.1245
     21  CA         5.6280   -5.0680   19.2950 C.3    41  LEU41       0.1561
     22  C          5.5790   -3.7380   18.5430 C.2    41  LEU41       0.2260
     23  O          6.3280   -3.5420   17.5840 O.2    41  LEU41      -0.2867
     24  CB         4.4700   -6.0090   18.9730 C.3    41  LEU41       0.0270
     25  CG         4.6480   -7.3830   19.6560 C.3    41  LEU41       0.0019
     26  CD1        3.4850   -8.3010   19.3800 C.3    41  LEU41       0.0001
     27  CD2        5.9450   -8.0530   19.2720 C.3    41  LEU41       0.0001
     28  N         11.2400   -5.1030   -1.1970 N.3   155  ILE155     -0.1231
     29  CA         9.8220   -5.4990   -1.1290 C.3   155  ILE155      0.1692
     30  C          9.5700   -6.3220    0.1410 C.2   155  ILE155      0.2591
     31  O          8.6650   -6.0000    0.9220 O.2   155  ILE155     -0.2718
     32  CB         9.3730   -6.3340   -2.3880 C.3   155  ILE155      0.0266
     33  CG1        9.1420   -5.4220   -3.6160 C.3   155  ILE155      0.0019
     34  CG2        8.1600   -7.2550   -2.0660 C.3   155  ILE155      0.0020
     35  CD1        8.7290   -6.1580   -4.9680 C.3   155  ILE155      0.0001
     36  N         10.3660   -7.3760    0.3350 N.am  156  ALA156     -0.1980
     37  CA        10.1840   -8.2970    1.4470 C.3   156  ALA156      0.1597
     38  C         10.4180   -7.5710    2.7780 C.2   156  ALA156      0.2287
     39  O          9.6860   -7.7840    3.7680 O.2   156  ALA156     -0.2864
     40  CB        11.1370   -9.4860    1.3110 C.3   156  ALA156      0.0319
     41  N          7.6130   -5.3440    4.0340 N.3   159  LEU159     -0.1231
     42  CA         6.5330   -6.2080    4.4640 C.3   159  LEU159      0.1693
     43  C          6.9090   -6.9590    5.7650 C.2   159  LEU159      0.2593
     44  O          6.0300   -7.4800    6.4520 O.2   159  LEU159     -0.2718
     45  CB         6.1540   -7.1840    3.3390 C.3   159  LEU159      0.0284
     46  CG         5.5010   -6.6310    2.0570 C.3   159  LEU159      0.0019
     47  CD1        5.3490   -7.7100    0.9780 C.3   159  LEU159      0.0001
     48  CD2        4.1260   -6.0100    2.3180 C.3   159  LEU159      0.0001
     49  N          8.1950   -7.0220    6.1130 N.am  160  THR160     -0.1939
     50  CA         8.5560   -7.7800    7.3090 C.3   160  THR160      0.2028
     51  C          8.6410   -6.8760    8.5140 C.2   160  THR160      0.2642
     52  O          9.7260   -6.3960    8.8760 O.2   160  THR160     -0.2714
     53  CB         9.8710   -8.5920    7.1850 C.3   160  THR160      0.1808
     54  OG1        9.8740   -9.3290    5.9510 O.3   160  THR160     -0.2208
     55  CG2       10.0030   -9.5590    8.3700 C.3   160  THR160      0.0379
     56  N          7.4790   -6.6360    9.1170 N.am  161  ASP161     -0.1971
     57  CA         7.3970   -5.8790   10.3420 C.3   161  ASP161      0.1709
     58  C          8.1300   -4.5390   10.2320 C.2   161  ASP161      0.2293
     59  O          8.7660   -4.1060   11.1860 O.2   161  ASP161     -0.2864
     60  CB         7.9680   -6.7080   11.4940 C.3   161  ASP161      0.1436
     61  CG         7.4250   -6.2890   12.8370 C.2   161  ASP161      0.3671
     62  OD1        8.1080   -6.5380   13.8630 O.co2 161  ASP161     -0.2456
     63  OD2        6.3260   -5.7010   12.8720 O.co2 161  ASP161     -0.2456
     64  N          1.2930   -0.8530    8.8200 N.3   165  LEU165     -0.1231
     65  CA         0.0370   -1.2190    8.1810 C.3   165  LEU165      0.1693
     66  C         -0.1470   -2.7150    8.2000 C.2   165  LEU165      0.2592
     67  O          0.7160   -3.4750    7.7470 O.2   165  LEU165     -0.2718
     68  CB        -0.0430   -0.7020    6.7540 C.3   165  LEU165      0.0284
     69  CG        -0.8810    0.5640    6.5470 C.3   165  LEU165      0.0019
     70  CD1       -0.8260    0.9830    5.0940 C.3   165  LEU165      0.0001
     71  CD2       -2.3080    0.3520    6.9620 C.3   165  LEU165      0.0001
     72  N         -1.2720   -3.1170    8.7770 N.am  166  LYS166     -0.1966
     73  CA        -1.7020   -4.5020    8.8220 C.3   166  LYS166      0.1728
     74  C         -2.0100   -4.9790    7.4050 C.2   166  LYS166      0.2616
     75  O         -2.8700   -4.4160    6.7310 O.2   166  LYS166     -0.2715
     76  CB        -2.9540   -4.6290    9.7090 C.3   166  LYS166      0.0311
     77  CG        -2.7250   -4.3960   11.1790 C.3   166  LYS166      0.0038
     78  CD        -4.0420   -4.5040   11.9270 C.3   166  LYS166      0.0206
     79  CE        -3.8760   -4.1480   13.3720 C.3   166  LYS166      0.1093
     80  NZ        -3.0750   -5.1550   14.1240 N.3   166  LYS166     -0.1314
     81  N         -1.2880   -5.9950    6.9550 N.am  167  VAL167     -0.1963
     82  CA        -1.5160   -6.5920    5.6570 C.3   167  VAL167      0.1727
     83  C         -2.5290   -7.7090    5.7840 C.2   167  VAL167      0.2616
     84  O         -2.1750   -8.8340    6.1790 O.2   167  VAL167     -0.2715
     85  CB        -0.2170   -7.1110    5.0480 C.3   167  VAL167      0.0290
     86  CG1       -0.4830   -7.8350    3.7210 C.3   167  VAL167      0.0023
     87  CG2        0.7140   -5.9460    4.8010 C.3   167  VAL167      0.0023
     88  N         -3.7840   -7.4160    5.4480 N.am  168  ARG168     -0.1977
     89  CA        -4.8230   -8.4450    5.5940 C.3   168  ARG168      0.1597
     90  C         -5.0490   -9.3830    4.3860 C.2   168  ARG168      0.2287
     91  O         -5.6680  -10.4210    4.5440 O.2   168  ARG168     -0.2864
     92  CB        -6.1550   -7.8570    6.0980 C.3   168  ARG168      0.0334
     93  CG        -6.1090   -7.1680    7.4600 C.3   168  ARG168      0.0492
     94  CD        -5.8000   -8.1190    8.5930 C.3   168  ARG168      0.2205
     95  NE        -6.9020   -8.1660    9.5200 N.pl3 168  ARG168     -0.0865
     96  CZ        -6.9170   -7.5830   10.7160 C.cat 168  ARG168      0.5346
     97  NH1       -5.8600   -6.9420   11.1830 N.pl3 168  ARG168      0.1354
     98  NH2       -7.9870   -7.6640   11.4700 N.pl3 168  ARG168      0.1354
     99  N         -3.2140  -10.4240    0.1710 N.3   170  ILE170     -0.1245
    100  CA        -2.5930  -10.1760   -1.1200 C.3   170  ILE170      0.1561
    101  C         -3.3380  -11.0540   -2.1570 C.2   170  ILE170      0.2260
    102  O         -3.3420  -12.3090   -2.0340 O.2   170  ILE170     -0.2867
    103  CB        -1.0630  -10.5090   -1.1040 C.3   170  ILE170      0.0252
    104  CG1       -0.2900   -9.6740   -0.0720 C.3   170  ILE170      0.0019
    105  CG2       -0.4470  -10.3490   -2.4620 C.3   170  ILE170      0.0019
    106  CD1       -0.5720   -8.1830   -0.1630 C.3   170  ILE170      0.0001
    107  N          9.0710  -19.7430   -1.9230 N.3   186  ILE186     -0.1245
    108  CA         8.9750  -18.7440   -0.8730 C.3   186  ILE186      0.1561
    109  C          8.2650  -19.2790    0.3810 C.2   186  ILE186      0.2260
    110  O          8.6160  -18.9090    1.4970 O.2   186  ILE186     -0.2867
    111  CB         8.2450  -17.4940   -1.4410 C.3   186  ILE186      0.0252
    112  CG1        9.1980  -16.7030   -2.3360 C.3   186  ILE186      0.0019
    113  CG2        7.6860  -16.6000   -0.3590 C.3   186  ILE186      0.0019
    114  CD1        8.4980  -15.5280   -3.0550 C.3   186  ILE186      0.0001
    115  N          9.5000  -19.9660    4.0180 N.3   189  PHE189     -0.1227
    116  CA        10.1050  -18.7720    4.6260 C.3   189  PHE189      0.1736
    117  C          9.0340  -17.8420    5.1510 C.2   189  PHE189      0.2595
    118  O          9.3350  -16.8460    5.7920 O.2   189  PHE189     -0.2718
    119  CB        10.9770  -18.0120    3.6010 C.3   189  PHE189      0.0547
    120  CG        12.1960  -18.7810    3.1610 C.ar  189  PHE189     -0.0202
    121  CD1       13.4030  -18.6370    3.8350 C.ar  189  PHE189     -0.0042
    122  CD2       12.1200  -19.6740    2.0960 C.ar  189  PHE189     -0.0042
    123  CE1       14.5110  -19.3670    3.4550 C.ar  189  PHE189     -0.0003
    124  CE2       13.2280  -20.4160    1.7030 C.ar  189  PHE189     -0.0003
    125  CZ        14.4270  -20.2630    2.3850 C.ar  189  PHE189     -0.0000
    126  N          7.7820  -18.1520    4.8530 N.am  190  LEU190     -0.1966
    127  CA         6.6660  -17.3670    5.3410 C.3   190  LEU190      0.1728
    128  C          6.0110  -18.0570    6.5230 C.2   190  LEU190      0.2616
    129  O          6.0150  -19.2930    6.6450 O.2   190  LEU190     -0.2715
    130  CB         5.6130  -17.1800    4.2460 C.3   190  LEU190      0.0311
    131  CG         5.9750  -16.5510    2.9030 C.3   190  LEU190      0.0022
    132  CD1        4.7650  -16.4870    1.9770 C.3   190  LEU190      0.0001
    133  CD2        6.5550  -15.1720    3.0910 C.3   190  LEU190      0.0001
    134  N          5.4220  -17.2370    7.3800 N.am  191  THR191     -0.1951
    135  CA         4.5760  -17.6840    8.4830 C.3   191  THR191      0.1897
    136  C          3.3630  -18.4400    7.9750 C.2   191  THR191      0.2313
    137  O          3.0210  -18.3850    6.7860 O.2   191  THR191     -0.2863
    138  CB         4.0490  -16.4850    9.2610 C.3   191  THR191      0.1794
    139  OG1        4.5800  -15.2740    8.6940 O.3   191  THR191     -0.2208
    140  CG2        4.4550  -16.6100   10.7020 C.3   191  THR191      0.0378
    141  N          0.3290  -17.7270    8.9490 N.3   193  LYS193     -0.1231
    142  CA        -0.6940  -16.6750    8.8930 C.3   193  LYS193      0.1693
    143  C         -0.7170  -15.8870    7.5940 C.2   193  LYS193      0.2591
    144  O         -1.7700  -15.7620    6.9610 O.2   193  LYS193     -0.2718
    145  CB        -0.4870  -15.7170   10.0620 C.3   193  LYS193      0.0285
    146  CG        -1.5810  -14.7270   10.3050 C.3   193  LYS193      0.0035
    147  CD        -1.3210  -14.0410   11.6290 C.3   193  LYS193      0.0206
    148  CE        -2.5720  -13.4570   12.1980 C.3   193  LYS193      0.1093
    149  NZ        -2.1790  -12.6060   13.3340 N.3   193  LYS193     -0.1314
    150  N          0.4370  -15.3600    7.1930 N.am  194  ILE194     -0.1980
    151  CA         0.5370  -14.6530    5.9280 C.3   194  ILE194      0.1595
    152  C          0.2600  -15.5600    4.7090 C.2   194  ILE194      0.2287
    153  O         -0.1820  -15.0830    3.6550 O.2   194  ILE194     -0.2864
    154  CB         1.8840  -13.8790    5.8000 C.3   194  ILE194      0.0276
    155  CG1        1.6650  -12.5180    5.1250 C.3   194  ILE194      0.0022
    156  CG2        2.9680  -14.6970    5.1070 C.3   194  ILE194      0.0022
    157  CD1        1.0320  -11.4810    6.0880 C.3   194  ILE194      0.0001
    158  N         -3.1490  -15.5990    3.7270 N.3   197  ARG197     -0.1231
    159  CA        -3.5920  -14.3030    3.2390 C.3   197  ARG197      0.1694
    160  C         -3.1360  -14.0060    1.8120 C.2   197  ARG197      0.2591
    161  O         -3.3940  -12.9100    1.2780 O.2   197  ARG197     -0.2718
    162  CB        -3.0810  -13.2150    4.1700 C.3   197  ARG197      0.0321
    163  CG        -3.7890  -13.2200    5.5000 C.3   197  ARG197      0.0489
    164  CD        -3.2660  -12.1200    6.4120 C.3   197  ARG197      0.2205
    165  NE        -3.9120  -12.1870    7.7140 N.pl3 197  ARG197     -0.0865
    166  CZ        -3.6680  -11.3400    8.7140 C.cat 197  ARG197      0.5346
    167  NH1       -2.8000  -10.3480    8.5490 N.pl3 197  ARG197      0.1354
    168  NH2       -4.3040  -11.4720    9.8800 N.pl3 197  ARG197      0.1354
    169  N         -2.4380  -14.9600    1.2040 N.am  198  ILE198     -0.1980
    170  CA        -2.0080  -14.8030   -0.1770 C.3   198  ILE198      0.1595
    171  C         -2.8950  -15.6570   -1.0620 C.2   198  ILE198      0.2287
    172  O         -3.0910  -16.8330   -0.8040 O.2   198  ILE198     -0.2864
    173  CB        -0.5350  -15.1050   -0.3550 C.3   198  ILE198      0.0276
    174  CG1        0.2760  -14.1830    0.5760 C.3   198  ILE198      0.0022
    175  CG2       -0.1230  -14.9000   -1.8070 C.3   198  ILE198      0.0022
    176  CD1        1.7720  -14.5510    0.7100 C.3   198  ILE198      0.0001
@<TRIPOS>BOND
     1    35    33    1
     2    33    32    1
     3   114   112    1
     4   105   103    1
     5    32    34    1
     6    32    29    1
     7   112   111    1
     8   101   102    2
     9   101   100    1
    10   107   108    1
    11   175   173    1
    12   111   108    1
    13   111   113    1
    14    28    29    1
    15    29    30    1
    16   100   103    1
    17   100    99    1
    18   103   104    1
    19   171   172    2
    20   171   170    1
    21   108   109    1
    22   173   170    1
    23   173   174    1
    24   170   169    1
    25   106   104    1
    26    30    36   am
    27    30    31    2
    28    36    37    1
    29   109   110    2
    30   174   176    1
    31    47    46    1
    32   169   160   am
    33   161   160    2
    34    40    37    1
    35    37    38    1
    36   124   122   ar
    37   124   125   ar
    38   160   159    1
    39   132   131    1
    40    46    48    1
    41    46    45    1
    42   122   120   ar
    43   125   123   ar
    44    38    39    2
    45   131   133    1
    46   131   130    1
    47   120   119    1
    48   120   121   ar
    49   159   158    1
    50   159   162    1
    51    45    42    1
    52   123   121   ar
    53   119   116    1
    54   153   152    2
    55    86    85    1
    56   115   116    1
    57    41    42    1
    58   162   163    1
    59   130   127    1
    60    90    91    2
    61    90    89    1
    62    42    43    1
    63   116   117    1
    64   152   151    1
    65    87    85    1
    66   126   117   am
    67   126   127    1
    68    85    82    1
    69    70    69    1
    70   156   154    1
    71   155   154    1
    72   155   157    1
    73   117   118    2
    74   127   128    1
    75    88    89    1
    76    88    83   am
    77   163   164    1
    78    89    92    1
    79    82    83    1
    80    82    81    1
    81    43    49   am
    82    43    44    2
    83    83    84    2
    84   154   151    1
    85   151   150    1
    86    54    53    1
    87    92    93    1
    88    49    50    1
    89   164   165    1
    90   128   129    2
    91   128   134   am
    92    69    68    1
    93    69    71    1
    94    75    74    2
    95    68    65    1
    96   137   136    2
    97    81    74   am
    98   144   143    2
    99    53    50    1
   100    53    55    1
   101   150   143   am
   102    50    51    1
   103   134   135    1
   104    74    73    1
   105    93    94    1
   106   143   142    1
   107   165   166    2
   108    67    66    2
   109   136   135    1
   110    65    66    1
   111    65    64    1
   112    66    72   am
   113   135   138    1
   114    51    52    2
   115    51    56   am
   116   167   166    1
   117    94    95    1
   118   139   138    1
   119   166   168    1
   120    72    73    1
   121    73    76    1
   122   142   141    1
   123   142   145    1
   124    56    57    1
   125   138   140    1
   126    95    96    2
   127    76    77    1
   128   145   146    1
   129    58    57    1
   130    58    59    2
   131   146   147    1
   132    57    60    1
   133    96    97    1
   134    96    98    1
   135    77    78    1
   136    60    61    1
   137   147   148    1
   138    78    79    1
   139    11     9    1
   140   148   149    1
   141    10     9    1
   142    61    63   ar
   143    61    62   ar
   144     9     8    2
   145    79    80    1
   146     8     7    1
   147     7     6    1
   148     1     2    1
   149     6     5    1
   150    18    17   ar
   151     2     5    1
   152     2     3    1
   153    19    17   ar
   154    17    16    1
   155    23    22    2
   156    12     3   am
   157    12    13    1
   158     3     4    2
   159    22    21    1
   160    16    13    1
   161    13    14    1
   162    24    21    1
   163    24    25    1
   164    27    25    1
   165    21    20    1
   166    26    25    1
   167    14    15    2
