@<TRIPOS>MOLECULE
tmp/3w68B02.pdb
 86 81 0 0 0
SMALL
GASTEIGER

@<TRIPOS>ATOM
      1  N         31.0750  -18.0000   21.3720 N.3    36  ALA36      -0.1231
      2  CA        30.6190  -17.8040   19.9910 C.3    36  ALA36       0.1694
      3  C         30.2610  -16.3440   19.7090 C.2    36  ALA36       0.2592
      4  O         30.3480  -15.8970   18.5740 O.2    36  ALA36      -0.2718
      5  CB        29.4560  -18.7310   19.6440 C.3    36  ALA36       0.0304
      6  N         29.8770  -15.6050   20.7480 N.am   37  ARG37      -0.1966
      7  CA        29.5530  -14.1870   20.5900 C.3    37  ARG37       0.1729
      8  C         30.5500  -13.2730   21.3130 C.2    37  ARG37       0.2616
      9  O         30.2180  -12.1550   21.7030 O.2    37  ARG37      -0.2715
     10  CB        28.1020  -13.9270   21.0160 C.3    37  ARG37       0.0348
     11  CG        27.0630  -14.6110   20.1130 C.3    37  ARG37       0.0492
     12  CD        27.1880  -14.1460   18.6720 C.3    37  ARG37       0.2205
     13  NE        26.2430  -14.7950   17.7580 N.pl3  37  ARG37      -0.0865
     14  CZ        26.5390  -15.8290   16.9620 C.cat  37  ARG37       0.5346
     15  NH1       27.7560  -16.3890   16.9660 N.pl3  37  ARG37       0.1354
     16  NH2       25.6190  -16.3080   16.1460 N.pl3  37  ARG37       0.1354
     17  N         31.7750  -13.7690   21.4820 N.am   38  ASP38      -0.1971
     18  CA        32.8510  -13.0610   22.1950 C.3    38  ASP38       0.1709
     19  C         32.4260  -12.4040   23.5050 C.2    38  ASP38       0.2293
     20  O         32.7710  -11.2660   23.7560 O.2    38  ASP38      -0.2864
     21  CB        33.5120  -12.0230   21.2890 C.3    38  ASP38       0.1436
     22  CG        33.8220  -12.5740   19.9010 C.2    38  ASP38       0.3671
     23  OD1       34.5440  -13.5930   19.7960 O.co2  38  ASP38      -0.2456
     24  OD2       33.3450  -11.9810   18.9160 O.co2  38  ASP38      -0.2456
     25  N         31.0620  -20.1550   15.3270 N.3   168  LYS168     -0.1231
     26  CA        31.3290  -19.0910   14.3630 C.3   168  LYS168      0.1693
     27  C         31.6170  -19.7020   12.9980 C.2   168  LYS168      0.2592
     28  O         32.3900  -20.6540   12.9130 O.2   168  LYS168     -0.2718
     29  CB        32.5540  -18.2990   14.8120 C.3   168  LYS168      0.0285
     30  CG        32.3260  -17.5150   16.1100 C.3   168  LYS168      0.0035
     31  CD        33.6830  -16.9880   16.5900 C.3   168  LYS168      0.0206
     32  CE        33.5070  -16.0000   17.7190 C.3   168  LYS168      0.1093
     33  NZ        34.8450  -15.5760   18.1230 N.3   168  LYS168     -0.1314
     34  N         30.9940  -19.1730   11.9450 N.am  169  VAL169     -0.1966
     35  CA        31.2860  -19.6510   10.5820 C.3   169  VAL169      0.1727
     36  C         32.2080  -18.6150    9.9410 C.2   169  VAL169      0.2616
     37  O         31.7900  -17.4920    9.6400 O.2   169  VAL169     -0.2715
     38  CB        30.0210  -19.8790    9.7300 C.3   169  VAL169      0.0290
     39  CG1       30.4100  -20.3250    8.2870 C.3   169  VAL169      0.0023
     40  CG2       29.1750  -20.9560   10.3700 C.3   169  VAL169      0.0023
     41  N         33.4710  -18.9930    9.7810 N.am  170  ARG170     -0.1977
     42  CA        34.4850  -18.0560    9.3540 C.3   170  ARG170      0.1597
     43  C         34.6670  -18.1150    7.8540 C.2   170  ARG170      0.2287
     44  O         35.1890  -17.1830    7.2380 O.2   170  ARG170     -0.2864
     45  CB        35.7950  -18.3220   10.1330 C.3   170  ARG170      0.0334
     46  CG        35.6990  -17.8860   11.6340 C.3   170  ARG170      0.0492
     47  CD        35.9080  -16.3600   11.7510 C.3   170  ARG170      0.2205
     48  NE        35.6980  -15.7600   13.0830 N.pl3 170  ARG170     -0.0865
     49  CZ        36.6520  -15.5310   13.9960 C.cat 170  ARG170      0.5346
     50  NH1       37.9170  -15.8820   13.7730 N.pl3 170  ARG170      0.1354
     51  NH2       36.3460  -14.9640   15.1600 N.pl3 170  ARG170      0.1354
     52  N         24.8600   -9.4970    5.2860 N.3   193  THR193     -0.1218
     53  CA        25.7600   -8.3490    5.4630 C.3   193  THR193      0.1862
     54  C         26.9850   -8.5120    4.5710 C.2   193  THR193      0.2287
     55  O         27.2690   -9.6190    4.0990 O.2   193  THR193     -0.2866
     56  CB        26.2330   -8.1930    6.9000 C.3   193  THR193      0.1770
     57  OG1       26.8990   -9.3960    7.3110 O.3   193  THR193     -0.2211
     58  CG2       25.0450   -7.8650    7.8290 C.3   193  THR193      0.0375
     59  N         29.9630   -8.4140    5.5590 N.3   195  LYS195     -0.1231
     60  CA        30.8820   -9.2430    6.3530 C.3   195  LYS195      0.1693
     61  C         30.7070  -10.7280    6.0740 C.2   195  LYS195      0.2591
     62  O         31.6860  -11.4780    5.9620 O.2   195  LYS195     -0.2718
     63  CB        30.6200   -8.9900    7.8400 C.3   195  LYS195      0.0285
     64  CG        31.7870   -9.2760    8.7550 C.3   195  LYS195      0.0035
     65  CD        31.7550   -8.3180    9.9290 C.3   195  LYS195      0.0206
     66  CE        33.1430   -7.7450   10.1970 C.3   195  LYS195      0.1093
     67  NZ        33.0770   -6.5910   11.1300 N.3   195  LYS195     -0.1314
     68  N         29.4490  -11.1480    5.9770 N.am  196  ILE196     -0.1980
     69  CA        29.1050  -12.5320    5.7240 C.3   196  ILE196      0.1595
     70  C         29.3000  -12.9070    4.2410 C.2   196  ILE196      0.2287
     71  O         29.6870  -14.0460    3.9100 O.2   196  ILE196     -0.2864
     72  CB        27.6420  -12.8110    6.2020 C.3   196  ILE196      0.0276
     73  CG1       27.5840  -12.7430    7.7340 C.3   196  ILE196      0.0022
     74  CG2       27.1240  -14.1540    5.7310 C.3   196  ILE196      0.0022
     75  CD1       28.6550  -13.6220    8.4430 C.3   196  ILE196      0.0001
     76  N         32.5930  -13.9320    3.2980 N.3   199  ARG199     -0.1245
     77  CA        33.0890  -15.2360    3.8110 C.3   199  ARG199      0.1563
     78  C         32.6460  -16.4110    2.9610 C.2   199  ARG199      0.2260
     79  O         32.8680  -17.5610    3.3250 O.2   199  ARG199     -0.2867
     80  CB        32.6340  -15.4770    5.2500 C.3   199  ARG199      0.0307
     81  CG        33.2580  -14.4550    6.2190 C.3   199  ARG199      0.0489
     82  CD        32.6970  -14.6720    7.6050 C.3   199  ARG199      0.2205
     83  NE        33.2130  -13.6640    8.5240 N.pl3 199  ARG199     -0.0865
     84  CZ        33.0810  -13.7210    9.8450 C.cat 199  ARG199      0.5346
     85  NH1       32.4750  -14.7630   10.4250 N.pl3 199  ARG199      0.1354
     86  NH2       33.5620  -12.7370   10.5850 N.pl3 199  ARG199      0.1354
@<TRIPOS>BOND
     1    78    79    2
     2    78    77    1
     3    76    77    1
     4    77    80    1
     5    71    70    2
     6    55    54    2
     7    70    69    1
     8    54    53    1
     9    80    81    1
    10    52    53    1
    11    53    56    1
    12    59    60    1
    13    69    68    1
    14    69    72    1
    15    74    72    1
    16    62    61    2
    17    68    61   am
    18    61    60    1
    19    72    73    1
    20    81    82    1
    21    60    63    1
    22    56    57    1
    23    56    58    1
    24    44    43    2
    25    82    83    1
    26    73    75    1
    27    63    64    1
    28    43    42    1
    29    39    38    1
    30    83    84    2
    31    64    65    1
    32    42    41    1
    33    42    45    1
    34    37    36    2
    35    38    40    1
    36    38    35    1
    37    41    36   am
    38    84    85    1
    39    84    86    1
    40    65    66    1
    41    36    35    1
    42    45    46    1
    43    66    67    1
    44    35    34    1
    45    46    47    1
    46    47    48    1
    47    34    27   am
    48    28    27    2
    49    27    26    1
    50    48    49    2
    51    50    49    1
    52    49    51    1
    53    26    29    1
    54    26    25    1
    55    29    30    1
    56    30    31    1
    57    16    14    1
    58    31    32    1
    59    14    15    1
    60    14    13    2
    61    32    33    1
    62    13    12    1
    63     4     3    2
    64    12    11    1
    65    24    22   ar
    66     5     2    1
    67     3     2    1
    68     3     6   am
    69    23    22   ar
    70    22    21    1
    71     2     1    1
    72    11    10    1
    73     7     6    1
    74     7    10    1
    75     7     8    1
    76    21    18    1
    77     8    17   am
    78     8     9    2
    79    17    18    1
    80    18    19    1
    81    19    20    2
