@<TRIPOS>MOLECULE
tmp/3w68C00.pdb
 233 219 0 0 0
SMALL
GASTEIGER

@<TRIPOS>ATOM
      1  N         -1.4660  -48.0720  -18.7610 N.3    75  TYR75      -0.1241
      2  CA        -0.6780  -46.9280  -19.2030 C.3    75  TYR75       0.1605
      3  C         -1.1790  -46.2940  -20.5210 C.2    75  TYR75       0.2264
      4  O         -1.1020  -45.0690  -20.7060 O.2    75  TYR75      -0.2867
      5  CB         0.7950  -47.3190  -19.3120 C.3    75  TYR75       0.0534
      6  CG         1.6020  -46.2660  -20.0000 C.ar   75  TYR75      -0.0201
      7  CD1        1.8120  -45.0210  -19.3890 C.ar   75  TYR75      -0.0009
      8  CD2        2.1530  -46.4970  -21.2710 C.ar   75  TYR75      -0.0009
      9  CE1        2.5150  -44.0290  -20.0300 C.ar   75  TYR75       0.0417
     10  CE2        2.8770  -45.5060  -21.9240 C.ar   75  TYR75       0.0417
     11  CZ         3.0460  -44.2750  -21.3090 C.ar   75  TYR75       0.1957
     12  OH         3.7470  -43.2720  -21.9460 O.3    75  TYR75      -0.2866
     13  N         -4.3220  -41.0720  -29.3720 N.3    90  LEU90      -0.1245
     14  CA        -3.6320  -41.9550  -28.4160 C.3    90  LEU90       0.1561
     15  C         -3.6690  -41.3220  -27.0260 C.2    90  LEU90       0.2260
     16  O         -3.5730  -40.1000  -26.8900 O.2    90  LEU90      -0.2867
     17  CB        -2.1630  -42.1790  -28.8210 C.3    90  LEU90       0.0270
     18  CG        -1.7630  -42.2950  -30.3120 C.3    90  LEU90       0.0019
     19  CD1       -0.2860  -42.5720  -30.5200 C.3    90  LEU90       0.0001
     20  CD2       -2.5910  -43.2840  -31.0790 C.3    90  LEU90       0.0001
     21  N         -2.0420  -41.6370  -23.1050 N.3    92  TYR92      -0.1241
     22  CA        -1.0160  -42.0890  -22.1980 C.3    92  TYR92       0.1605
     23  C         -1.3270  -41.5490  -20.8040 C.2    92  TYR92       0.2264
     24  O         -1.6060  -40.3560  -20.6460 O.2    92  TYR92      -0.2867
     25  CB         0.3340  -41.5570  -22.6640 C.3    92  TYR92       0.0534
     26  CG         0.7600  -42.0210  -24.0430 C.ar   92  TYR92      -0.0201
     27  CD1        1.2970  -43.2860  -24.2270 C.ar   92  TYR92      -0.0009
     28  CD2        0.6270  -41.1920  -25.1650 C.ar   92  TYR92      -0.0009
     29  CE1        1.7180  -43.7230  -25.4700 C.ar   92  TYR92       0.0417
     30  CE2        1.0450  -41.6330  -26.4520 C.ar   92  TYR92       0.0417
     31  CZ         1.5830  -42.9040  -26.5780 C.ar   92  TYR92       0.1957
     32  OH         2.0230  -43.3930  -27.7910 O.3    92  TYR92      -0.2866
     33  N          0.3600  -41.3800  -17.1710 N.3    94  ILE94      -0.1245
     34  CA         1.5520  -41.4130  -16.3360 C.3    94  ILE94       0.1561
     35  C          1.3180  -42.1170  -14.9940 C.2    94  ILE94       0.2260
     36  O          2.2060  -42.8030  -14.5110 O.2    94  ILE94      -0.2867
     37  CB         2.0860  -39.9460  -16.1900 C.3    94  ILE94       0.0252
     38  CG1        3.0670  -39.6210  -17.3290 C.3    94  ILE94       0.0019
     39  CG2        2.5640  -39.6090  -14.8020 C.3    94  ILE94       0.0019
     40  CD1        4.4550  -40.1310  -17.1580 C.3    94  ILE94       0.0001
     41  N          2.2930  -45.7130  -15.1070 N.3    97  TRP97      -0.1241
     42  CA         3.6680  -46.0550  -15.3740 C.3    97  TRP97       0.1605
     43  C          4.3930  -46.1360  -14.0300 C.2    97  TRP97       0.2264
     44  O          4.6130  -45.1330  -13.3710 O.2    97  TRP97      -0.2867
     45  CB         4.3130  -45.0390  -16.3200 C.3    97  TRP97       0.0550
     46  CG         5.8300  -45.0690  -16.3530 C.ar   97  TRP97       0.0003
     47  CD1        6.6430  -46.1300  -16.0750 C.ar   97  TRP97       0.0946
     48  CD2        6.6930  -43.9910  -16.7280 C.ar   97  TRP97       0.0152
     49  NE1        7.9610  -45.7670  -16.2140 N.ar   97  TRP97      -0.2442
     50  CE2        8.0200  -44.4590  -16.6140 C.ar   97  TRP97       0.0810
     51  CE3        6.4730  -42.6610  -17.1210 C.ar   97  TRP97       0.0012
     52  CZ2        9.1320  -43.6490  -16.8970 C.ar   97  TRP97       0.0191
     53  CZ3        7.5670  -41.8550  -17.4110 C.ar   97  TRP97       0.0001
     54  CH2        8.8830  -42.3520  -17.2930 C.ar   97  TRP97       0.0015
     55  N         12.0650  -45.2070  -18.7070 N.3   104  ALA104     -0.1245
     56  CA        11.5860  -44.3310  -19.7580 C.3   104  ALA104      0.1562
     57  C         11.7270  -45.0060  -21.1290 C.2   104  ALA104      0.2260
     58  O         10.9270  -44.7660  -22.0060 O.2   104  ALA104     -0.2867
     59  CB        12.3680  -43.0160  -19.7320 C.3   104  ALA104      0.0290
     60  N          8.7980  -47.4070  -21.6310 N.3   107  VAL107     -0.1231
     61  CA         7.6380  -46.5730  -21.9230 C.3   107  VAL107      0.1692
     62  C          7.7210  -46.0170  -23.3660 C.2   107  VAL107      0.2592
     63  O          6.7250  -45.9610  -24.0680 O.2   107  VAL107     -0.2718
     64  CB         7.5490  -45.4390  -20.8630 C.3   107  VAL107      0.0266
     65  CG1        6.4200  -44.4810  -21.1690 C.3   107  VAL107      0.0020
     66  CG2        7.3580  -46.0510  -19.4680 C.3   107  VAL107      0.0020
     67  N          8.9170  -45.6100  -23.7870 N.am  108  PHE108     -0.1976
     68  CA         9.1250  -45.0810  -25.1410 C.3   108  PHE108      0.1639
     69  C          8.8360  -46.1790  -26.1560 C.2   108  PHE108      0.2290
     70  O          8.2820  -45.8920  -27.2290 O.2   108  PHE108     -0.2864
     71  CB        10.5680  -44.5880  -25.3100 C.3   108  PHE108      0.0560
     72  CG        10.7520  -43.5190  -26.3630 C.ar  108  PHE108     -0.0200
     73  CD1       11.3170  -42.2960  -26.0160 C.ar  108  PHE108     -0.0042
     74  CD2       10.3960  -43.7390  -27.7040 C.ar  108  PHE108     -0.0042
     75  CE1       11.5050  -41.2820  -26.9820 C.ar  108  PHE108     -0.0003
     76  CE2       10.5740  -42.7340  -28.6790 C.ar  108  PHE108     -0.0003
     77  CZ        11.1390  -41.5030  -28.3170 C.ar  108  PHE108     -0.0000
     78  N          5.2110  -46.4720  -27.2700 N.3   111  SER111     -0.1202
     79  CA         4.8830  -45.5200  -28.3370 C.3   111  SER111      0.2020
     80  C          5.4490  -45.9410  -29.7020 C.2   111  SER111      0.2618
     81  O          4.7820  -45.7930  -30.7160 O.2   111  SER111     -0.2717
     82  CB         5.3960  -44.1400  -27.9840 C.3   111  SER111      0.2103
     83  OG         4.5900  -43.5860  -26.9560 O.3   111  SER111     -0.2182
     84  N          6.6680  -46.4720  -29.7170 N.am  112  LEU112     -0.1979
     85  CA         7.2390  -47.0510  -30.9570 C.3   112  LEU112      0.1596
     86  C          6.3840  -48.1900  -31.5000 C.2   112  LEU112      0.2287
     87  O          6.1710  -48.2770  -32.7230 O.2   112  LEU112     -0.2864
     88  CB         8.6800  -47.5570  -30.7580 C.3   112  LEU112      0.0297
     89  CG         9.9070  -46.7500  -31.1820 C.3   112  LEU112      0.0022
     90  CD1        9.5950  -45.3300  -31.6970 C.3   112  LEU112      0.0001
     91  CD2       10.9630  -46.7280  -30.0920 C.3   112  LEU112      0.0001
     92  N          3.0650  -46.7410  -32.7820 N.3   115  SER115     -0.1217
     93  CA         3.3390  -45.9940  -34.0190 C.3   115  SER115      0.1889
     94  C          3.5820  -46.8990  -35.2280 C.2   115  SER115      0.2288
     95  O          3.0590  -46.6320  -36.3110 O.2   115  SER115     -0.2866
     96  CB         4.5090  -45.0350  -33.8320 C.3   115  SER115      0.2089
     97  OG         4.2360  -44.1190  -32.7880 O.3   115  SER115     -0.2183
     98  N         -1.3940  -38.1660  -36.1960 N.3   129  VAL129     -0.1245
     99  CA        -1.8570  -38.5720  -34.8820 C.3   129  VAL129      0.1561
    100  C         -2.0140  -37.3890  -33.9540 C.2   129  VAL129      0.2260
    101  O         -1.3290  -36.3710  -34.1140 O.2   129  VAL129     -0.2867
    102  CB        -0.8890  -39.5710  -34.1960 C.3   129  VAL129      0.0252
    103  CG1       -0.8190  -40.8470  -34.9840 C.3   129  VAL129      0.0019
    104  CG2        0.5020  -38.9500  -34.0010 C.3   129  VAL129      0.0019
    105  N         -1.9130  -37.0290  -29.6200 N.3   131  ALA131     -0.1245
    106  CA        -1.6280  -37.7610  -28.3940 C.3   131  ALA131      0.1562
    107  C         -2.0250  -36.9280  -27.1880 C.2   131  ALA131      0.2260
    108  O         -1.7510  -35.7300  -27.1380 O.2   131  ALA131     -0.2867
    109  CB        -0.1670  -38.1670  -28.3380 C.3   131  ALA131      0.0290
    110  N         -1.6270  -36.8200  -23.0720 N.3   133  PHE133     -0.1241
    111  CA        -0.8830  -37.3220  -21.9100 C.3   133  PHE133      0.1605
    112  C         -1.5630  -36.7950  -20.6830 C.2   133  PHE133      0.2264
    113  O         -1.6300  -35.5830  -20.4840 O.2   133  PHE133     -0.2867
    114  CB         0.5710  -36.8650  -21.9200 C.3   133  PHE133      0.0534
    115  CG         1.3420  -37.3530  -23.1130 C.ar  133  PHE133     -0.0203
    116  CD1        2.2010  -38.4410  -22.9930 C.ar  133  PHE133     -0.0042
    117  CD2        1.1890  -36.7350  -24.3580 C.ar  133  PHE133     -0.0042
    118  CE1        2.9100  -38.9020  -24.0950 C.ar  133  PHE133     -0.0003
    119  CE2        1.8870  -37.1990  -25.4740 C.ar  133  PHE133     -0.0003
    120  CZ         2.7410  -38.2900  -25.3340 C.ar  133  PHE133     -0.0000
    121  N         -1.1570  -36.3560  -17.0540 N.3   135  LEU135     -0.1245
    122  CA        -0.0470  -36.2910  -16.1120 C.3   135  LEU135      0.1561
    123  C         -0.4320  -36.3380  -14.6320 C.2   135  LEU135      0.2260
    124  O          0.4040  -36.0790  -13.7780 O.2   135  LEU135     -0.2867
    125  CB         0.8640  -35.0960  -16.4210 C.3   135  LEU135      0.0270
    126  CG         1.3170  -35.0810  -17.8900 C.3   135  LEU135      0.0019
    127  CD1        2.0390  -33.7880  -18.2100 C.3   135  LEU135      0.0001
    128  CD2        2.1880  -36.2900  -18.2310 C.3   135  LEU135      0.0001
    129  N          2.0550  -37.6930  -11.7300 N.3   138  TRP138     -0.1241
    130  CA         3.4440  -37.3890  -12.0370 C.3   138  TRP138      0.1605
    131  C          4.2270  -37.3560  -10.7190 C.2   138  TRP138      0.2264
    132  O          3.8330  -36.6610   -9.7850 O.2   138  TRP138     -0.2867
    133  CB         3.5330  -36.0300  -12.7610 C.3   138  TRP138      0.0550
    134  CG         4.9320  -35.5810  -13.0810 C.ar  138  TRP138      0.0003
    135  CD1        5.7160  -34.7220  -12.3480 C.ar  138  TRP138      0.0946
    136  CD2        5.7200  -35.9740  -14.2120 C.ar  138  TRP138      0.0152
    137  NE1        6.9430  -34.5620  -12.9600 N.ar  138  TRP138     -0.2442
    138  CE2        6.9700  -35.3210  -14.1020 C.ar  138  TRP138      0.0810
    139  CE3        5.4970  -36.8330  -15.3020 C.ar  138  TRP138      0.0012
    140  CZ2        7.9900  -35.4920  -15.0450 C.ar  138  TRP138      0.0191
    141  CZ3        6.5080  -36.9960  -16.2360 C.ar  138  TRP138      0.0001
    142  CH2        7.7410  -36.3240  -16.1010 C.ar  138  TRP138      0.0015
    143  N         13.5200  -38.9460  -17.2220 N.3   146  ILE146     -0.1245
    144  CA        13.5790  -38.1130  -18.4260 C.3   146  ILE146      0.1561
    145  C         14.9000  -37.3500  -18.4110 C.2   146  ILE146      0.2260
    146  O         14.9760  -36.1960  -18.0120 O.2   146  ILE146     -0.2867
    147  CB        12.3460  -37.1330  -18.5840 C.3   146  ILE146      0.0252
    148  CG1       10.9960  -37.8340  -18.3370 C.3   146  ILE146      0.0019
    149  CG2       12.3660  -36.4050  -19.9730 C.3   146  ILE146      0.0019
    150  CD1       10.7910  -39.1270  -19.0490 C.3   146  ILE146      0.0001
    151  N         16.9770  -38.7890  -23.1930 N.3   150  VAL150     -0.1245
    152  CA        15.5840  -39.1320  -23.4680 C.3   150  VAL150      0.1561
    153  C         14.8350  -37.9490  -24.1090 C.2   150  VAL150      0.2260
    154  O         14.0670  -38.1410  -25.0640 O.2   150  VAL150     -0.2867
    155  CB        14.8330  -39.6270  -22.1870 C.3   150  VAL150      0.0252
    156  CG1       13.3200  -39.7740  -22.4560 C.3   150  VAL150      0.0019
    157  CG2       15.4510  -40.9400  -21.6470 C.3   150  VAL150      0.0019
    158  N         12.7560  -37.8640  -27.7140 N.3   154  ILE154     -0.1245
    159  CA        11.3570  -37.4260  -27.8040 C.3   154  ILE154      0.1561
    160  C         11.1890  -36.3020  -28.8250 C.2   154  ILE154      0.2260
    161  O         10.2520  -36.3240  -29.6430 O.2   154  ILE154     -0.2867
    162  CB        10.8100  -36.9280  -26.4300 C.3   154  ILE154      0.0252
    163  CG1       10.6800  -38.0920  -25.4300 C.3   154  ILE154      0.0019
    164  CG2        9.4710  -36.1700  -26.5940 C.3   154  ILE154      0.0019
    165  CD1       10.3170  -37.6580  -24.0600 C.3   154  ILE154      0.0001
    166  N         11.6290  -37.7620  -32.5470 N.3   157  VAL157     -0.1231
    167  CA        10.4800  -38.5810  -32.9280 C.3   157  VAL157      0.1692
    168  C          9.2220  -37.7360  -33.2040 C.2   157  VAL157      0.2591
    169  O          8.4000  -38.0590  -34.0830 O.2   157  VAL157     -0.2718
    170  CB        10.3080  -39.6690  -31.8250 C.3   157  VAL157      0.0266
    171  CG1        9.0560  -39.4810  -30.9800 C.3   157  VAL157      0.0020
    172  CG2       10.5150  -41.0190  -32.3940 C.3   157  VAL157      0.0020
    173  N          9.1070  -36.6230  -32.4850 N.am  158  LEU158     -0.1980
    174  CA         8.0140  -35.6860  -32.7010 C.3   158  LEU158      0.1596
    175  C          8.2150  -34.7670  -33.9040 C.2   158  LEU158      0.2287
    176  O          7.2560  -34.1550  -34.3520 O.2   158  LEU158     -0.2864
    177  CB         7.7900  -34.8150  -31.4550 C.3   158  LEU158      0.0297
    178  CG         7.1840  -35.4670  -30.2170 C.3   158  LEU158      0.0022
    179  CD1        7.0540  -34.4540  -29.0850 C.3   158  LEU158      0.0001
    180  CD2        5.8460  -36.1230  -30.5320 C.3   158  LEU158      0.0001
    181  N         10.4840  -39.7870  -37.4830 N.3   162  PHE162     -0.1241
    182  CA         9.5230  -40.8760  -37.6130 C.3   162  PHE162      0.1605
    183  C          8.4300  -40.4840  -38.5940 C.2   162  PHE162      0.2264
    184  O          7.9110  -39.3660  -38.5020 O.2   162  PHE162     -0.2867
    185  CB         8.9070  -41.2880  -36.2460 C.3   162  PHE162      0.0534
    186  CG         8.2220  -42.6310  -36.2940 C.ar  162  PHE162     -0.0203
    187  CD1        8.8790  -43.7770  -35.8500 C.ar  162  PHE162     -0.0042
    188  CD2        6.9390  -42.7570  -36.8270 C.ar  162  PHE162     -0.0042
    189  CE1        8.2740  -45.0250  -35.9220 C.ar  162  PHE162     -0.0003
    190  CE2        6.3250  -44.0090  -36.9290 C.ar  162  PHE162     -0.0003
    191  CZ         6.9900  -45.1520  -36.4700 C.ar  162  PHE162     -0.0000
    192  N          5.3010  -40.1790  -39.1440 N.3   164  LEU164     -0.1245
    193  CA         3.9430  -39.9010  -38.6780 C.3   164  LEU164      0.1561
    194  C          3.8460  -38.4120  -38.3770 C.2   164  LEU164      0.2260
    195  O          4.6700  -37.8530  -37.6320 O.2   164  LEU164     -0.2867
    196  CB         3.6080  -40.6640  -37.3960 C.3   164  LEU164      0.0270
    197  CG         2.8930  -41.9960  -37.4210 C.3   164  LEU164      0.0019
    198  CD1        2.5950  -42.4740  -35.9990 C.3   164  LEU164      0.0001
    199  CD2        1.6080  -41.8730  -38.2410 C.3   164  LEU164      0.0001
    200  N          2.5530  -35.3610  -36.5560 N.3   166  VAL166     -0.1245
    201  CA         1.9770  -35.1260  -35.2470 C.3   166  VAL166      0.1561
    202  C          1.1110  -33.8900  -35.4090 C.2   166  VAL166      0.2260
    203  O          1.6170  -32.7940  -35.6830 O.2   166  VAL166     -0.2867
    204  CB         3.0340  -34.9550  -34.1310 C.3   166  VAL166      0.0252
    205  CG1        2.3380  -34.5830  -32.8130 C.3   166  VAL166      0.0019
    206  CG2        3.8570  -36.2730  -33.9440 C.3   166  VAL166      0.0019
    207  N         -0.5620  -32.3280  -29.5650 N.3   169  ILE169     -0.1245
    208  CA        -0.1100  -32.9060  -28.3000 C.3   169  ILE169      0.1561
    209  C         -0.9030  -32.2140  -27.2000 C.2   169  ILE169      0.2260
    210  O         -0.8390  -30.9870  -27.0640 O.2   169  ILE169     -0.2867
    211  CB         1.4080  -32.6560  -28.0560 C.3   169  ILE169      0.0252
    212  CG1        2.2740  -33.3110  -29.1460 C.3   169  ILE169      0.0019
    213  CG2        1.8470  -33.1230  -26.6060 C.3   169  ILE169      0.0019
    214  CD1        2.2820  -34.8440  -29.0960 C.3   169  ILE169      0.0001
    215  N         -1.7850  -32.0690  -23.1280 N.3   171  LEU171     -0.1245
    216  CA        -1.4800  -32.4460  -21.7620 C.3   171  LEU171      0.1561
    217  C         -2.6320  -32.0100  -20.8780 C.2   171  LEU171      0.2260
    218  O         -3.1370  -30.8880  -21.0160 O.2   171  LEU171     -0.2867
    219  CB        -0.1570  -31.8400  -21.2910 C.3   171  LEU171      0.0270
    220  CG         1.0420  -31.6320  -22.2290 C.3   171  LEU171      0.0019
    221  CD1        2.2200  -31.0960  -21.4130 C.3   171  LEU171      0.0001
    222  CD2        1.4700  -32.8950  -22.9580 C.3   171  LEU171      0.0001
    223  N          5.7350  -27.9810  -15.6200 N.3   178  PHE178     -0.1241
    224  CA         5.5900  -28.1760  -17.0600 C.3   178  PHE178      0.1605
    225  C          5.1260  -26.8740  -17.6920 C.2   178  PHE178      0.2264
    226  O          5.6840  -26.4120  -18.6880 O.2   178  PHE178     -0.2867
    227  CB         4.5360  -29.2500  -17.3710 C.3   178  PHE178      0.0534
    228  CG         5.0560  -30.6570  -17.3330 C.ar  178  PHE178     -0.0203
    229  CD1        4.9930  -31.4560  -18.4640 C.ar  178  PHE178     -0.0042
    230  CD2        5.6000  -31.1900  -16.1660 C.ar  178  PHE178     -0.0042
    231  CE1        5.4660  -32.7670  -18.4370 C.ar  178  PHE178     -0.0003
    232  CE2        6.0710  -32.5030  -16.1320 C.ar  178  PHE178     -0.0003
    233  CZ         6.0010  -33.2870  -17.2710 C.ar  178  PHE178     -0.0000
@<TRIPOS>BOND
     1   192   193    1
     2   193   194    1
     3   193   196    1
     4   183   184    2
     5   183   182    1
     6   194   195    2
     7   199   197    1
     8   182   181    1
     9   182   185    1
    10   197   196    1
    11   197   198    1
    12   190   188   ar
    13   190   191   ar
    14   188   186   ar
    15   200   201    1
    16   191   189   ar
    17    95    94    2
    18   186   185    1
    19   186   187   ar
    20    98    99    1
    21   189   187   ar
    22   203   202    2
    23   202   201    1
    24   201   204    1
    25    94    93    1
    26   103   102    1
    27    99   102    1
    28    99   100    1
    29   176   175    2
    30   102   104    1
    31   204   206    1
    32   204   205    1
    33   101   100    2
    34   169   168    2
    35    93    96    1
    36    93    92    1
    37   175   174    1
    38    96    97    1
    39   168   167    1
    40   168   173   am
    41   167   166    1
    42   167   170    1
    43    87    86    2
    44   174   173    1
    45   174   177    1
    46   172   170    1
    47   170   171    1
    48    90    89    1
    49    86    85    1
    50   177   178    1
    51    89    88    1
    52    89    91    1
    53    20    18    1
    54    85    88    1
    55    85    84    1
    56    81    80    2
    57   180   178    1
    58    19    18    1
    59    18    17    1
    60   178   179    1
    61    84    80   am
    62    80    79    1
    63   161   160    2
    64   105   106    1
    65   207   208    1
    66    13    14    1
    67   212   214    1
    68   212   211    1
    69   160   159    1
    70    17    14    1
    71    76    77   ar
    72    76    74   ar
    73    14    15    1
    74   106   109    1
    75   106   107    1
    76    79    82    1
    77    79    78    1
    78    77    75   ar
    79   208   211    1
    80   208   209    1
    81   211   213    1
    82    82    83    1
    83   159   158    1
    84   159   162    1
    85    32    31    1
    86    74    72   ar
    87    70    69    2
    88   209   210    2
    89   107   108    2
    90    15    16    2
    91    75    73   ar
    92   164   162    1
    93    31    30   ar
    94    31    29   ar
    95    30    28   ar
    96   162   163    1
    97    72    73   ar
    98    72    71    1
    99    69    68    1
   100   119   120   ar
   101   119   117   ar
   102    29    27   ar
   103   163   165    1
   104   120   118   ar
   105    71    68    1
   106    28    26   ar
   107    68    67    1
   108   154   153    2
   109   117   115   ar
   110    27    26   ar
   111   153   152    1
   112   118   116   ar
   113    63    62    2
   114    26    25    1
   115    67    62   am
   116   152   151    1
   117   152   155    1
   118    62    61    1
   119   215   216    1
   120   115   116   ar
   121   115   114    1
   122    21    22    1
   123   110   111    1
   124   222   220    1
   125    25    22    1
   126   156   155    1
   127   220   221    1
   128   220   219    1
   129    22    23    1
   130   155   157    1
   131    58    57    2
   132    12    11    1
   133    10    11   ar
   134    10     8   ar
   135    61    60    1
   136    61    64    1
   137   114   111    1
   138   111   112    1
   139   216   219    1
   140   216   217    1
   141    11     9   ar
   142     8     6   ar
   143    65    64    1
   144    57    56    1
   145   218   217    2
   146    64    66    1
   147    23    24    2
   148     4     3    2
   149   112   113    2
   150     3     2    1
   151     9     7   ar
   152     6     7   ar
   153     6     5    1
   154   149   147    1
   155    56    59    1
   156    56    55    1
   157     5     2    1
   158     2     1    1
   159   150   148    1
   160   226   225    2
   161   147   144    1
   162   147   148    1
   163   229   231   ar
   164   229   228   ar
   165   231   233   ar
   166   144   145    1
   167   144   143    1
   168   145   146    2
   169   128   126    1
   170   127   126    1
   171   126   125    1
   172   225   224    1
   173    53    54   ar
   174    53    51   ar
   175   227   228    1
   176   227   224    1
   177   228   230   ar
   178    38    40    1
   179    38    37    1
   180    54    52   ar
   181   233   232   ar
   182    33    34    1
   183    51    48   ar
   184   224   223    1
   185   121   122    1
   186    52    50   ar
   187    48    50   ar
   188    48    46   ar
   189    50    49   ar
   190   125   122    1
   191    46    45    1
   192    46    47   ar
   193    34    37    1
   194    34    35    1
   195    45    42    1
   196   141   142   ar
   197   141   139   ar
   198    49    47   ar
   199    37    39    1
   200   230   232   ar
   201   122   123    1
   202   142   140   ar
   203    42    41    1
   204    42    43    1
   205   139   136   ar
   206   140   138   ar
   207    35    36    2
   208   123   124    2
   209   136   138   ar
   210   136   134   ar
   211   138   137   ar
   212    43    44    2
   213   134   133    1
   214   134   135   ar
   215   137   135   ar
   216   133   130    1
   217   130   129    1
   218   130   131    1
   219   131   132    2
