@<TRIPOS>MOLECULE
tmp/3w69B00.pdb
 139 132 0 0 0
SMALL
GASTEIGER

@<TRIPOS>ATOM
      1  N        -39.8830   27.9910  -20.8890 N.3    30  LEU30      -0.1245
      2  CA       -39.0650   28.2560  -19.7360 C.3    30  LEU30       0.1561
      3  C        -39.8040   28.0550  -18.4220 C.2    30  LEU30       0.2260
      4  O        -39.2310   27.4950  -17.4730 O.2    30  LEU30      -0.2867
      5  CB       -38.4910   29.6620  -19.8150 C.3    30  LEU30       0.0270
      6  CG       -37.4300   29.8400  -20.9000 C.3    30  LEU30       0.0019
      7  CD1      -37.1620   31.3020  -21.1240 C.3    30  LEU30       0.0001
      8  CD2      -36.1090   29.0710  -20.5390 C.3    30  LEU30       0.0001
      9  N        -40.3520   24.2370  -17.9170 N.3    33  LEU33      -0.1231
     10  CA       -39.0490   23.6570  -17.5800 C.3    33  LEU33       0.1693
     11  C        -38.6760   23.8810  -16.1100 C.2    33  LEU33       0.2592
     12  O        -38.1730   22.9560  -15.4360 O.2    33  LEU33      -0.2718
     13  CB       -37.9370   24.2020  -18.5050 C.3    33  LEU33       0.0284
     14  CG       -37.8800   23.5880  -19.9170 C.3    33  LEU33       0.0019
     15  CD1      -36.8820   24.3000  -20.8010 C.3    33  LEU33       0.0001
     16  CD2      -37.5190   22.1200  -19.8000 C.3    33  LEU33       0.0001
     17  N        -38.8810   25.1010  -15.6210 N.am   34  GLY34      -0.1957
     18  CA       -38.5560   25.4450  -14.2280 C.3    34  GLY34       0.1869
     19  C        -39.5200   24.7300  -13.2880 C.2    34  GLY34       0.2309
     20  O        -39.1360   24.2310  -12.2330 O.2    34  GLY34      -0.2863
     21  N        -38.2340   21.1240  -13.0020 N.3    37  ILE37      -0.1231
     22  CA       -37.0470   21.1050  -12.1450 C.3    37  ILE37       0.1692
     23  C        -37.4590   21.2550  -10.6730 C.2    37  ILE37       0.2591
     24  O        -36.9750   20.5320   -9.8040 O.2    37  ILE37      -0.2718
     25  CB       -36.0430   22.2130  -12.5960 C.3    37  ILE37       0.0266
     26  CG1      -35.3880   21.8330  -13.9430 C.3    37  ILE37       0.0019
     27  CG2      -35.0180   22.5110  -11.5280 C.3    37  ILE37       0.0020
     28  CD1      -34.7880   23.0510  -14.7230 C.3    37  ILE37       0.0001
     29  N        -38.3860   22.1730  -10.4030 N.am   38  MET38      -0.1979
     30  CA       -38.7810   22.4590   -9.0330 C.3    38  MET38       0.1605
     31  C        -39.6650   21.3770   -8.4150 C.2    38  MET38       0.2287
     32  O        -39.5940   21.1210   -7.2030 O.2    38  MET38      -0.2864
     33  CB       -39.4670   23.8280   -8.9010 C.3    38  MET38       0.0413
     34  CG       -38.5940   25.0360   -9.2520 C.3    38  MET38       0.0598
     35  SD       -37.0610   25.1740   -8.3180 S.3    38  MET38      -0.1393
     36  CE       -37.6890   25.7090   -6.7220 C.3    38  MET38       0.0692
     37  N        -32.1350   19.5860   -8.1000 N.3    43  TYR43      -0.1241
     38  CA       -31.0440   20.4100   -7.6500 C.3    43  TYR43       0.1605
     39  C        -30.7540   20.0820   -6.1910 C.2    43  TYR43       0.2264
     40  O        -31.5150   19.3690   -5.5380 O.2    43  TYR43      -0.2867
     41  CB       -31.4080   21.8980   -7.7920 C.3    43  TYR43       0.0534
     42  CG       -32.5860   22.3000   -6.9540 C.ar   43  TYR43      -0.0201
     43  CD1      -32.4030   22.8910   -5.7140 C.ar   43  TYR43      -0.0009
     44  CD2      -33.9070   22.0950   -7.4070 C.ar   43  TYR43      -0.0009
     45  CE1      -33.5250   23.2510   -4.9200 C.ar   43  TYR43       0.0417
     46  CE2      -34.9900   22.4700   -6.6400 C.ar   43  TYR43       0.0417
     47  CZ       -34.7970   23.0350   -5.3960 C.ar   43  TYR43       0.1957
     48  OH       -35.8870   23.4150   -4.6150 O.3    43  TYR43      -0.2866
     49  N        -27.3270   26.2230   -5.3920 N.3    48  GLN48      -0.1245
     50  CA       -28.5210   26.8250   -6.0350 C.3    48  GLN48       0.1566
     51  C        -28.4360   27.0040   -7.5480 C.2    48  GLN48       0.2260
     52  O        -29.4630   27.0820   -8.1990 O.2    48  GLN48      -0.2867
     53  CB       -28.8410   28.2120   -5.4440 C.3    48  GLN48       0.0367
     54  CG       -29.1750   28.2370   -3.9480 C.3    48  GLN48       0.0905
     55  CD       -30.5190   27.6390   -3.6610 C.2    48  GLN48       0.2608
     56  OE1      -30.8580   26.5680   -4.1740 O.2    48  GLN48      -0.2717
     57  NE2      -31.2990   28.3170   -2.8290 N.am   48  GLN48      -0.0878
     58  N        -27.1020   24.9720   -9.8460 N.3    50  ILE50      -0.1231
     59  CA       -26.9100   23.7830  -10.6760 C.3    50  ILE50       0.1692
     60  C        -28.1610   22.9130  -10.7500 C.2    50  ILE50       0.2591
     61  O        -28.7090   22.5190   -9.7350 O.2    50  ILE50      -0.2718
     62  CB       -25.6940   22.8790  -10.1970 C.3    50  ILE50       0.0266
     63  CG1      -24.4470   23.7180   -9.8630 C.3    50  ILE50       0.0019
     64  CG2      -25.3480   21.8090  -11.2420 C.3    50  ILE50       0.0020
     65  CD1      -23.8860   24.5300  -11.0090 C.3    50  ILE50       0.0001
     66  N        -28.5700   22.5970  -11.9710 N.am   51  VAL51      -0.1980
     67  CA       -29.5490   21.5620  -12.1920 C.3    51  VAL51       0.1595
     68  C        -28.7930   20.2390  -12.3830 C.2    51  VAL51       0.2287
     69  O        -27.8420   20.1730  -13.1810 O.2    51  VAL51      -0.2864
     70  CB       -30.4210   21.8860  -13.4110 C.3    51  VAL51       0.0276
     71  CG1      -31.4380   20.7540  -13.6850 C.3    51  VAL51       0.0022
     72  CG2      -31.1260   23.3000  -13.2240 C.3    51  VAL51       0.0022
     73  N        -35.0300   15.0200  -18.4690 N.3    58  LEU58      -0.1245
     74  CA       -34.4050   16.3120  -18.7880 C.3    58  LEU58       0.1561
     75  C        -32.9580   16.1300  -19.2520 C.2    58  LEU58       0.2260
     76  O        -32.5540   16.7360  -20.2410 O.2    58  LEU58      -0.2867
     77  CB       -34.4860   17.3140  -17.6190 C.3    58  LEU58       0.0270
     78  CG       -33.8560   18.7060  -17.8500 C.3    58  LEU58       0.0019
     79  CD1      -34.4710   19.4010  -19.0660 C.3    58  LEU58       0.0001
     80  CD2      -33.9930   19.5690  -16.5870 C.3    58  LEU58       0.0001
     81  N        -31.4030   17.1770  -22.8600 N.3    62  PHE62      -0.1241
     82  CA       -30.3320   18.1830  -22.8890 C.3    62  PHE62       0.1605
     83  C        -28.9260   17.6180  -23.1800 C.2    62  PHE62       0.2264
     84  O        -28.0300   18.3690  -23.5380 O.2    62  PHE62      -0.2867
     85  CB       -30.3400   19.0110  -21.5830 C.3    62  PHE62       0.0534
     86  CG       -31.3720   20.1400  -21.5620 C.ar   62  PHE62      -0.0203
     87  CD1      -32.4320   20.1680  -22.4700 C.ar   62  PHE62      -0.0042
     88  CD2      -31.2820   21.1650  -20.6130 C.ar   62  PHE62      -0.0042
     89  CE1      -33.3790   21.2020  -22.4440 C.ar   62  PHE62      -0.0003
     90  CE2      -32.2250   22.2040  -20.5860 C.ar   62  PHE62      -0.0003
     91  CZ       -33.2740   22.2110  -21.5050 C.ar   62  PHE62      -0.0000
     92  N        -26.1730   21.1580  -15.4960 N.3    67  PHE67      -0.1241
     93  CA       -25.9000   22.4270  -16.1470 C.3    67  PHE67       0.1605
     94  C        -26.1520   23.5620  -15.1650 C.2    67  PHE67       0.2264
     95  O        -26.8650   23.3780  -14.1810 O.2    67  PHE67      -0.2867
     96  CB       -26.7200   22.5940  -17.4550 C.3    67  PHE67       0.0534
     97  CG       -28.2150   22.6030  -17.2650 C.ar   67  PHE67      -0.0203
     98  CD1      -28.8990   23.8050  -17.0810 C.ar   67  PHE67      -0.0042
     99  CD2      -28.9530   21.4140  -17.3270 C.ar   67  PHE67      -0.0042
    100  CE1      -30.2880   23.8270  -16.9160 C.ar   67  PHE67      -0.0003
    101  CE2      -30.3310   21.4220  -17.1650 C.ar   67  PHE67      -0.0003
    102  CZ       -30.9990   22.6370  -16.9720 C.ar   67  PHE67      -0.0000
    103  N        -27.8160   27.1610  -14.1980 N.3    69  VAL69      -0.1245
    104  CA       -28.9270   28.0510  -14.5270 C.3    69  VAL69       0.1561
    105  C        -28.4140   29.4550  -14.9260 C.2    69  VAL69       0.2260
    106  O        -29.1730   30.2400  -15.4810 O.2    69  VAL69      -0.2867
    107  CB       -29.9220   28.2130  -13.3380 C.3    69  VAL69       0.0252
    108  CG1      -30.5020   26.8780  -12.9150 C.3    69  VAL69       0.0019
    109  CG2      -29.2380   28.8830  -12.1460 C.3    69  VAL69       0.0019
    110  N        -27.3860   31.0120  -19.6180 N.3    72  HIS72      -0.1241
    111  CA       -28.5570   31.1370  -20.4680 C.3    72  HIS72       0.1621
    112  C        -28.3450   30.7080  -21.9380 C.2    72  HIS72       0.2264
    113  O        -29.1560   29.9400  -22.5030 O.2    72  HIS72      -0.2867
    114  CB       -29.1250   32.5580  -20.3350 C.3    72  HIS72       0.0745
    115  CG       -29.7470   32.8240  -18.9960 C.ar   72  HIS72       0.0817
    116  ND1      -30.9210   33.5360  -18.8400 N.ar   72  HIS72      -0.2268
    117  CD2      -29.3690   32.4490  -17.7480 C.ar   72  HIS72       0.1154
    118  CE1      -31.2280   33.6030  -17.5550 C.ar   72  HIS72       0.1986
    119  NE2      -30.3110   32.9370  -16.8730 N.ar   72  HIS72      -0.2212
    120  N        -28.3670   27.0930  -22.1750 N.3    75  ILE75      -0.1231
    121  CA       -29.7290   26.5720  -21.9850 C.3    75  ILE75       0.1692
    122  C        -30.5450   26.7220  -23.2690 C.2    75  ILE75       0.2592
    123  O        -31.1920   25.7630  -23.6830 O.2    75  ILE75      -0.2718
    124  CB       -30.4390   27.1660  -20.7510 C.3    75  ILE75       0.0266
    125  CG1      -29.8570   26.5230  -19.4730 C.3    75  ILE75       0.0019
    126  CG2      -31.9690   26.9530  -20.8290 C.3    75  ILE75       0.0020
    127  CD1      -29.9420   27.4020  -18.2180 C.3    75  ILE75       0.0001
    128  N        -30.4650   27.8880  -23.9240 N.am   76  TYR76      -0.1976
    129  CA       -31.1860   28.0780  -25.1920 C.3    76  TYR76       0.1639
    130  C        -30.7320   27.0840  -26.2670 C.2    76  TYR76       0.2290
    131  O        -31.5450   26.5650  -27.0120 O.2    76  TYR76      -0.2864
    132  CB       -31.1290   29.5340  -25.6820 C.3    76  TYR76       0.0560
    133  CG       -31.9510   30.4610  -24.8080 C.ar   76  TYR76      -0.0198
    134  CD1      -31.3450   31.4890  -24.0920 C.ar   76  TYR76      -0.0009
    135  CD2      -33.3370   30.2690  -24.6540 C.ar   76  TYR76      -0.0009
    136  CE1      -32.0810   32.3300  -23.2910 C.ar   76  TYR76       0.0417
    137  CE2      -34.0800   31.0890  -23.8340 C.ar   76  TYR76       0.0417
    138  CZ       -33.4350   32.1200  -23.1530 C.ar   76  TYR76       0.1957
    139  OH       -34.1500   32.9380  -22.3340 O.3    76  TYR76      -0.2866
@<TRIPOS>BOND
     1   131   130    2
     2   130   129    1
     3   132   129    1
     4   132   133    1
     5   129   128    1
     6   133   135   ar
     7   133   134   ar
     8   135   137   ar
     9   134   136   ar
    10   128   122   am
    11   137   138   ar
    12   123   122    2
    13    84    83    2
    14   136   138   ar
    15   122   121    1
    16    83    82    1
    17   138   139    1
    18    82    81    1
    19    82    85    1
    20   113   112    2
    21    87    89   ar
    22    87    86   ar
    23    89    91   ar
    24   120   121    1
    25   121   124    1
    26   112   111    1
    27    85    86    1
    28    86    88   ar
    29    91    90   ar
    30     7     6    1
    31     6     8    1
    32     6     5    1
    33     1     2    1
    34   126   124    1
    35    15    14    1
    36   124   125    1
    37    88    90   ar
    38   111   114    1
    39   111   110    1
    40   114   115    1
    41    76    75    2
    42    14    16    1
    43    14    13    1
    44     5     2    1
    45     2     3    1
    46   125   127    1
    47    75    74    1
    48    79    78    1
    49   115   116   ar
    50   115   117   ar
    51   116   118   ar
    52    74    73    1
    53    74    77    1
    54    13    10    1
    55     3     4    2
    56     9    10    1
    57    78    77    1
    58    78    80    1
    59   117   119   ar
    60    10    11    1
    61   118   119   ar
    62    96    97    1
    63    96    93    1
    64    99    97   ar
    65    99   101   ar
    66    97    98   ar
    67   101   102   ar
    68    98   100   ar
    69   102   100   ar
    70    93    92    1
    71    93    94    1
    72    11    17   am
    73    11    12    2
    74    17    18    1
    75   106   105    2
    76    94    95    2
    77   105   104    1
    78    28    26    1
    79   104   103    1
    80   104   107    1
    81    18    19    1
    82    26    25    1
    83    71    70    1
    84    70    72    1
    85    70    67    1
    86   107   108    1
    87   107   109    1
    88    19    20    2
    89    69    68    2
    90    21    22    1
    91    25    22    1
    92    25    27    1
    93    68    67    1
    94    67    66    1
    95    22    23    1
    96    66    60   am
    97    64    62    1
    98    65    63    1
    99    60    59    1
   100    60    61    2
   101    59    62    1
   102    59    58    1
   103    23    29   am
   104    23    24    2
   105    29    30    1
   106    62    63    1
   107    34    33    1
   108    34    35    1
   109    30    33    1
   110    30    31    1
   111    31    32    2
   112    35    36    1
   113    52    51    2
   114    37    38    1
   115    41    38    1
   116    41    42    1
   117    38    39    1
   118    51    50    1
   119    44    42   ar
   120    44    46   ar
   121    42    43   ar
   122    46    47   ar
   123    39    40    2
   124    50    53    1
   125    50    49    1
   126    43    45   ar
   127    53    54    1
   128    47    45   ar
   129    47    48    1
   130    56    55    2
   131    54    55    1
   132    55    57   am
