@<TRIPOS>MOLECULE
tmp/3w6cA01.pdb
 133 125 0 0 0
SMALL
GASTEIGER

@<TRIPOS>ATOM
      1  N         -5.9970    2.5190   13.7770 N.3    38  LYS38      -0.1231
      2  CA        -5.6140    1.3340   14.5820 C.3    38  LYS38       0.1693
      3  C         -6.7540    0.9570   15.5680 C.2    38  LYS38       0.2592
      4  O         -7.1470   -0.2180   15.6920 O.2    38  LYS38      -0.2718
      5  CB        -4.2760    1.5850   15.2960 C.3    38  LYS38       0.0285
      6  CG        -3.8180    0.4830   16.2440 C.3    38  LYS38       0.0035
      7  CD        -2.5510    0.8510   17.0010 C.3    38  LYS38       0.0206
      8  CE        -2.1110   -0.2880   17.9140 C.3    38  LYS38       0.1093
      9  NZ        -0.7190   -0.1210   18.4970 N.3    38  LYS38      -0.1314
     10  N         -7.3290    1.9650   16.2230 N.am   39  LYS39      -0.1966
     11  CA        -8.3970    1.6800   17.1950 C.3    39  LYS39       0.1728
     12  C         -9.6990    1.2630   16.4850 C.2    39  LYS39       0.2616
     13  O        -10.4010    0.3410   16.9460 O.2    39  LYS39      -0.2715
     14  CB        -8.6480    2.9080   18.0810 C.3    39  LYS39       0.0311
     15  CG        -9.8280    2.7320   19.0670 C.3    39  LYS39       0.0038
     16  CD        -9.6560    1.4870   19.9470 C.3    39  LYS39       0.0206
     17  CE       -10.5230    1.5870   21.2090 C.3    39  LYS39       0.1093
     18  NZ       -10.5340    0.2750   21.9540 N.3    39  LYS39      -0.1314
     19  N        -10.0090    1.9610   15.3730 N.am   40  GLU40      -0.1963
     20  CA       -11.2620    1.7830   14.6580 C.3    40  GLU40       0.1733
     21  C        -11.3420    0.4230   13.8850 C.2    40  GLU40       0.2617
     22  O        -12.3530   -0.2650   13.9360 O.2    40  GLU40      -0.2715
     23  CB       -11.5850    3.0070   13.7540 C.3    40  GLU40       0.0429
     24  CG       -11.8510    4.4050   14.5320 C.3    40  GLU40       0.1163
     25  CD       -13.2400    4.5500   15.2060 C.2    40  GLU40       0.3649
     26  OE1      -13.9460    3.5060   15.2940 O.co2  40  GLU40      -0.2457
     27  OE2      -13.6460    5.6640   15.6530 O.co2  40  GLU40      -0.2457
     28  N        -10.2770    0.0200   13.2030 N.am   41  SER41      -0.1936
     29  CA       -10.4000   -1.0320   12.2060 C.3    41  SER41       0.2055
     30  C         -9.1880   -1.9380   12.1700 C.2    41  SER41       0.2643
     31  O         -9.1370   -2.9340   11.3560 O.2    41  SER41      -0.2714
     32  CB       -10.6340   -0.4520   10.8050 C.3    41  SER41       0.2130
     33  OG        -9.6170    0.4770   10.4440 O.3    41  SER41      -0.2179
     34  N         -8.2310   -1.5980   13.0440 N.am   42  TYR42      -0.1973
     35  CA        -6.9300   -2.2530   13.0580 C.3    42  TYR42       0.1639
     36  C         -6.3640   -2.3480   11.6620 C.2    42  TYR42       0.2290
     37  O         -5.9660   -3.4110   11.1940 O.2    42  TYR42      -0.2864
     38  CB        -6.9550   -3.6070   13.7270 C.3    42  TYR42       0.0560
     39  CG        -5.5970   -3.9090   14.2710 C.ar   42  TYR42      -0.0198
     40  CD1       -5.2000   -3.4210   15.5150 C.ar   42  TYR42      -0.0009
     41  CD2       -4.6740   -4.6500   13.5240 C.ar   42  TYR42      -0.0009
     42  CE1       -3.9160   -3.6850   16.0100 C.ar   42  TYR42       0.0417
     43  CE2       -3.3920   -4.9190   14.0010 C.ar   42  TYR42       0.0417
     44  CZ        -3.0200   -4.4360   15.2340 C.ar   42  TYR42       0.1957
     45  OH        -1.7580   -4.7190   15.6990 O.3    42  TYR42      -0.2866
     46  N         -9.0950   -5.7470   11.5090 N.3    46  GLY46      -0.1210
     47  CA        -9.9240   -5.8610   12.7050 C.3    46  GLY46       0.1956
     48  C        -11.3620   -5.5340   12.3800 C.2    46  GLY46       0.2611
     49  O        -12.1270   -5.2000   13.2610 O.2    46  GLY46      -0.2717
     50  N        -11.7170   -5.5860   11.0980 N.am   47  LEU47      -0.1979
     51  CA       -13.0980   -5.3720   10.6450 C.3    47  LEU47       0.1596
     52  C        -14.0340   -6.6180   10.6670 C.2    47  LEU47       0.2287
     53  O        -15.1970   -6.4880   11.0160 O.2    47  LEU47      -0.2864
     54  CB       -13.1220   -4.7390    9.2260 C.3    47  LEU47       0.0297
     55  CG       -12.4140   -3.3910    9.0010 C.3    47  LEU47       0.0022
     56  CD1      -12.2990   -3.0900    7.5110 C.3    47  LEU47       0.0001
     57  CD2      -13.1540   -2.2730    9.7490 C.3    47  LEU47       0.0001
     58  N        -17.4850   -8.0900   12.9990 N.3    50  SER50      -0.1217
     59  CA       -18.2120   -6.9920   13.6090 C.3    50  SER50       0.1889
     60  C        -19.3940   -6.5860   12.7240 C.2    50  SER50       0.2288
     61  O        -19.2680   -6.6340   11.5080 O.2    50  SER50      -0.2866
     62  CB       -17.2770   -5.8030   13.8180 C.3    50  SER50       0.2089
     63  OG       -18.0640   -4.6800   13.9530 O.3    50  SER50      -0.2183
     64  N        -20.3210   -3.6800   12.1620 N.3    52  SER52      -0.1217
     65  CA       -19.9560   -2.4110   11.5200 C.3    52  SER52       0.1889
     66  C        -18.7410   -2.6010   10.6280 C.2    52  SER52       0.2288
     67  O        -18.0780   -1.5870   10.2290 O.2    52  SER52      -0.2866
     68  CB       -19.6890   -1.3070   12.5850 C.3    52  SER52       0.2089
     69  OG       -18.5190   -1.6010   13.3350 O.3    52  SER52      -0.2183
     70  N        -14.4390    3.8390   10.2840 N.3    59  GLN59      -0.1245
     71  CA       -15.6810    3.4010   10.8920 C.3    59  GLN59       0.1566
     72  C        -16.7600    4.4880   10.8990 C.2    59  GLN59       0.2260
     73  O        -17.5450    4.6110   11.8570 O.2    59  GLN59      -0.2867
     74  CB       -15.4250    2.8410   12.2980 C.3    59  GLN59       0.0367
     75  CG       -14.8490    1.3710   12.3290 C.3    59  GLN59       0.0905
     76  CD       -15.8430    0.3380   11.8280 C.2    59  GLN59       0.2608
     77  OE1      -15.8220   -0.0380   10.6250 O.2    59  GLN59      -0.2717
     78  NE2      -16.7250   -0.1350   12.7150 N.am   59  GLN59      -0.0878
     79  N        -16.1060    9.8180   18.1860 N.3   114  ASN114     -0.1240
     80  CA       -16.5540    8.4520   18.4120 C.3   114  ASN114      0.1653
     81  C        -17.9860    8.4440   18.9360 C.2   114  ASN114      0.2266
     82  O        -18.7320    7.5120   18.6680 O.2   114  ASN114     -0.2867
     83  CB       -15.6230    7.7870   19.3810 C.3   114  ASN114      0.1155
     84  CG       -15.9890    6.3670   19.7000 C.2   114  ASN114      0.2627
     85  OD1      -16.0300    5.4800   18.8070 O.2   114  ASN114     -0.2716
     86  ND2      -16.1630    6.0960   20.9970 N.am  114  ASN114     -0.0877
     87  N        -24.5090    3.1200   19.5740 N.3   125  ASP125     -0.1239
     88  CA       -24.2340    3.4780   18.1790 C.3   125  ASP125      0.1674
     89  C        -25.3240    2.8680   17.3170 C.2   125  ASP125      0.2266
     90  O        -26.3070    2.3840   17.8460 O.2   125  ASP125     -0.2867
     91  CB       -22.8150    3.0800   17.7310 C.3   125  ASP125      0.1410
     92  CG       -22.5500    1.5460   17.7960 C.2   125  ASP125      0.3668
     93  OD1      -21.3490    1.1910   17.6990 O.co2 125  ASP125     -0.2456
     94  OD2      -23.4910    0.7210   17.9470 O.co2 125  ASP125     -0.2456
     95  N        -24.4660   -0.7500   20.0590 N.3   129  ARG129     -0.1245
     96  CA       -23.3930   -1.0670   20.9770 C.3   129  ARG129      0.1563
     97  C        -23.1090    0.1180   21.8810 C.2   129  ARG129      0.2260
     98  O        -23.2250    1.2870   21.4350 O.2   129  ARG129     -0.2867
     99  CB       -22.1360   -1.4580   20.2310 C.3   129  ARG129      0.0307
    100  CG       -22.3360   -2.5660   19.1650 C.3   129  ARG129      0.0489
    101  CD       -21.0810   -2.8310   18.3650 C.3   129  ARG129      0.2205
    102  NE       -20.6920   -1.6280   17.6160 N.pl3 129  ARG129     -0.0865
    103  CZ       -19.6840   -1.5640   16.7460 C.cat 129  ARG129      0.5346
    104  NH1      -18.9850   -2.6600   16.4870 N.pl3 129  ARG129      0.1354
    105  NH2      -19.4090   -0.4050   16.0850 N.pl3 129  ARG129      0.1354
    106  N        -21.1900    3.1410   23.4850 N.3   131  ILE131     -0.1231
    107  CA       -20.0990    4.0060   22.9920 C.3   131  ILE131      0.1692
    108  C        -19.3300    4.5390   24.2040 C.2   131  ILE131      0.2591
    109  O        -19.8820    5.2780   25.0310 O.2   131  ILE131     -0.2718
    110  CB       -20.6470    5.1670   22.1570 C.3   131  ILE131      0.0266
    111  CG1      -21.4130    4.6350   20.9620 C.3   131  ILE131      0.0019
    112  CG2      -19.5020    6.0670   21.5970 C.3   131  ILE131      0.0020
    113  CD1      -22.2180    5.7200   20.2300 C.3   131  ILE131      0.0001
    114  N        -18.0790    4.1100   24.3470 N.am  132  LEU132     -0.1980
    115  CA       -17.2870    4.5170   25.4930 C.3   132  LEU132      0.1596
    116  C        -16.3800    5.6480   25.0460 C.2   132  LEU132      0.2287
    117  O        -15.1450    5.4850   25.0230 O.2   132  LEU132     -0.2864
    118  CB       -16.4650    3.3470   26.0380 C.3   132  LEU132      0.0297
    119  CG       -17.2220    2.0520   26.3730 C.3   132  LEU132      0.0022
    120  CD1      -16.3200    0.9120   26.9060 C.3   132  LEU132      0.0001
    121  CD2      -18.2740    2.3540   27.3920 C.3   132  LEU132      0.0001
    122  N        -12.2490    5.9680   24.5770 N.3   136  TYR136     -0.1241
    123  CA       -11.7860    6.0710   23.1950 C.3   136  TYR136      0.1605
    124  C        -10.8020    7.2250   23.0710 C.2   136  TYR136      0.2264
    125  O         -9.6980    7.0430   22.5960 O.2   136  TYR136     -0.2867
    126  CB       -12.9610    6.1400   22.2300 C.3   136  TYR136      0.0534
    127  CG       -12.6190    6.4000   20.7990 C.ar  136  TYR136     -0.0201
    128  CD1      -12.6370    5.3580   19.8430 C.ar  136  TYR136     -0.0009
    129  CD2      -12.2880    7.7080   20.3660 C.ar  136  TYR136     -0.0009
    130  CE1      -12.3420    5.6000   18.4900 C.ar  136  TYR136      0.0417
    131  CE2      -11.9970    7.9620   19.0470 C.ar  136  TYR136      0.0417
    132  CZ       -12.0460    6.9130   18.0960 C.ar  136  TYR136      0.1957
    133  OH       -11.7510    7.2020   16.7650 O.3   136  TYR136     -0.2866
@<TRIPOS>BOND
     1    56    55    1
     2    55    54    1
     3    55    57    1
     4    54    51    1
     5    67    66    2
     6    70    71    1
     7    33    32    1
     8    77    76    2
     9    66    65    1
    10    51    52    1
    11    51    50    1
    12    52    53    2
    13    32    29    1
    14    71    72    1
    15    71    74    1
    16    72    73    2
    17    50    48   am
    18    37    36    2
    19    31    30    2
    20    61    60    2
    21    46    47    1
    22    65    64    1
    23    65    68    1
    24    36    35    1
    25    76    75    1
    26    76    78   am
    27    30    29    1
    28    30    34   am
    29    29    28    1
    30    74    75    1
    31    48    47    1
    32    48    49    2
    33    68    69    1
    34    60    59    1
    35    58    59    1
    36    34    35    1
    37    35    38    1
    38    28    21   am
    39    41    43   ar
    40    41    39   ar
    41    59    62    1
    42    38    39    1
    43    23    24    1
    44    23    20    1
    45     1     2    1
    46    62    63    1
    47    21    22    2
    48    21    20    1
    49    43    44   ar
    50    39    40   ar
    51    24    25    1
    52     2     5    1
    53     2     3    1
    54    20    19    1
    55    25    26   ar
    56    25    27   ar
    57    44    45    1
    58    44    42   ar
    59     5     6    1
    60    19    12   am
    61    40    42   ar
    62     3     4    2
    63     3    10   am
    64   105   103    1
    65    10    11    1
    66     6     7    1
    67    12    13    2
    68    12    11    1
    69   104   103    1
    70   103   102    2
    71   133   132    1
    72     7     8    1
    73    11    14    1
    74    89    90    2
    75    89    88    1
    76   102   101    1
    77    93    92   ar
    78    91    92    1
    79    91    88    1
    80    92    94   ar
    81     8     9    1
    82    14    15    1
    83   132   130   ar
    84   132   131   ar
    85    88    87    1
    86    79    80    1
    87   101   100    1
    88    80    81    1
    89    80    83    1
    90   130   128   ar
    91    82    81    2
    92    85    84    2
    93   131   129   ar
    94    15    16    1
    95   100    99    1
    96    83    84    1
    97    84    86   am
    98   128   127   ar
    99    16    17    1
   100    95    96    1
   101   113   111    1
   102    99    96    1
   103   129   127   ar
   104   127   126    1
   105   111   110    1
   106    96    97    1
   107    17    18    1
   108    98    97    2
   109   112   110    1
   110   110   107    1
   111   126   123    1
   112   125   124    2
   113   107   106    1
   114   107   108    1
   115   124   123    1
   116   123   122    1
   117   108   114   am
   118   108   109    2
   119   114   115    1
   120   117   116    2
   121   116   115    1
   122   115   118    1
   123   118   119    1
   124   119   120    1
   125   119   121    1
