@<TRIPOS>MOLECULE
tmp/3w6dC00.pdb
 233 231 0 0 0
SMALL
GASTEIGER

@<TRIPOS>ATOM
      1  N        -27.2250  -20.4860   -0.3660 N.3    40  GLN40      -0.1245
      2  CA       -27.5630  -20.0480    0.9920 C.3    40  GLN40       0.1566
      3  C        -26.3900  -20.1610    1.9730 C.2    40  GLN40       0.2260
      4  O        -26.1630  -19.2520    2.7710 O.2    40  GLN40      -0.2867
      5  CB       -28.7750  -20.8180    1.5380 C.3    40  GLN40       0.0367
      6  CG       -30.0780  -20.6380    0.7470 C.3    40  GLN40       0.0905
      7  CD       -31.0190  -19.5860    1.3260 C.2    40  GLN40       0.2608
      8  OE1      -32.2300  -19.6690    1.1350 O.2    40  GLN40      -0.2717
      9  NE2      -30.4740  -18.5970    2.0200 N.am   40  GLN40      -0.0878
     10  N        -26.8840  -14.9550   10.6500 N.3    52  SER52      -0.1217
     11  CA       -27.7440  -16.1300   10.5290 C.3    52  SER52       0.1889
     12  C        -26.9570  -17.4450   10.4580 C.2    52  SER52       0.2288
     13  O        -27.4970  -18.4730   10.0230 O.2    52  SER52      -0.2866
     14  CB       -28.6710  -15.9940    9.3130 C.3    52  SER52       0.2089
     15  OG       -27.9370  -15.8070    8.1120 O.3    52  SER52      -0.2183
     16  N        -30.6520  -22.2950    5.6740 N.3    59  GLN59      -0.1231
     17  CA       -30.8430  -20.9550    6.2490 C.3    59  GLN59       0.1698
     18  C        -32.3030  -20.6410    6.6030 C.2    59  GLN59       0.2592
     19  O        -32.7370  -19.4910    6.5120 O.2    59  GLN59      -0.2718
     20  CB       -30.2440  -19.8740    5.3340 C.3    59  GLN59       0.0381
     21  CG       -28.7230  -19.8880    5.2610 C.3    59  GLN59       0.0905
     22  CD       -28.0860  -19.2860    6.4980 C.2    59  GLN59       0.2608
     23  OE1      -28.0560  -18.0690    6.6540 O.2    59  GLN59      -0.2717
     24  NE2      -27.5790  -20.1380    7.3870 N.am   59  GLN59      -0.0878
     25  N        -33.0460  -21.6700    7.0150 N.am   60  VAL60      -0.1966
     26  CA       -34.4150  -21.4910    7.5010 C.3    60  VAL60       0.1727
     27  C        -34.3950  -20.7260    8.8290 C.2    60  VAL60       0.2616
     28  O        -33.7040  -21.1240    9.7750 O.2    60  VAL60      -0.2715
     29  CB       -35.1550  -22.8350    7.6860 C.3    60  VAL60       0.0290
     30  CG1      -36.6490  -22.5970    7.8920 C.3    60  VAL60       0.0023
     31  CG2      -34.9280  -23.7530    6.4930 C.3    60  VAL60       0.0023
     32  N        -35.1520  -19.6280    8.8790 N.am   61  GLU61      -0.1977
     33  CA       -35.1870  -18.7330   10.0390 C.3    61  GLU61       0.1602
     34  C        -35.9290  -19.3430   11.2350 C.2    61  GLU61       0.2287
     35  O        -36.8420  -20.1570   11.0440 O.2    61  GLU61      -0.2864
     36  CB       -35.8200  -17.3970    9.6520 C.3    61  GLU61       0.0415
     37  CG       -34.9970  -16.5830    8.6560 C.3    61  GLU61       0.1163
     38  CD       -35.4340  -15.1280    8.5980 C.2    61  GLU61       0.3649
     39  OE1      -36.6490  -14.8660    8.7310 O.co2  61  GLU61      -0.2457
     40  OE2      -34.5630  -14.2450    8.4250 O.co2  61  GLU61      -0.2457
     41  N        -38.2610  -18.3080   13.4470 N.3    63  ASN63      -0.1225
     42  CA       -39.7230  -18.1850   13.4520 C.3    63  ASN63       0.1785
     43  C        -40.3760  -19.0870   12.4050 C.2    63  ASN63       0.2597
     44  O        -41.4560  -19.6460   12.6370 O.2    63  ASN63      -0.2718
     45  CB       -40.1610  -16.7300   13.2420 C.3    63  ASN63       0.1169
     46  CG       -39.7580  -15.8180   14.3940 C.2    63  ASN63       0.2627
     47  OD1      -39.6120  -16.2590   15.5340 O.2    63  ASN63      -0.2716
     48  ND2      -39.5870  -14.5340   14.0970 N.am   63  ASN63      -0.0877
     49  N        -39.7020  -19.2320   11.2660 N.am   64  THR64      -0.1953
     50  CA       -40.1680  -20.0970   10.1850 C.3    64  THR64       0.1897
     51  C        -40.0330  -21.5800   10.5450 C.2    64  THR64       0.2313
     52  O        -41.0040  -22.3270   10.4190 O.2    64  THR64      -0.2863
     53  CB       -39.4660  -19.7640    8.8500 C.3    64  THR64       0.1794
     54  OG1      -39.6450  -18.3720    8.5570 O.3    64  THR64      -0.2208
     55  CG2      -40.0410  -20.5920    7.7040 C.3    64  THR64       0.0378
     56  N        -42.7640  -22.5500   12.9670 N.3    67  ALA67      -0.1231
     57  CA       -44.1160  -22.6150   12.4040 C.3    67  ALA67       0.1694
     58  C        -44.3940  -23.9370   11.6820 C.2    67  ALA67       0.2592
     59  O        -45.5530  -24.3510   11.5650 O.2    67  ALA67      -0.2718
     60  CB       -44.3670  -21.4380   11.4730 C.3    67  ALA67       0.0304
     61  N        -43.3280  -24.5890   11.2110 N.am   68  TYR68      -0.1976
     62  CA       -43.4270  -25.8390   10.4480 C.3    68  TYR68       0.1639
     63  C        -43.1130  -27.0880   11.2700 C.2    68  TYR68       0.2290
     64  O        -42.9980  -28.1860   10.7140 O.2    68  TYR68      -0.2864
     65  CB       -42.5110  -25.7960    9.2180 C.3    68  TYR68       0.0560
     66  CG       -43.0340  -24.9520    8.0770 C.ar   68  TYR68      -0.0198
     67  CD1      -43.9250  -25.4810    7.1420 C.ar   68  TYR68      -0.0009
     68  CD2      -42.6310  -23.6270    7.9280 C.ar   68  TYR68      -0.0009
     69  CE1      -44.4040  -24.7060    6.0900 C.ar   68  TYR68       0.0417
     70  CE2      -43.1010  -22.8460    6.8800 C.ar   68  TYR68       0.0417
     71  CZ       -43.9870  -23.3900    5.9680 C.ar   68  TYR68       0.1957
     72  OH       -44.4500  -22.6160    4.9310 O.3    68  TYR68      -0.2866
     73  N        -40.4420  -27.0190    3.3830 N.3    95  ILE95      -0.1245
     74  CA       -40.9200  -25.6510    3.1630 C.3    95  ILE95       0.1561
     75  C        -40.8810  -25.2660    1.6840 C.2    95  ILE95       0.2260
     76  O        -41.8580  -24.7180    1.1590 O.2    95  ILE95      -0.2867
     77  CB       -40.1290  -24.6300    4.0230 C.3    95  ILE95       0.0252
     78  CG1      -40.3350  -24.9380    5.5100 C.3    95  ILE95       0.0019
     79  CG2      -40.5600  -23.1930    3.7160 C.3    95  ILE95       0.0019
     80  CD1      -39.2880  -24.3430    6.4260 C.3    95  ILE95       0.0001
     81  N        -44.0940  -24.5560   -0.8470 N.3    99  LYS99      -0.1245
     82  CA       -44.2700  -23.3060   -1.5820 C.3    99  LYS99       0.1561
     83  C        -44.3210  -23.5010   -3.0950 C.2    99  LYS99       0.2260
     84  O        -45.0420  -22.7850   -3.7850 O.2    99  LYS99      -0.2867
     85  CB       -43.2110  -22.2800   -1.1740 C.3    99  LYS99       0.0271
     86  CG       -43.3120  -21.9180    0.3000 C.3    99  LYS99       0.0035
     87  CD       -42.7840  -20.5460    0.6120 C.3    99  LYS99       0.0206
     88  CE       -42.9160  -20.2690    2.1040 C.3    99  LYS99       0.1093
     89  NZ       -43.0040  -18.8020    2.3820 N.3    99  LYS99      -0.1314
     90  N        -40.6680  -17.0990   -2.9630 N.3   112  HIS112     -0.1226
     91  CA       -41.3670  -17.0090   -1.6780 C.3   112  HIS112      0.1752
     92  C        -40.7370  -17.8280   -0.5490 C.2   112  HIS112      0.2596
     93  O        -41.0150  -17.5820    0.6270 O.2   112  HIS112     -0.2718
     94  CB       -42.8590  -17.3220   -1.8520 C.3   112  HIS112      0.0759
     95  CG       -43.5840  -16.2880   -2.6560 C.ar  112  HIS112      0.0818
     96  ND1      -43.9490  -16.4850   -3.9720 N.ar  112  HIS112     -0.2268
     97  CD2      -43.9780  -15.0310   -2.3400 C.ar  112  HIS112      0.1154
     98  CE1      -44.5500  -15.3980   -4.4250 C.ar  112  HIS112      0.1986
     99  NE2      -44.5780  -14.5000   -3.4560 N.ar  112  HIS112     -0.2212
    100  N        -39.9010  -18.8000   -0.9060 N.am  113  TYR113     -0.1962
    101  CA       -39.0770  -19.5070    0.0820 C.3   113  TYR113      0.1771
    102  C        -38.1400  -18.4820    0.7250 C.2   113  TYR113      0.2620
    103  O        -38.0640  -18.3630    1.9550 O.2   113  TYR113     -0.2715
    104  CB       -38.2730  -20.6410   -0.5770 C.3   113  TYR113      0.0574
    105  CG       -37.2970  -21.3260    0.3540 C.ar  113  TYR113     -0.0198
    106  CD1      -37.6960  -22.4060    1.1480 C.ar  113  TYR113     -0.0009
    107  CD2      -35.9810  -20.8820    0.4570 C.ar  113  TYR113     -0.0009
    108  CE1      -36.8030  -23.0360    2.0060 C.ar  113  TYR113      0.0417
    109  CE2      -35.0840  -21.4950    1.3200 C.ar  113  TYR113      0.0417
    110  CZ       -35.4990  -22.5740    2.0810 C.ar  113  TYR113      0.1957
    111  OH       -34.6030  -23.1640    2.9400 O.3   113  TYR113     -0.2866
    112  N        -37.4340  -17.7450   -0.1250 N.am  114  ASN114     -0.1958
    113  CA       -36.4610  -16.7580    0.3210 C.3   114  ASN114      0.1819
    114  C        -37.0970  -15.4770    0.8520 C.2   114  ASN114      0.2622
    115  O        -36.6010  -14.8900    1.8140 O.2   114  ASN114     -0.2715
    116  CB       -35.5070  -16.4180   -0.8260 C.3   114  ASN114      0.1195
    117  CG       -34.3970  -15.4610   -0.4100 C.2   114  ASN114      0.2630
    118  OD1      -33.7200  -15.6660    0.6040 O.2   114  ASN114     -0.2716
    119  ND2      -34.1940  -14.4230   -1.2040 N.am  114  ASN114     -0.0877
    120  N        -38.1820  -15.0390    0.2160 N.am  115  GLY115     -0.1940
    121  CA       -38.8180  -13.7740    0.5760 C.3   115  GLY115      0.2014
    122  C        -39.9030  -13.8730    1.6300 C.2   115  GLY115      0.2639
    123  O        -40.2270  -12.8850    2.2920 O.2   115  GLY115     -0.2714
    124  N        -40.4630  -15.0680    1.7950 N.am  116  GLY116     -0.1939
    125  CA       -41.6670  -15.2420    2.6020 C.3   116  GLY116      0.2014
    126  C        -42.8970  -15.0180    1.7400 C.2   116  GLY116      0.2639
    127  O        -42.8030  -14.4500    0.6400 O.2   116  GLY116     -0.2714
    128  N        -44.0500  -15.4660    2.2320 N.am  117  ASP117     -0.1957
    129  CA       -45.3000  -15.3160    1.4970 C.3   117  ASP117      0.1840
    130  C        -45.6410  -13.8500    1.2760 C.2   117  ASP117      0.2622
    131  O        -46.1620  -13.4820    0.2240 O.2   117  ASP117     -0.2715
    132  CB       -46.4470  -16.0140    2.2280 C.3   117  ASP117      0.1450
    133  CG       -46.3580  -17.5310    2.1520 C.2   117  ASP117      0.3671
    134  OD1      -45.3410  -18.0600    1.6560 O.co2 117  ASP117     -0.2456
    135  OD2      -47.3170  -18.1960    2.5830 O.co2 117  ASP117     -0.2456
    136  N        -45.3220  -13.0210    2.2680 N.am  118  TYR118     -0.1960
    137  CA       -45.6590  -11.6020    2.2410 C.3   118  TYR118      0.1771
    138  C        -44.4920  -10.7420    1.7500 C.2   118  TYR118      0.2620
    139  O        -44.3360   -9.5950    2.1910 O.2   118  TYR118     -0.2715
    140  CB       -46.0860  -11.1310    3.6380 C.3   118  TYR118      0.0574
    141  CG       -47.4300  -11.6330    4.1300 C.ar  118  TYR118     -0.0198
    142  CD1      -47.8710  -11.3120    5.4190 C.ar  118  TYR118     -0.0009
    143  CD2      -48.2610  -12.4250    3.3240 C.ar  118  TYR118     -0.0009
    144  CE1      -49.1050  -11.7520    5.8930 C.ar  118  TYR118      0.0417
    145  CE2      -49.5010  -12.8710    3.7900 C.ar  118  TYR118      0.0417
    146  CZ       -49.9120  -12.5310    5.0790 C.ar  118  TYR118      0.1957
    147  OH       -51.1280  -12.9620    5.5620 O.3   118  TYR118     -0.2866
    148  N        -43.6710  -11.2860    0.8480 N.am  119  TRP119     -0.1960
    149  CA       -42.5180  -10.5320    0.3320 C.3   119  TRP119      0.1771
    150  C        -42.9290   -9.3630   -0.5550 C.2   119  TRP119      0.2619
    151  O        -43.9340   -9.4370   -1.2570 O.2   119  TRP119     -0.2715
    152  CB       -41.5400  -11.4200   -0.4430 C.3   119  TRP119      0.0590
    153  CG       -40.2950  -10.6650   -0.8730 C.ar  119  TRP119      0.0006
    154  CD1      -39.1970  -10.3930   -0.1040 C.ar  119  TRP119      0.0946
    155  CD2      -40.0400  -10.0700   -2.1560 C.ar  119  TRP119      0.0152
    156  NE1      -38.2720   -9.6810   -0.8290 N.ar  119  TRP119     -0.2442
    157  CE2      -38.7620   -9.4680   -2.0910 C.ar  119  TRP119      0.0810
    158  CE3      -40.7610   -9.9950   -3.3540 C.ar  119  TRP119      0.0012
    159  CZ2      -38.1860   -8.8010   -3.1830 C.ar  119  TRP119      0.0191
    160  CZ3      -40.1890   -9.3260   -4.4410 C.ar  119  TRP119      0.0001
    161  CH2      -38.9150   -8.7350   -4.3420 C.ar  119  TRP119      0.0015
    162  N        -42.1290   -8.2960   -0.5050 N.am  120  TYR120     -0.1974
    163  CA       -42.2300   -7.1520   -1.4090 C.3   120  TYR120      0.1639
    164  C        -40.8190   -6.5510   -1.5620 C.2   120  TYR120      0.2290
    165  O        -39.9740   -6.7660   -0.6920 O.2   120  TYR120     -0.2864
    166  CB       -43.2210   -6.1130   -0.8510 C.3   120  TYR120      0.0560
    167  CG       -42.8000   -5.5370    0.4830 C.ar  120  TYR120     -0.0198
    168  CD1      -42.0260   -4.3820    0.5460 C.ar  120  TYR120     -0.0009
    169  CD2      -43.1600   -6.1580    1.6800 C.ar  120  TYR120     -0.0009
    170  CE1      -41.6230   -3.8480    1.7640 C.ar  120  TYR120      0.0417
    171  CE2      -42.7570   -5.6350    2.9070 C.ar  120  TYR120      0.0417
    172  CZ       -41.9910   -4.4810    2.9360 C.ar  120  TYR120      0.1957
    173  OH       -41.5840   -3.9600    4.1350 O.3   120  TYR120     -0.2866
    174  N        -38.4460   -5.6120    1.5370 N.3   123  ALA123     -0.1231
    175  CA       -38.7590   -6.3530    2.7660 C.3   123  ALA123      0.1694
    176  C        -37.4790   -6.7800    3.4730 C.2   123  ALA123      0.2593
    177  O        -36.4660   -7.0340    2.8230 O.2   123  ALA123     -0.2718
    178  CB       -39.6220   -7.5720    2.4640 C.3   123  ALA123      0.0304
    179  N        -37.5290   -6.8550    4.8000 N.am  124  THR124     -0.1939
    180  CA       -36.3610   -7.2420    5.5930 C.3   124  THR124      0.2028
    181  C        -36.5540   -8.5850    6.3000 C.2   124  THR124      0.2642
    182  O        -37.6870   -9.0000    6.5590 O.2   124  THR124     -0.2714
    183  CB       -35.9800   -6.1580    6.6270 C.3   124  THR124      0.1808
    184  OG1      -37.0810   -5.9370    7.5160 O.3   124  THR124     -0.2208
    185  CG2      -35.6090   -4.8450    5.9300 C.3   124  THR124      0.0379
    186  N        -35.4440   -9.2600    6.6080 N.am  125  ASP125     -0.1957
    187  CA       -35.4970  -10.5640    7.2710 C.3   125  ASP125      0.1840
    188  C        -35.4540  -10.4640    8.8050 C.2   125  ASP125      0.2622
    189  O        -35.5130   -9.3570    9.3530 O.2   125  ASP125     -0.2715
    190  CB       -34.4200  -11.5190    6.7180 C.3   125  ASP125      0.1450
    191  CG       -32.9990  -11.1130    7.0910 C.2   125  ASP125      0.3671
    192  OD1      -32.0630  -11.7660    6.5790 O.co2 125  ASP125     -0.2456
    193  OD2      -32.8060  -10.1690    7.8870 O.co2 125  ASP125     -0.2456
    194  N        -35.3700  -11.6150    9.4800 N.am  126  SER126     -0.1950
    195  CA       -35.3340  -11.6830   10.9460 C.3   126  SER126      0.1924
    196  C        -34.1690  -10.9140   11.5730 C.2   126  SER126      0.2314
    197  O        -34.1720  -10.6710   12.7830 O.2   126  SER126     -0.2863
    198  CB       -35.2890  -13.1410   11.4290 C.3   126  SER126      0.2116
    199  OG       -36.5680  -13.7510   11.3850 O.3   126  SER126     -0.2180
    200  N        -32.0890   -7.4700    7.5290 N.3   129  ARG129     -0.1231
    201  CA       -31.4030   -7.3900    6.2360 C.3   129  ARG129      0.1679
    202  C        -32.3860   -7.3610    5.0600 C.2   129  ARG129      0.2434
    203  O        -33.3770   -8.0970    5.0680 O.2   129  ARG129     -0.2733
    204  CB       -30.4210   -8.5520    6.0680 C.3   129  ARG129      0.0321
    205  CG       -29.3720   -8.6650    7.1690 C.3   129  ARG129      0.0489
    206  CD       -28.4740   -9.8820    6.9790 C.3   129  ARG129      0.2205
    207  NE       -29.2240  -11.1420    6.9940 N.pl3 129  ARG129     -0.0865
    208  CZ       -28.6700  -12.3510    7.0430 C.cat 129  ARG129      0.5346
    209  NH1      -27.3500  -12.4830    7.0890 N.pl3 129  ARG129      0.1354
    210  NH2      -29.4370  -13.4340    7.0510 N.pl3 129  ARG129      0.1354
    211  N        -32.1090   -6.5160    4.0420 N.am  130  PRO130     -0.2718
    212  CA       -32.9590   -6.4710    2.8380 C.3   130  PRO130      0.1535
    213  C        -32.8960   -7.7600    2.0160 C.2   130  PRO130      0.2598
    214  O        -31.8090   -8.2800    1.7680 O.2   130  PRO130     -0.2715
    215  CB       -32.3960   -5.2830    2.0360 C.3   130  PRO130      0.0310
    216  CG       -31.0330   -4.9950    2.6280 C.3   130  PRO130      0.0237
    217  CD       -31.1130   -5.4220    4.0650 C.3   130  PRO130      0.0939
    218  N        -34.0630   -8.2560    1.6010 N.am  131  ILE131     -0.1964
    219  CA       -34.1810   -9.5350    0.8970 C.3   131  ILE131      0.1727
    220  C        -34.3800   -9.3460   -0.6070 C.2   131  ILE131      0.2616
    221  O        -35.4200   -8.8520   -1.0470 O.2   131  ILE131     -0.2715
    222  CB       -35.3620  -10.3740    1.4380 C.3   131  ILE131      0.0290
    223  CG1      -35.3240  -10.4600    2.9690 C.3   131  ILE131      0.0022
    224  CG2      -35.3850  -11.7630    0.7760 C.3   131  ILE131      0.0023
    225  CD1      -36.6590  -10.8710    3.5910 C.3   131  ILE131      0.0001
    226  N        -33.3910   -9.7640   -1.3930 N.am  132  LEU132     -0.1977
    227  CA       -33.4710   -9.6560   -2.8530 C.3   132  LEU132      0.1596
    228  C        -34.0400  -10.9580   -3.4260 C.2   132  LEU132      0.2287
    229  O        -33.3360  -11.7260   -4.0920 O.2   132  LEU132     -0.2864
    230  CB       -32.0950   -9.3080   -3.4540 C.3   132  LEU132      0.0297
    231  CG       -31.3340   -8.1360   -2.7990 C.3   132  LEU132      0.0022
    232  CD1      -29.9570   -7.9140   -3.4200 C.3   132  LEU132      0.0001
    233  CD2      -32.1490   -6.8380   -2.8250 C.3   132  LEU132      0.0001
@<TRIPOS>BOND
     1   160   161   ar
     2   160   158   ar
     3    98    96   ar
     4    98    99   ar
     5   161   159   ar
     6   229   228    2
     7    96    95   ar
     8    84    83    2
     9    99    97   ar
    10   230   227    1
    11   230   231    1
    12   228   227    1
    13   232   231    1
    14   158   155   ar
    15   159   157   ar
    16    83    82    1
    17    90    91    1
    18   227   226    1
    19   233   231    1
    20    95    97   ar
    21    95    94    1
    22   155   157   ar
    23   155   153   ar
    24   157   156   ar
    25    94    91    1
    26    91    92    1
    27    82    85    1
    28    82    81    1
    29   164   163    1
    30   164   165    2
    31   163   166    1
    32   163   162    1
    33   226   220   am
    34   151   150    2
    35   119   117   am
    36    85    86    1
    37   221   220    2
    38   100    92   am
    39   100   101    1
    40   153   152    1
    41   153   154   ar
    42   166   167    1
    43   156   154   ar
    44   116   117    1
    45   116   113    1
    46   220   219    1
    47   104   101    1
    48   104   105    1
    49   150   162   am
    50   150   149    1
    51    92    93    2
    52   152   149    1
    53   117   118    2
    54     1     2    1
    55   112   113    1
    56   112   102   am
    57   101   102    1
    58   120   121    1
    59   120   114   am
    60   131   130    2
    61    86    87    1
    62   113   114    1
    63   149   148    1
    64   105   107   ar
    65   105   106   ar
    66   107   109   ar
    67   167   168   ar
    68   167   169   ar
    69   168   170   ar
    70   121   122    1
    71    87    88    1
    72   127   126    2
    73   102   103    2
    74     6     7    1
    75     6     5    1
    76   224   222    1
    77   148   138   am
    78   114   115    2
    79   219   222    1
    80   219   218    1
    81     2     5    1
    82     2     3    1
    83     8     7    2
    84   106   108   ar
    85    76    75    2
    86   130   129    1
    87   130   136   am
    88   109   110   ar
    89     7     9   am
    90   222   223    1
    91   129   132    1
    92   129   128    1
    93   174   175    1
    94   218   213   am
    95   122   124   am
    96   122   123    2
    97   134   133   ar
    98   169   171   ar
    99    75    74    1
   100   126   128   am
   101   126   125    1
   102   138   139    2
   103   138   137    1
   104   170   172   ar
   105   214   213    2
   106   124   125    1
   107     3     4    2
   108   108   110   ar
   109   213   212    1
   110   215   216    1
   111   215   212    1
   112   110   111    1
   113    88    89    1
   114   133   132    1
   115   133   135   ar
   116   137   136    1
   117   137   140    1
   118   178   175    1
   119   216   217    1
   120   175   176    1
   121   177   176    2
   122   212   211    1
   123   171   172   ar
   124   172   173    1
   125   223   225    1
   126    74    73    1
   127    74    77    1
   128   143   145   ar
   129   143   141   ar
   130   176   179   am
   131   140   141    1
   132    79    77    1
   133   145   146   ar
   134    77    78    1
   135   211   217    1
   136   211   202   am
   137   141   142   ar
   138   179   180    1
   139    72    71    1
   140   202   203    2
   141   202   201    1
   142   146   147    1
   143   146   144   ar
   144    21    20    1
   145    21    22    1
   146    20    17    1
   147   142   144   ar
   148    78    80    1
   149   180   181    1
   150   180   183    1
   151    16    17    1
   152   185   183    1
   153    71    69   ar
   154    71    70   ar
   155   204   201    1
   156   204   205    1
   157    69    67   ar
   158   201   200    1
   159    17    18    1
   160   181   182    2
   161   181   186   am
   162    31    29    1
   163    22    23    2
   164    22    24   am
   165    19    18    2
   166   192   191   ar
   167    18    25   am
   168   186   187    1
   169   183   184    1
   170   190   191    1
   171   190   187    1
   172    70    68   ar
   173   206   207    1
   174   206   205    1
   175   207   208    2
   176    25    26    1
   177   208   210    1
   178   208   209    1
   179   191   193   ar
   180    67    66   ar
   181   187   188    1
   182    26    29    1
   183    26    27    1
   184    29    30    1
   185    55    53    1
   186    68    66   ar
   187    66    65    1
   188    15    14    1
   189    40    38   ar
   190    54    53    1
   191    38    37    1
   192    38    39   ar
   193    37    36    1
   194   188   189    2
   195   188   194   am
   196    27    32   am
   197    27    28    2
   198    53    50    1
   199    32    33    1
   200    65    62    1
   201    14    11    1
   202   194   195    1
   203    36    33    1
   204    13    12    2
   205    33    34    1
   206    50    51    1
   207    50    49    1
   208    52    51    2
   209    62    61    1
   210    62    63    1
   211    12    11    1
   212    11    10    1
   213    64    63    2
   214   195   198    1
   215   195   196    1
   216    35    34    2
   217    61    58   am
   218    49    43   am
   219   199   198    1
   220    60    57    1
   221    59    58    2
   222   196   197    2
   223    58    57    1
   224    57    56    1
   225    43    44    2
   226    43    42    1
   227    45    42    1
   228    45    46    1
   229    41    42    1
   230    48    46   am
   231    46    47    2
