@<TRIPOS>MOLECULE
tmp/3w6eA00.pdb
 116 112 0 0 0
SMALL
GASTEIGER

@<TRIPOS>ATOM
      1  N        -10.5070    2.2570   15.3000 N.3    47  GLU47      -0.1245
      2  CA       -11.8070    2.0620   14.6440 C.3    47  GLU47       0.1567
      3  C        -11.9370    0.6990   13.9740 C.2    47  GLU47       0.2260
      4  O        -12.8400   -0.0770   14.2700 O.2    47  GLU47      -0.2867
      5  CB       -12.0580    3.1630   13.6050 C.3    47  GLU47       0.0388
      6  CG       -12.2680    4.5490   14.1880 C.3    47  GLU47       0.1160
      7  CD       -13.4820    4.6460   15.1000 C.2    47  GLU47       0.3649
      8  OE1      -14.2900    3.6910   15.1630 O.co2  47  GLU47      -0.2457
      9  OE2      -13.6390    5.7000   15.7440 O.co2  47  GLU47      -0.2457
     10  N        -15.0830    3.9760   10.2940 N.3    66  GLN66      -0.1231
     11  CA       -16.3500    3.6050   10.9350 C.3    66  GLN66       0.1698
     12  C        -17.4000    4.7160   10.9190 C.2    66  GLN66       0.2592
     13  O        -18.1810    4.8820   11.8710 O.2    66  GLN66      -0.2718
     14  CB       -16.1050    3.0730   12.3560 C.3    66  GLN66       0.0381
     15  CG       -15.3950    1.7150   12.3910 C.3    66  GLN66       0.0905
     16  CD       -16.2790    0.5720   11.9180 C.2    66  GLN66       0.2608
     17  OE1      -16.2020    0.1320   10.7610 O.2    66  GLN66      -0.2717
     18  NE2      -17.1310    0.0920   12.8060 N.am   66  GLN66      -0.0878
     19  N        -17.4200    5.4690    9.8250 N.am   67  VAL67      -0.1966
     20  CA       -18.4350    6.4940    9.6320 C.3    67  VAL67       0.1727
     21  C        -19.7470    5.7970    9.2700 C.2    67  VAL67       0.2616
     22  O        -19.8070    5.0450    8.2940 O.2    67  VAL67      -0.2715
     23  CB       -18.0290    7.5110    8.5450 C.3    67  VAL67       0.0290
     24  CG1      -19.0290    8.6440    8.4850 C.3    67  VAL67       0.0023
     25  CG2      -16.6290    8.0630    8.8140 C.3    67  VAL67       0.0023
     26  N        -20.7800    6.0390   10.0760 N.am   68  GLN68      -0.1977
     27  CA       -22.0850    5.3860    9.9130 C.3    68  GLN68       0.1601
     28  C        -22.7860    5.8710    8.6410 C.2    68  GLN68       0.2287
     29  O        -22.5550    7.0020    8.2270 O.2    68  GLN68      -0.2864
     30  CB       -22.9570    5.6410   11.1450 C.3    68  GLN68       0.0394
     31  CG       -22.4030    5.0240   12.4280 C.3    68  GLN68       0.0908
     32  CD       -22.8820    5.7290   13.6950 C.2    68  GLN68       0.2608
     33  OE1      -22.3640    5.4760   14.7870 O.2    68  GLN68      -0.2717
     34  NE2      -23.8740    6.6150   13.5560 N.am   68  GLN68      -0.0878
     35  N        -24.3250    9.3060    8.5960 N.3    71  THR71      -0.1218
     36  CA       -23.3250   10.3620    8.7360 C.3    71  THR71       0.1862
     37  C        -22.6280   10.6320    7.4020 C.2    71  THR71       0.2287
     38  O        -22.4300   11.7970    7.0300 O.2    71  THR71      -0.2866
     39  CB       -22.2800   10.0200    9.8120 C.3    71  THR71       0.1770
     40  OG1      -22.9490    9.5680   10.9950 O.3    71  THR71      -0.2211
     41  CG2      -21.4250   11.2440   10.1530 C.3    71  THR71       0.0375
     42  N        -22.8030   14.2490    4.9900 N.3    75  TYR75      -0.1241
     43  CA       -21.6000   14.9780    4.5970 C.3    75  TYR75       0.1605
     44  C        -21.2440   14.8860    3.1100 C.2    75  TYR75       0.2264
     45  O        -20.1720   15.3410    2.7070 O.2    75  TYR75      -0.2867
     46  CB       -20.4120   14.5390    5.4670 C.3    75  TYR75       0.0534
     47  CG       -20.4080   15.1740    6.8450 C.ar   75  TYR75      -0.0201
     48  CD1      -19.8960   16.4540    7.0390 C.ar   75  TYR75      -0.0009
     49  CD2      -20.9280   14.4980    7.9520 C.ar   75  TYR75      -0.0009
     50  CE1      -19.8940   17.0500    8.3040 C.ar   75  TYR75       0.0417
     51  CE2      -20.9340   15.0840    9.2240 C.ar   75  TYR75       0.0417
     52  CZ       -20.4140   16.3580    9.3880 C.ar   75  TYR75       0.1957
     53  OH       -20.4110   16.9470   10.6320 O.3    75  TYR75      -0.2866
     54  N        -14.7160   14.7480    8.8790 N.3   102  ILE102     -0.1245
     55  CA       -15.5780   14.7660   10.0590 C.3   102  ILE102      0.1561
     56  C        -14.7570   15.0560   11.3210 C.2   102  ILE102      0.2260
     57  O        -15.1460   15.8970   12.1380 O.2   102  ILE102     -0.2867
     58  CB       -16.3910   13.4580   10.1800 C.3   102  ILE102      0.0252
     59  CG1      -17.3760   13.3560    9.0080 C.3   102  ILE102      0.0019
     60  CG2      -17.1350   13.3850   11.5240 C.3   102  ILE102      0.0019
     61  CD1      -17.9160   11.9630    8.7630 C.3   102  ILE102      0.0001
     62  N        -14.8690   18.2770   14.0100 N.3   106  LYS106     -0.1245
     63  CA       -14.9940   18.2010   15.4640 C.3   106  LYS106      0.1561
     64  C        -13.8850   18.9670   16.1850 C.2   106  LYS106      0.2260
     65  O        -14.1620   19.7290   17.1090 O.2   106  LYS106     -0.2867
     66  CB       -15.0260   16.7460   15.9530 C.3   106  LYS106      0.0271
     67  CG       -16.1300   15.8620   15.3690 C.3   106  LYS106      0.0035
     68  CD       -17.5230   16.3370   15.7430 C.3   106  LYS106      0.0206
     69  CE       -18.5660   15.3250   15.3060 C.3   106  LYS106      0.1093
     70  NZ       -19.9340   15.8780   15.4600 N.3   106  LYS106     -0.1314
     71  N        -15.8540   13.4190   20.7740 N.3   119  HIS119     -0.1226
     72  CA       -17.0450   13.6440   19.9690 C.3   119  HIS119      0.1752
     73  C        -17.0430   12.8560   18.6540 C.2   119  HIS119      0.2596
     74  O        -18.1130   12.5220   18.1420 O.2   119  HIS119     -0.2718
     75  CB       -17.2740   15.1420   19.7330 C.3   119  HIS119      0.0759
     76  CG       -17.5550   15.9100   20.9890 C.ar  119  HIS119      0.0818
     77  ND1      -18.7180   15.7530   21.7130 N.ar  119  HIS119     -0.2268
     78  CD2      -16.8190   16.8290   21.6560 C.ar  119  HIS119      0.1154
     79  CE1      -18.6870   16.5470   22.7690 C.ar  119  HIS119      0.1986
     80  NE2      -17.5480   17.2160   22.7530 N.ar  119  HIS119     -0.2212
     81  N        -15.8620   12.5500   18.1100 N.am  120  TYR120     -0.1962
     82  CA       -15.7980   11.6870   16.9220 C.3   120  TYR120      0.1771
     83  C        -16.3280   10.2960   17.2460 C.2   120  TYR120      0.2620
     84  O        -16.9900    9.6820   16.4220 O.2   120  TYR120     -0.2715
     85  CB       -14.3880   11.5910   16.3090 C.3   120  TYR120      0.0574
     86  CG       -14.3630   10.7740   15.0210 C.ar  120  TYR120     -0.0198
     87  CD1      -14.7090   11.3520   13.7990 C.ar  120  TYR120     -0.0009
     88  CD2      -14.0270    9.4170   15.0350 C.ar  120  TYR120     -0.0009
     89  CE1      -14.7150   10.6060   12.6220 C.ar  120  TYR120      0.0417
     90  CE2      -14.0290    8.6620   13.8640 C.ar  120  TYR120      0.0417
     91  CZ       -14.3700    9.2640   12.6620 C.ar  120  TYR120      0.1957
     92  OH       -14.3710    8.5250   11.5020 O.3   120  TYR120     -0.2866
     93  N        -16.0430    9.8110   18.4490 N.am  121  ASN121     -0.1958
     94  CA       -16.5140    8.4990   18.8630 C.3   121  ASN121      0.1819
     95  C        -17.9760    8.4690   19.3280 C.2   121  ASN121      0.2622
     96  O        -18.7240    7.5630   18.9590 O.2   121  ASN121     -0.2715
     97  CB       -15.6080    7.9030   19.9380 C.3   121  ASN121      0.1195
     98  CG       -15.9870    6.4750   20.2910 C.2   121  ASN121      0.2630
     99  OD1      -16.2170    5.6440   19.4060 O.2   121  ASN121     -0.2716
    100  ND2      -16.0470    6.1790   21.5860 N.am  121  ASN121     -0.0877
    101  N        -18.3770    9.4530   20.1300 N.am  122  GLY122     -0.1940
    102  CA       -19.7110    9.4440   20.7370 C.3   122  GLY122      0.2014
    103  C        -20.7560   10.3890   20.1610 C.2   122  GLY122      0.2639
    104  O        -21.9180   10.3600   20.5780 O.2   122  GLY122     -0.2714
    105  N        -20.3580   11.2170   19.1990 N.am  123  GLY123     -0.1939
    106  CA       -21.2340   12.2800   18.7060 C.3   123  GLY123      0.2014
    107  C        -21.1850   13.4780   19.6420 C.2   123  GLY123      0.2638
    108  O        -20.3990   13.5020   20.5920 O.2   123  GLY123     -0.2714
    109  N        -22.0290   14.4730   19.3770 N.am  124  ASP124     -0.1971
    110  CA       -21.9930   15.7380   20.1210 C.3   124  ASP124      0.1709
    111  C        -22.7330   15.6920   21.4630 C.2   124  ASP124      0.2293
    112  O        -22.6270   16.6230   22.2690 O.2   124  ASP124     -0.2864
    113  CB       -22.5450   16.8760   19.2560 C.3   124  ASP124      0.1436
    114  CG       -21.7230   17.1150   17.9980 C.2   124  ASP124      0.3671
    115  OD1      -20.6180   16.5450   17.8710 O.co2 124  ASP124     -0.2456
    116  OD2      -22.1880   17.8830   17.1280 O.co2 124  ASP124     -0.2456
@<TRIPOS>BOND
     1    45    44    2
     2    44    43    1
     3    43    42    1
     4    43    46    1
     5    46    47    1
     6    47    48   ar
     7    47    49   ar
     8    38    37    2
     9    48    50   ar
    10    37    36    1
    11    49    51   ar
    12    29    28    2
    13    22    21    2
    14    50    52   ar
    15    24    23    1
    16    23    25    1
    17    23    20    1
    18    35    36    1
    19    28    27    1
    20    36    39    1
    21    61    59    1
    22    54    55    1
    23    59    58    1
    24    51    52   ar
    25    21    20    1
    26    21    26   am
    27    52    53    1
    28    20    19    1
    29    39    41    1
    30    39    40    1
    31    19    12   am
    32    27    26    1
    33    27    30    1
    34    55    58    1
    35    55    56    1
    36    58    60    1
    37    10    11    1
    38    17    16    2
    39    12    11    1
    40    12    13    2
    41    11    14    1
    42    30    31    1
    43    56    57    2
    44    92    91    1
    45    16    15    1
    46    16    18   am
    47    14    15    1
    48    31    32    1
    49    89    91   ar
    50    89    87   ar
    51    91    90   ar
    52    34    32   am
    53     5     6    1
    54     5     2    1
    55    32    33    2
    56    87    86   ar
    57    90    88   ar
    58     3     4    2
    59     3     2    1
    60    62    63    1
    61     6     7    1
    62     2     1    1
    63    86    88   ar
    64    86    85    1
    65     7     8   ar
    66     7     9   ar
    67    69    70    1
    68    69    68    1
    69    67    68    1
    70    67    66    1
    71    63    66    1
    72    63    64    1
    73    64    65    2
    74    85    82    1
    75    84    83    2
    76    82    83    1
    77    82    81    1
    78   116   114   ar
    79    83    93   am
    80   115   114   ar
    81   114   113    1
    82    81    73   am
    83    74    73    2
    84    93    94    1
    85    73    72    1
    86   106   105    1
    87   106   107    1
    88    94    95    1
    89    94    97    1
    90    96    95    2
    91   105   103   am
    92   113   110    1
    93    95   101   am
    94   109   107   am
    95   109   110    1
    96    99    98    2
    97   107   108    2
    98    75    72    1
    99    75    76    1
   100    97    98    1
   101    72    71    1
   102   110   111    1
   103   101   102    1
   104   103   104    2
   105   103   102    1
   106    98   100   am
   107    76    78   ar
   108    76    77   ar
   109   111   112    2
   110    78    80   ar
   111    77    79   ar
   112    80    79   ar
