@<TRIPOS>MOLECULE
tmp/3w6eB00.pdb
 96 90 0 0 0
SMALL
GASTEIGER

@<TRIPOS>ATOM
      1  N          9.9560   23.3180    4.1250 N.3    39  GLU39      -0.1245
      2  CA        11.4060   23.1300    4.0360 C.3    39  GLU39       0.1567
      3  C         12.0680   22.8620    5.3830 C.2    39  GLU39       0.2260
      4  O         12.8700   21.9310    5.5100 O.2    39  GLU39      -0.2867
      5  CB        12.0830   24.3380    3.3670 C.3    39  GLU39       0.0388
      6  CG        11.8040   24.4930    1.8770 C.3    39  GLU39       0.1160
      7  CD        12.4220   23.3960    1.0220 C.2    39  GLU39       0.3649
      8  OE1       13.1320   22.5130    1.5520 O.co2  39  GLU39      -0.2457
      9  OE2       12.1930   23.4160   -0.2020 O.co2  39  GLU39      -0.2457
     10  N         16.1930   25.9760    2.9500 N.3    58  GLN58      -0.1231
     11  CA        16.9590   24.7820    2.5870 C.3    58  GLN58       0.1698
     12  C         17.6560   24.8670    1.2290 C.2    58  GLN58       0.2592
     13  O         17.7440   23.8700    0.5100 O.2    58  GLN58      -0.2718
     14  CB        16.0740   23.5300    2.6680 C.3    58  GLN58       0.0381
     15  CG        15.7370   23.1220    4.0880 C.3    58  GLN58       0.0905
     16  CD        16.9450   22.5730    4.8110 C.2    58  GLN58       0.2608
     17  OE1       17.6460   23.2960    5.5330 O.2    58  GLN58      -0.2717
     18  NE2       17.2140   21.2940    4.6030 N.am   58  GLN58      -0.0878
     19  N         18.1530   26.0530    0.8870 N.am   59  VAL59      -0.1966
     20  CA        18.9140   26.2270   -0.3450 C.3    59  VAL59       0.1727
     21  C         20.2990   25.6190   -0.1430 C.2    59  VAL59       0.2616
     22  O         21.0680   26.0830    0.7050 O.2    59  VAL59      -0.2715
     23  CB        19.0170   27.7210   -0.7640 C.3    59  VAL59       0.0290
     24  CG1       19.6360   27.8440   -2.1460 C.3    59  VAL59       0.0023
     25  CG2       17.6470   28.3750   -0.7560 C.3    59  VAL59       0.0023
     26  N         20.6000   24.5670   -0.9050 N.am   60  GLN60      -0.1977
     27  CA        21.8700   23.8380   -0.7670 C.3    60  GLN60       0.1601
     28  C         23.0700   24.7250   -1.1370 C.2    60  GLN60       0.2287
     29  O         22.9040   25.6800   -1.8950 O.2    60  GLN60      -0.2864
     30  CB        21.8650   22.5360   -1.5850 C.3    60  GLN60       0.0394
     31  CG        21.7860   22.7280   -3.0950 C.3    60  GLN60       0.0908
     32  CD        22.9210   22.0330   -3.8360 C.2    60  GLN60       0.2608
     33  OE1       22.7130   21.4390   -4.8940 O.2    60  GLN60      -0.2717
     34  NE2       24.1280   22.1070   -3.2800 N.am   60  GLN60      -0.0878
     35  N         23.8550   25.7720   -4.8500 N.3    63  THR63      -0.1218
     36  CA        22.7970   26.6450   -5.3570 C.3    63  THR63       0.1862
     37  C         22.9800   28.0720   -4.8330 C.2    63  THR63       0.2287
     38  O         22.8640   29.0340   -5.5970 O.2    63  THR63      -0.2866
     39  CB        21.4000   26.1060   -4.9910 C.3    63  THR63       0.1770
     40  OG1       21.2870   24.7560   -5.4480 O.3    63  THR63      -0.2211
     41  CG2       20.3070   26.9340   -5.6400 C.3    63  THR63       0.0375
     42  N         11.7640   24.4190   -7.9300 N.3   112  TYR112     -0.1227
     43  CA        12.5000   24.9060   -6.7630 C.3   112  TYR112      0.1736
     44  C         13.0570   23.6990   -6.0060 C.2   112  TYR112      0.2595
     45  O         14.2520   23.6270   -5.7280 O.2   112  TYR112     -0.2718
     46  CB        11.6190   25.7830   -5.8570 C.3   112  TYR112      0.0548
     47  CG        12.3360   26.2980   -4.6270 C.ar  112  TYR112     -0.0200
     48  CD1       13.1550   27.4220   -4.6940 C.ar  112  TYR112     -0.0009
     49  CD2       12.2060   25.6490   -3.3970 C.ar  112  TYR112     -0.0009
     50  CE1       13.8230   27.8900   -3.5740 C.ar  112  TYR112      0.0417
     51  CE2       12.8720   26.1070   -2.2660 C.ar  112  TYR112      0.0417
     52  CZ        13.6810   27.2280   -2.3620 C.ar  112  TYR112      0.1957
     53  OH        14.3410   27.6930   -1.2450 O.3   112  TYR112     -0.2866
     54  N         12.1810   22.7450   -5.7020 N.am  113  ASN113     -0.1960
     55  CA        12.5680   21.5160   -5.0160 C.3   113  ASN113      0.1819
     56  C         13.4340   20.5760   -5.8550 C.2   113  ASN113      0.2622
     57  O         14.3630   19.9630   -5.3390 O.2   113  ASN113     -0.2715
     58  CB        11.3240   20.7680   -4.5460 C.3   113  ASN113      0.1195
     59  CG        11.6490   19.6240   -3.6120 C.2   113  ASN113      0.2630
     60  OD1       12.4030   19.7840   -2.6530 O.2   113  ASN113     -0.2716
     61  ND2       11.0760   18.4600   -3.8850 N.am  113  ASN113     -0.0877
     62  N         13.1260   20.4580   -7.1440 N.am  114  GLY114     -0.1940
     63  CA        13.7590   19.4340   -7.9780 C.3   114  GLY114      0.2014
     64  C         14.8220   19.9130   -8.9460 C.2   114  GLY114      0.2639
     65  O         15.4660   19.1000   -9.6100 O.2   114  GLY114     -0.2714
     66  N         15.0100   21.2280   -9.0330 N.am  115  GLY115     -0.1954
     67  CA        15.8760   21.8120  -10.0560 C.3   115  GLY115      0.1869
     68  C         15.1630   21.8650  -11.3990 C.2   115  GLY115      0.2309
     69  O         14.0260   21.4000  -11.5330 O.2   115  GLY115     -0.2863
     70  N         18.9640   14.2790   -4.5950 N.3   124  ASP124     -0.1239
     71  CA        19.6100   15.5820   -4.3730 C.3   124  ASP124      0.1674
     72  C         21.1010   15.4590   -4.0210 C.2   124  ASP124      0.2266
     73  O         21.6480   14.3540   -4.0160 O.2   124  ASP124     -0.2867
     74  CB        18.8360   16.4150   -3.3300 C.3   124  ASP124      0.1410
     75  CG        18.9030   15.8370   -1.9140 C.2   124  ASP124      0.3668
     76  OD1       19.7500   14.9580   -1.6240 O.co2 124  ASP124     -0.2456
     77  OD2       18.1000   16.2900   -1.0690 O.co2 124  ASP124     -0.2456
     78  N         19.3950   12.0810   -1.3030 N.3   128  ARG128     -0.1245
     79  CA        18.0350   11.8410   -0.8280 C.3   128  ARG128      0.1563
     80  C         17.0510   11.9270   -1.9900 C.2   128  ARG128      0.2260
     81  O         17.2660   12.7200   -2.9120 O.2   128  ARG128     -0.2867
     82  CB        17.6460   12.8750    0.2360 C.3   128  ARG128      0.0307
     83  CG        18.6200   13.0110    1.4090 C.3   128  ARG128      0.0489
     84  CD        18.2490   14.1950    2.2990 C.3   128  ARG128      0.2205
     85  NE        18.3270   15.4750    1.5890 N.pl3 128  ARG128     -0.0865
     86  CZ        18.1730   16.6700    2.1560 C.cat 128  ARG128      0.5346
     87  NH1       17.9280   16.7700    3.4600 N.pl3 128  ARG128      0.1354
     88  NH2       18.2670   17.7750    1.4160 N.pl3 128  ARG128      0.1354
     89  N         14.1500   13.1180   -4.2400 N.3   130  ILE130     -0.1245
     90  CA        13.4060   14.3530   -4.4720 C.3   130  ILE130      0.1561
     91  C         12.0390   14.0220   -5.0670 C.2   130  ILE130      0.2260
     92  O         11.9560   13.5520   -6.2030 O.2   130  ILE130     -0.2867
     93  CB        14.1350   15.3140   -5.4480 C.3   130  ILE130      0.0252
     94  CG1       15.6030   15.5230   -5.0560 C.3   130  ILE130      0.0019
     95  CG2       13.4000   16.6450   -5.5250 C.3   130  ILE130      0.0019
     96  CD1       16.4480   16.1720   -6.1590 C.3   130  ILE130      0.0001
@<TRIPOS>BOND
     1    69    68    2
     2    68    67    1
     3    67    66    1
     4    65    64    2
     5    66    64   am
     6    64    63    1
     7    63    62    1
     8    42    43    1
     9    62    56   am
    10    43    44    1
    11    43    46    1
    12    92    91    2
    13    96    94    1
    14    44    45    2
    15    44    54   am
    16    46    47    1
    17    56    57    2
    18    56    55    1
    19    54    55    1
    20    41    39    1
    21    38    37    2
    22    95    93    1
    23    93    94    1
    24    93    90    1
    25    40    39    1
    26    36    39    1
    27    36    35    1
    28    36    37    1
    29    91    90    1
    30    55    58    1
    31    33    32    2
    32    48    47   ar
    33    48    50   ar
    34    47    49   ar
    35    70    71    1
    36    58    59    1
    37    90    89    1
    38    71    72    1
    39    71    74    1
    40    72    73    2
    41    61    59   am
    42    32    34   am
    43    32    31    1
    44    59    60    2
    45    50    52   ar
    46    49    51   ar
    47    74    75    1
    48    31    30    1
    49    81    80    2
    50    52    51   ar
    51    52    53    1
    52    24    23    1
    53    80    79    1
    54    75    76   ar
    55    75    77   ar
    56    29    28    2
    57    30    27    1
    58    78    79    1
    59    28    27    1
    60    26    27    1
    61    26    21   am
    62    79    82    1
    63    23    25    1
    64    23    20    1
    65    20    21    1
    66    20    19    1
    67     9     7   ar
    68    21    22    2
    69    82    83    1
    70    13    12    2
    71    19    12   am
    72     7     8   ar
    73     7     6    1
    74    12    11    1
    75    83    84    1
    76    88    86    1
    77    85    86    2
    78    85    84    1
    79     6     5    1
    80    86    87    1
    81    11    14    1
    82    11    10    1
    83    14    15    1
    84     5     2    1
    85     2     1    1
    86     2     3    1
    87    15    16    1
    88    18    16   am
    89    16    17    2
    90     3     4    2
