@<TRIPOS>MOLECULE
tmp/3w6fC00.pdb
 191 188 0 0 0
SMALL
GASTEIGER

@<TRIPOS>ATOM
      1  N        -27.3800  -20.3510   -0.1850 N.3    39  GLU39      -0.1245
      2  CA       -27.6880  -19.9160    1.1860 C.3    39  GLU39       0.1567
      3  C        -26.4910  -19.9510    2.1340 C.2    39  GLU39       0.2260
      4  O        -26.2670  -19.0050    2.8930 O.2    39  GLU39      -0.2867
      5  CB       -28.8250  -20.7540    1.7790 C.3    39  GLU39       0.0388
      6  CG       -30.1580  -20.6310    1.0620 C.3    39  GLU39       0.1160
      7  CD       -30.9810  -19.4400    1.4880 C.2    39  GLU39       0.3649
      8  OE1      -30.4690  -18.5440    2.1890 O.co2  39  GLU39      -0.2457
      9  OE2      -32.1670  -19.4040    1.1100 O.co2  39  GLU39      -0.2457
     10  N        -30.6550  -21.9590    5.6910 N.3    58  GLN58      -0.1231
     11  CA       -30.8250  -20.5940    6.1910 C.3    58  GLN58       0.1698
     12  C        -32.2790  -20.2200    6.4670 C.2    58  GLN58       0.2592
     13  O        -32.6990  -19.0870    6.2240 O.2    58  GLN58      -0.2718
     14  CB       -30.1780  -19.6040    5.2240 C.3    58  GLN58       0.0381
     15  CG       -28.6640  -19.6670    5.2350 C.3    58  GLN58       0.0905
     16  CD       -28.1010  -19.0950    6.5100 C.2    58  GLN58       0.2608
     17  OE1      -27.5970  -19.8210    7.3660 O.2    58  GLN58      -0.2717
     18  NE2      -28.2120  -17.7910    6.6570 N.am   58  GLN58      -0.0878
     19  N        -33.0380  -21.1870    6.9770 N.am   59  VAL59      -0.1966
     20  CA       -34.4030  -20.9400    7.4240 C.3    59  VAL59       0.1727
     21  C        -34.3260  -20.1920    8.7540 C.2    59  VAL59       0.2616
     22  O        -33.7720  -20.6980    9.7360 O.2    59  VAL59      -0.2715
     23  CB       -35.2030  -22.2490    7.6060 C.3    59  VAL59       0.0290
     24  CG1      -36.6750  -21.9380    7.8230 C.3    59  VAL59       0.0023
     25  CG2      -35.0250  -23.1650    6.4060 C.3    59  VAL59       0.0023
     26  N        -34.8750  -18.9800    8.7640 N.am   60  GLN60      -0.1977
     27  CA       -34.8020  -18.0980    9.9240 C.3    60  GLN60       0.1601
     28  C        -35.7050  -18.6240   11.0530 C.2    60  GLN60       0.2287
     29  O        -36.6840  -19.3340   10.7780 O.2    60  GLN60      -0.2864
     30  CB       -35.1230  -16.6570    9.5000 C.3    60  GLN60       0.0394
     31  CG       -34.5260  -16.3360    8.1220 C.3    60  GLN60       0.0908
     32  CD       -34.0460  -14.9020    7.9400 C.2    60  GLN60       0.2608
     33  OE1      -34.7390  -13.9380    8.2930 O.2    60  GLN60      -0.2717
     34  NE2      -32.8560  -14.7570    7.3510 N.am   60  GLN60      -0.0878
     35  N        -38.1090  -17.7500   13.2160 N.3    62  ASN62      -0.1225
     36  CA       -39.5720  -17.6030   13.1910 C.3    62  ASN62       0.1785
     37  C        -40.2790  -18.4590   12.1430 C.2    62  ASN62       0.2597
     38  O        -41.4110  -18.8950   12.3570 O.2    62  ASN62      -0.2718
     39  CB       -39.9790  -16.1350   13.0220 C.3    62  ASN62       0.1169
     40  CG       -39.7430  -15.3190   14.2730 C.2    62  ASN62       0.2627
     41  OD1      -39.7240  -15.8500   15.3850 O.2    62  ASN62      -0.2716
     42  ND2      -39.5670  -14.0130   14.1000 N.am   62  ASN62      -0.0877
     43  N        -39.6080  -18.6900   11.0150 N.am   63  THR63      -0.1953
     44  CA       -40.1310  -19.5850    9.9810 C.3    63  THR63       0.1897
     45  C        -40.0250  -21.0610   10.4060 C.2    63  THR63       0.2313
     46  O        -40.9920  -21.8200   10.2520 O.2    63  THR63      -0.2863
     47  CB       -39.4690  -19.3340    8.6090 C.3    63  THR63       0.1794
     48  OG1      -39.6510  -17.9610    8.2420 O.3    63  THR63      -0.2208
     49  CG2      -40.0930  -20.2270    7.5320 C.3    63  THR63       0.0378
     50  N        -42.8070  -21.7820   12.8320 N.3    66  ALA66      -0.1231
     51  CA       -44.1390  -21.8650   12.2210 C.3    66  ALA66       0.1694
     52  C        -44.4040  -23.2100   11.5280 C.2    66  ALA66       0.2592
     53  O        -45.5600  -23.5980   11.3360 O.2    66  ALA66      -0.2718
     54  CB       -44.3460  -20.7150   11.2490 C.3    66  ALA66       0.0304
     55  N        -43.3340  -23.9120   11.1580 N.am   67  TYR67      -0.1976
     56  CA       -43.4440  -25.1790   10.4250 C.3    67  TYR67       0.1639
     57  C        -43.1920  -26.4270   11.2800 C.2    67  TYR67       0.2290
     58  O        -43.1660  -27.5440   10.7560 O.2    67  TYR67      -0.2864
     59  CB       -42.5170  -25.1730    9.2060 C.3    67  TYR67       0.0560
     60  CG       -43.0640  -24.4120    8.0180 C.ar   67  TYR67      -0.0198
     61  CD1      -44.0010  -24.9930    7.1630 C.ar   67  TYR67      -0.0009
     62  CD2      -42.6380  -23.1140    7.7400 C.ar   67  TYR67      -0.0009
     63  CE1      -44.5030  -24.2980    6.0610 C.ar   67  TYR67       0.0417
     64  CE2      -43.1370  -22.4110    6.6410 C.ar   67  TYR67       0.0417
     65  CZ       -44.0650  -23.0100    5.8100 C.ar   67  TYR67       0.1957
     66  OH       -44.5550  -22.3220    4.7250 O.3    67  TYR67      -0.2866
     67  N        -40.5600  -26.6520    3.4470 N.3    94  ILE94      -0.1245
     68  CA       -41.0100  -25.2870    3.1770 C.3    94  ILE94       0.1561
     69  C        -40.9730  -24.9850    1.6810 C.2    94  ILE94       0.2260
     70  O        -41.9700  -24.5250    1.1200 O.2    94  ILE94      -0.2867
     71  CB       -40.1870  -24.2490    3.9690 C.3    94  ILE94       0.0252
     72  CG1      -40.3100  -24.5310    5.4680 C.3    94  ILE94       0.0019
     73  CG2      -40.6500  -22.8140    3.6470 C.3    94  ILE94       0.0019
     74  CD1      -39.2470  -23.8820    6.3110 C.3    94  ILE94       0.0001
     75  N        -44.1480  -24.3320   -0.8670 N.3    98  LYS98      -0.1245
     76  CA       -44.3280  -23.1070   -1.6340 C.3    98  LYS98       0.1561
     77  C        -44.4090  -23.3610   -3.1320 C.2    98  LYS98       0.2260
     78  O        -45.1840  -22.7020   -3.8310 O.2    98  LYS98      -0.2867
     79  CB       -43.2490  -22.0780   -1.2910 C.3    98  LYS98       0.0271
     80  CG       -43.3380  -21.6310    0.1610 C.3    98  LYS98       0.0035
     81  CD       -42.7300  -20.2760    0.3890 C.3    98  LYS98       0.0206
     82  CE       -42.7620  -19.9180    1.8680 C.3    98  LYS98       0.1093
     83  NZ       -44.1620  -19.8000    2.3690 N.3    98  LYS98      -0.1314
     84  N        -39.9100  -18.6050   -1.0030 N.3   112  TYR112     -0.1227
     85  CA       -39.0830  -19.2470    0.0170 C.3   112  TYR112      0.1736
     86  C        -38.1710  -18.1780    0.6080 C.2   112  TYR112      0.2595
     87  O        -38.1110  -17.9990    1.8250 O.2   112  TYR112     -0.2718
     88  CB       -38.2690  -20.4050   -0.5740 C.3   112  TYR112      0.0548
     89  CG       -37.3120  -21.0620    0.4050 C.ar  112  TYR112     -0.0200
     90  CD1      -37.7180  -22.1440    1.1940 C.ar  112  TYR112     -0.0009
     91  CD2      -36.0030  -20.6020    0.5420 C.ar  112  TYR112     -0.0009
     92  CE1      -36.8420  -22.7480    2.0940 C.ar  112  TYR112      0.0417
     93  CE2      -35.1210  -21.1950    1.4370 C.ar  112  TYR112      0.0417
     94  CZ       -35.5440  -22.2710    2.2060 C.ar  112  TYR112      0.1957
     95  OH       -34.6730  -22.8510    3.0950 O.3   112  TYR112     -0.2866
     96  N        -37.4910  -17.4430   -0.2660 N.am  113  ASN113     -0.1960
     97  CA       -36.5440  -16.4370    0.1680 C.3   113  ASN113      0.1819
     98  C        -37.2010  -15.1700    0.7150 C.2   113  ASN113      0.2622
     99  O        -36.6570  -14.5310    1.6170 O.2   113  ASN113     -0.2715
    100  CB       -35.5810  -16.0910   -0.9650 C.3   113  ASN113      0.1195
    101  CG       -34.5230  -15.0790   -0.5490 C.2   113  ASN113      0.2630
    102  OD1      -33.7900  -15.2820    0.4230 O.2   113  ASN113     -0.2716
    103  ND2      -34.4340  -13.9900   -1.2900 N.am  113  ASN113     -0.0877
    104  N        -38.3610  -14.8060    0.1790 N.am  114  GLY114     -0.1940
    105  CA       -39.0030  -13.5500    0.5680 C.3   114  GLY114      0.2014
    106  C        -40.2370  -13.6660    1.4470 C.2   114  GLY114      0.2639
    107  O        -40.7470  -12.6600    1.9330 O.2   114  GLY114     -0.2714
    108  N        -40.7230  -14.8880    1.6540 N.am  115  GLY115     -0.1939
    109  CA       -42.0100  -15.0890    2.3240 C.3   115  GLY115      0.2014
    110  C        -43.1310  -14.8880    1.3210 C.2   115  GLY115      0.2639
    111  O        -42.8920  -14.4070    0.2080 O.2   115  GLY115     -0.2714
    112  N        -44.3550  -15.2470    1.7030 N.am  116  ASP116     -0.1957
    113  CA       -45.4900  -15.1900    0.7730 C.3   116  ASP116      0.1840
    114  C        -45.8840  -13.7680    0.3830 C.2   116  ASP116      0.2622
    115  O        -46.5500  -13.5560   -0.6310 O.2   116  ASP116     -0.2715
    116  CB       -46.7030  -15.9210    1.3500 C.3   116  ASP116      0.1450
    117  CG       -46.4310  -17.3980    1.6220 C.2   116  ASP116      0.3671
    118  OD1      -45.4150  -17.9390    1.1260 O.co2 116  ASP116     -0.2456
    119  OD2      -47.2400  -18.0160    2.3440 O.co2 116  ASP116     -0.2456
    120  N        -45.4550  -12.7980    1.1810 N.am  117  TYR117     -0.1960
    121  CA       -45.9180  -11.4250    1.0280 C.3   117  TYR117      0.1771
    122  C        -44.7700  -10.4620    0.7410 C.2   117  TYR117      0.2620
    123  O        -44.8050   -9.2920    1.1300 O.2   117  TYR117     -0.2715
    124  CB       -46.7500  -11.0280    2.2550 C.3   117  TYR117      0.0574
    125  CG       -47.9000  -11.9940    2.4570 C.ar  117  TYR117     -0.0198
    126  CD1      -47.8570  -12.9620    3.4650 C.ar  117  TYR117     -0.0009
    127  CD2      -49.0030  -11.9830    1.5960 C.ar  117  TYR117     -0.0009
    128  CE1      -48.9030  -13.8750    3.6320 C.ar  117  TYR117      0.0417
    129  CE2      -50.0530  -12.8830    1.7530 C.ar  117  TYR117      0.0417
    130  CZ       -49.9960  -13.8280    2.7710 C.ar  117  TYR117      0.1957
    131  OH       -51.0300  -14.7230    2.9230 O.3   117  TYR117     -0.2866
    132  N        -43.7690  -10.9740    0.0250 N.am  118  TRP118     -0.1960
    133  CA       -42.5990  -10.1980   -0.3700 C.3   118  TRP118      0.1771
    134  C        -42.9540   -9.0440   -1.3070 C.2   118  TRP118      0.2619
    135  O        -43.8990   -9.1240   -2.0940 O.2   118  TRP118     -0.2715
    136  CB       -41.5540  -11.1040   -1.0350 C.3   118  TRP118      0.0590
    137  CG       -40.3220  -10.3680   -1.4780 C.ar  118  TRP118      0.0006
    138  CD1      -39.2380  -10.0540   -0.7120 C.ar  118  TRP118      0.0946
    139  CD2      -40.0590   -9.8350   -2.7830 C.ar  118  TRP118      0.0152
    140  NE1      -38.3110   -9.3730   -1.4580 N.ar  118  TRP118     -0.2442
    141  CE2      -38.7900   -9.2180   -2.7320 C.ar  118  TRP118      0.0810
    142  CE3      -40.7750   -9.8140   -3.9900 C.ar  118  TRP118      0.0012
    143  CZ2      -38.2120   -8.5930   -3.8470 C.ar  118  TRP118      0.0191
    144  CZ3      -40.1990   -9.1990   -5.1000 C.ar  118  TRP118      0.0001
    145  CH2      -38.9290   -8.5980   -5.0190 C.ar  118  TRP118      0.0015
    146  N        -42.1800   -7.9720   -1.2070 N.am  119  TYR119     -0.1974
    147  CA       -42.2690   -6.8470   -2.1260 C.3   119  TYR119      0.1639
    148  C        -40.8490   -6.3120   -2.2770 C.2   119  TYR119      0.2290
    149  O        -40.0240   -6.5410   -1.3950 O.2   119  TYR119     -0.2864
    150  CB       -43.2180   -5.7680   -1.5750 C.3   119  TYR119      0.0560
    151  CG       -42.8660   -5.2950   -0.1770 C.ar  119  TYR119     -0.0198
    152  CD1      -42.0380   -4.1920    0.0230 C.ar  119  TYR119     -0.0009
    153  CD2      -43.3450   -5.9650    0.9460 C.ar  119  TYR119     -0.0009
    154  CE1      -41.7010   -3.7630    1.3090 C.ar  119  TYR119      0.0417
    155  CE2      -43.0130   -5.5480    2.2320 C.ar  119  TYR119      0.0417
    156  CZ       -42.1960   -4.4480    2.4050 C.ar  119  TYR119      0.1957
    157  OH       -41.8700   -4.0460    3.6790 O.3   119  TYR119     -0.2866
    158  N        -38.4440   -5.2630    0.8440 N.3   122  ALA122     -0.1231
    159  CA       -38.7130   -5.9950    2.0860 C.3   122  ALA122      0.1694
    160  C        -37.4220   -6.4540    2.7630 C.2   122  ALA122      0.2593
    161  O        -36.4060   -6.6650    2.0940 O.2   122  ALA122     -0.2718
    162  CB       -39.6240   -7.1730    1.8270 C.3   122  ALA122      0.0304
    163  N        -37.4670   -6.5990    4.0870 N.am  123  THR123     -0.1939
    164  CA       -36.3000   -7.0150    4.8700 C.3   123  THR123      0.2028
    165  C        -36.5680   -8.2910    5.6720 C.2   123  THR123      0.2642
    166  O        -37.7160   -8.5790    6.0300 O.2   123  THR123     -0.2714
    167  CB       -35.8380   -5.9090    5.8460 C.3   123  THR123      0.1808
    168  OG1      -36.9010   -5.6090    6.7560 O.3   123  THR123     -0.2208
    169  CG2      -35.4350   -4.6420    5.0950 C.3   123  THR123      0.0379
    170  N        -35.4990   -9.0390    5.9530 N.am  124  ASP124     -0.1957
    171  CA       -35.5760  -10.2730    6.7430 C.3   124  ASP124      0.1840
    172  C        -35.4650  -10.0250    8.2570 C.2   124  ASP124      0.2622
    173  O        -35.3900   -8.8760    8.6990 O.2   124  ASP124     -0.2715
    174  CB       -34.5250  -11.2950    6.2600 C.3   124  ASP124      0.1450
    175  CG       -33.0870  -10.9400    6.6750 C.2   124  ASP124      0.3671
    176  OD1      -32.1660  -11.7140    6.3210 O.co2 124  ASP124     -0.2456
    177  OD2      -32.8590   -9.9150    7.3540 O.co2 124  ASP124     -0.2456
    178  N        -35.4340  -11.1100    9.0330 N.am  125  SER125     -0.1950
    179  CA       -35.3380  -11.0570   10.4970 C.3   125  SER125      0.1924
    180  C        -34.1120  -10.3190   11.0500 C.2   125  SER125      0.2314
    181  O        -34.0560  -10.0250   12.2440 O.2   125  SER125     -0.2863
    182  CB       -35.3830  -12.4720   11.0850 C.3   125  SER125      0.2116
    183  OG       -36.6840  -13.0200   11.0040 O.3   125  SER125     -0.2180
    184  N        -34.0710   -8.1500    1.1560 N.3   130  ILE130     -0.1245
    185  CA       -34.3600   -9.4070    0.4830 C.3   130  ILE130      0.1561
    186  C        -34.5180   -9.1700   -1.0140 C.2   130  ILE130      0.2260
    187  O        -35.4930   -8.5590   -1.4610 O.2   130  ILE130     -0.2867
    188  CB       -35.6150  -10.1050    1.0560 C.3   130  ILE130      0.0252
    189  CG1      -35.4550  -10.3770    2.5570 C.3   130  ILE130      0.0019
    190  CG2      -35.9000  -11.4080    0.3090 C.3   130  ILE130      0.0019
    191  CD1      -36.7390  -10.8490    3.2330 C.3   130  ILE130      0.0001
@<TRIPOS>BOND
     1   144   145   ar
     2   144   142   ar
     3   145   143   ar
     4   142   139   ar
     5   143   141   ar
     6    78    77    2
     7    77    76    1
     8   139   141   ar
     9   139   137   ar
    10   141   140   ar
    11   148   147    1
    12   148   149    2
    13   147   150    1
    14   147   146    1
    15   135   134    2
    16    76    79    1
    17    76    75    1
    18   150   151    1
    19   137   136    1
    20   137   138   ar
    21   187   186    2
    22   140   138   ar
    23   134   146   am
    24   134   133    1
    25    79    80    1
    26   103   101   am
    27   136   133    1
    28   186   185    1
    29    84    85    1
    30   100   101    1
    31   100    97    1
    32   115   114    2
    33    88    85    1
    34    88    89    1
    35   101   102    2
    36   133   132    1
    37    96    97    1
    38    96    86   am
    39     1     2    1
    40   151   152   ar
    41   151   153   ar
    42    85    86    1
    43   152   154   ar
    44   132   122   am
    45    80    81    1
    46    97    98    1
    47   104   105    1
    48   104    98   am
    49   111   110    2
    50   190   188    1
    51   114   113    1
    52   114   120   am
    53    81    82    1
    54    89    91   ar
    55    89    90   ar
    56   185   188    1
    57   185   184    1
    58    91    93   ar
    59   105   106    1
    60    86    87    2
    61    98    99    2
    62   122   121    1
    63   122   123    2
    64   113   116    1
    65   113   112    1
    66   158   159    1
    67   153   155   ar
    68   121   120    1
    69   121   124    1
    70   188   189    1
    71     6     7    1
    72     6     5    1
    73     9     7   ar
    74    70    69    2
    75   118   117   ar
    76     2     5    1
    77     2     3    1
    78    90    92   ar
    79   154   156   ar
    80   110   112   am
    81   110   109    1
    82   116   117    1
    83    93    94   ar
    84   106   108   am
    85   106   107    2
    86     7     8   ar
    87   127   129   ar
    88   127   125   ar
    89   117   119   ar
    90   108   109    1
    91    69    68    1
    92   129   130   ar
    93   162   159    1
    94    82    83    1
    95   159   160    1
    96   161   160    2
    97    92    94   ar
    98     3     4    2
    99    94    95    1
   100   155   156   ar
   101   124   125    1
   102   156   157    1
   103   125   126   ar
   104   189   191    1
   105   160   163   am
   106   130   131    1
   107   130   128   ar
   108    68    67    1
   109    68    71    1
   110   126   128   ar
   111    73    71    1
   112    71    72    1
   113   163   164    1
   114    66    65    1
   115   164   165    1
   116   164   167    1
   117   169   167    1
   118    14    15    1
   119    14    11    1
   120    15    16    1
   121    72    74    1
   122   165   170   am
   123   165   166    2
   124    10    11    1
   125    65    63   ar
   126    65    64   ar
   127   167   168    1
   128   170   171    1
   129    63    61   ar
   130    11    12    1
   131    13    12    2
   132   174   175    1
   133   174   171    1
   134   176   175   ar
   135    25    23    1
   136    12    19   am
   137    16    18   am
   138    16    17    2
   139    64    62   ar
   140   175   177   ar
   141   171   172    1
   142    19    20    1
   143    61    60   ar
   144    34    32   am
   145    20    23    1
   146    20    21    1
   147    49    47    1
   148    23    24    1
   149    62    60   ar
   150    32    31    1
   151    32    33    2
   152    60    59    1
   153    31    30    1
   154    48    47    1
   155   172   173    2
   156   172   178   am
   157    47    44    1
   158    21    26   am
   159    21    22    2
   160    26    27    1
   161   178   179    1
   162    59    56    1
   163    30    27    1
   164    27    28    1
   165    44    45    1
   166    44    43    1
   167    46    45    2
   168    56    55    1
   169    56    57    1
   170   179   180    1
   171   179   182    1
   172    58    57    2
   173    29    28    2
   174   183   182    1
   175    43    37   am
   176   180   181    2
   177    55    52   am
   178    54    51    1
   179    53    52    2
   180    52    51    1
   181    37    38    2
   182    37    36    1
   183    51    50    1
   184    39    36    1
   185    39    40    1
   186    36    35    1
   187    42    40   am
   188    40    41    2
