@<TRIPOS>MOLECULE
tmp/3w6gL01.pdb
 72 69 0 0 0
SMALL
GASTEIGER

@<TRIPOS>ATOM
      1  N         84.4300   34.9490   54.1900 N.3    38  PRO38      -0.2102
      2  CA        85.0940   33.9870   55.0730 C.3    38  PRO38       0.1504
      3  C         86.5650   34.2500   55.3810 C.2    38  PRO38       0.2575
      4  O         86.9380   34.3750   56.5470 O.2    38  PRO38      -0.2718
      5  CB        84.8800   32.6610   54.3540 C.3    38  PRO38       0.0282
      6  CG        83.5380   32.8600   53.7030 C.3    38  PRO38       0.0208
      7  CD        83.6710   34.2480   53.1350 C.3    38  PRO38       0.0893
      8  N         87.4030   34.3320   54.3510 N.am   39  ALA39      -0.1980
      9  CA        88.8280   34.5550   54.5950 C.3    39  ALA39       0.1597
     10  C         89.6010   35.0360   53.3780 C.2    39  ALA39       0.2287
     11  O         89.2060   34.7870   52.2410 O.2    39  ALA39      -0.2864
     12  CB        89.4630   33.2660   55.1120 C.3    39  ALA39       0.0319
     13  N         91.2130   32.9640   49.5730 N.3    42  THR42      -0.1204
     14  CA        90.2870   31.8560   49.3600 C.3    42  THR42       0.1979
     15  C         89.6460   32.1780   48.0040 C.2    42  THR42       0.2460
     16  O         89.3750   33.3400   47.6940 O.2    42  THR42      -0.2732
     17  CB        89.2150   31.7320   50.4770 C.3    42  THR42       0.1783
     18  OG1       88.5770   32.9930   50.6930 O.3    42  THR42      -0.2211
     19  CG2       89.8590   31.2430   51.7680 C.3    42  THR42       0.0376
     20  N         89.3960   31.1480   47.1840 N.am   43  PRO43      -0.2717
     21  CA        88.8110   31.2790   45.8450 C.3    43  PRO43       0.1535
     22  C         87.5090   32.0690   45.6530 C.2    43  PRO43       0.2598
     23  O         87.5060   33.0790   44.9450 O.2    43  PRO43      -0.2715
     24  CB        88.7190   29.8290   45.3710 C.3    43  PRO43       0.0310
     25  CG        88.4990   29.0700   46.6440 C.3    43  PRO43       0.0237
     26  CD        89.4500   29.7350   47.6040 C.3    43  PRO43       0.0939
     27  N         86.4110   31.6220   46.2590 N.am   44  VAL44      -0.1964
     28  CA        85.1340   32.3200   46.1120 C.3    44  VAL44       0.1727
     29  C         85.2230   33.7890   46.5140 C.2    44  VAL44       0.2616
     30  O         84.6870   34.6640   45.8330 O.2    44  VAL44      -0.2715
     31  CB        84.0250   31.6410   46.9390 C.3    44  VAL44       0.0290
     32  CG1       82.7020   32.3820   46.7520 C.3    44  VAL44       0.0023
     33  CG2       83.8740   30.1860   46.4940 C.3    44  VAL44       0.0023
     34  N         85.9060   34.0620   47.6190 N.am   45  CYS45      -0.1968
     35  CA        86.0490   35.4330   48.0800 C.3    45  CYS45       0.1712
     36  C         86.7410   36.2870   47.0110 C.2    45  CYS45       0.2296
     37  O         86.3630   37.4380   46.7810 O.2    45  CYS45      -0.2864
     38  CB        86.8320   35.4620   49.3990 C.3    45  CYS45       0.0983
     39  SG        86.0530   34.4810   50.7190 S.3    45  CYS45      -0.0798
     40  N         84.6750   32.0670   61.7600 N.3   117  ILE117     -0.1245
     41  CA        84.8770   33.0320   60.6880 C.3   117  ILE117      0.1561
     42  C         83.5090   33.4220   60.1380 C.2   117  ILE117      0.2260
     43  O         82.5280   32.7020   60.3290 O.2   117  ILE117     -0.2867
     44  CB        85.7530   32.4590   59.5490 C.3   117  ILE117      0.0252
     45  CG1       85.0910   31.2260   58.9330 C.3   117  ILE117      0.0019
     46  CG2       87.1300   32.1010   60.0940 C.3   117  ILE117      0.0019
     47  CD1       85.9020   30.5950   57.8080 C.3   117  ILE117      0.0001
     48  N         79.0050   34.8700   54.2450 N.3   120  ARG120     -0.1245
     49  CA        78.9420   35.9090   53.2250 C.3   120  ARG120      0.1563
     50  C         77.7680   36.8170   53.5510 C.2   120  ARG120      0.2260
     51  O         76.6930   36.6930   52.9680 O.2   120  ARG120     -0.2867
     52  CB        78.7790   35.2670   51.8460 C.3   120  ARG120      0.0307
     53  CG        79.9050   34.2920   51.5610 C.3   120  ARG120      0.0489
     54  CD        79.9090   33.7260   50.1500 C.3   120  ARG120      0.2205
     55  NE        81.0130   32.7840   50.0390 N.pl3 120  ARG120     -0.0865
     56  CZ        82.2960   33.1320   50.0210 C.cat 120  ARG120      0.5346
     57  NH1       83.2280   32.1980   49.9400 N.pl3 120  ARG120      0.1354
     58  NH2       82.6500   34.4120   50.0490 N.pl3 120  ARG120      0.1354
     59  N         79.3520   30.1470   53.0740 N.3   139  ALA139     -0.1231
     60  CA        80.6860   30.1940   52.4920 C.3   139  ALA139      0.1694
     61  C         80.7690   29.4660   51.1530 C.2   139  ALA139      0.2591
     62  O         81.4980   29.8870   50.2620 O.2   139  ALA139     -0.2718
     63  CB        81.6950   29.5900   53.4610 C.3   139  ALA139      0.0304
     64  N         80.0230   28.3760   51.0060 N.am  140  GLU140     -0.1979
     65  CA        80.0820   27.6100   49.7690 C.3   140  GLU140      0.1602
     66  C         79.3820   28.2340   48.5650 C.2   140  GLU140      0.2287
     67  O         79.5370   27.7480   47.4440 O.2   140  GLU140     -0.2864
     68  CB        79.5430   26.1870   49.9860 C.3   140  GLU140      0.0415
     69  CG        78.0460   26.0800   50.3040 C.3   140  GLU140      0.1163
     70  CD        77.7450   26.0630   51.8000 C.2   140  GLU140      0.3649
     71  OE1       76.5780   25.7750   52.1590 O.co2 140  GLU140     -0.2457
     72  OE2       78.6670   26.3360   52.6110 O.co2 140  GLU140     -0.2457
@<TRIPOS>BOND
     1    23    22    2
     2    24    21    1
     3    24    25    1
     4    22    21    1
     5    22    27   am
     6    30    29    2
     7    21    20    1
     8    28    27    1
     9    28    29    1
    10    28    31    1
    11    33    31    1
    12    29    34   am
    13    25    26    1
    14    32    31    1
    15    37    36    2
    16    36    35    1
    17    20    26    1
    18    20    15   am
    19    67    66    2
    20    34    35    1
    21    16    15    2
    22    15    14    1
    23    35    38    1
    24    66    65    1
    25    14    13    1
    26    14    17    1
    27    38    39    1
    28    65    68    1
    29    65    64    1
    30    57    56    1
    31    68    69    1
    32    56    55    2
    33    56    58    1
    34    55    54    1
    35    54    53    1
    36    62    61    2
    37    69    70    1
    38    17    18    1
    39    17    19    1
    40    64    61   am
    41    61    60    1
    42    53    52    1
    43    70    71   ar
    44    70    72   ar
    45    52    49    1
    46    11    10    2
    47    60    59    1
    48    60    63    1
    49    51    50    2
    50     7     6    1
    51     7     1    1
    52    49    50    1
    53    49    48    1
    54    10     9    1
    55     6     5    1
    56     1     2    1
    57     8     9    1
    58     8     3   am
    59     5     2    1
    60     9    12    1
    61     2     3    1
    62     3     4    2
    63    47    45    1
    64    45    44    1
    65    44    46    1
    66    44    41    1
    67    42    43    2
    68    42    41    1
    69    41    40    1
