@<TRIPOS>MOLECULE
tmp/3w6hA00.pdb
 106 99 0 0 0
SMALL
GASTEIGER

@<TRIPOS>ATOM
      1  N         41.1000    7.9120   15.1320 N.3    56  ILE56      -0.1245
      2  CA        41.0260    7.0330   16.3080 C.3    56  ILE56       0.1561
      3  C         41.4810    5.5940   16.0290 C.2    56  ILE56       0.2260
      4  O         41.2640    5.0460   14.9490 O.2    56  ILE56      -0.2867
      5  CB        39.6180    7.0710   16.9580 C.3    56  ILE56       0.0252
      6  CG1       39.3870    5.8130   17.8060 C.3    56  ILE56       0.0019
      7  CG2       38.5440    7.2110   15.9030 C.3    56  ILE56       0.0019
      8  CD1       38.1800    4.9990   17.3860 C.3    56  ILE56       0.0001
      9  N         41.2830    1.7540   16.4800 N.3    58  VAL58      -0.1245
     10  CA        40.2940    0.7510   16.8730 C.3    58  VAL58       0.1561
     11  C         40.9140   -0.6380   17.0350 C.2    58  VAL58       0.2260
     12  O         40.1860   -1.6420   17.0760 O.2    58  VAL58      -0.2867
     13  CB        39.0920    0.6970   15.8820 C.3    58  VAL58       0.0252
     14  CG1       38.6830    2.1050   15.4510 C.3    58  VAL58       0.0019
     15  CG2       39.4350   -0.1510   14.6670 C.3    58  VAL58       0.0019
     16  N         40.6500    4.6250   12.0760 N.3    63  HIS63      -0.1241
     17  CA        39.6510    5.2620   11.2560 C.3    63  HIS63       0.1621
     18  C         39.8120    6.7460   11.3480 C.2    63  HIS63       0.2264
     19  O         40.2630    7.2940   12.3650 O.2    63  HIS63      -0.2867
     20  CB        38.2170    4.9840   11.6680 C.3    63  HIS63       0.0745
     21  CG        37.7990    3.5250   11.6380 C.ar   63  HIS63       0.0817
     22  ND1       36.8390    2.9900   12.4210 N.ar   63  HIS63      -0.2268
     23  CD2       38.3170    2.5260   10.8290 C.ar   63  HIS63       0.1154
     24  CE1       36.7420    1.6600   12.1120 C.ar   63  HIS63       0.1986
     25  NE2       37.6610    1.3710   11.1200 N.ar   63  HIS63      -0.2212
     26  N         37.2390    9.8630   11.0940 N.3    65  ASN65      -0.1240
     27  CA        35.7950   10.0290   11.1940 C.3    65  ASN65       0.1653
     28  C         35.2600   11.4040   10.7660 C.2    65  ASN65       0.2266
     29  O         35.9410   12.4230   10.9280 O.2    65  ASN65      -0.2867
     30  CB        35.3110    9.6700   12.6030 C.3    65  ASN65       0.1155
     31  CG        35.1280    8.1780   12.7950 C.2    65  ASN65       0.2627
     32  OD1       34.6370    7.4840   11.9070 O.2    65  ASN65      -0.2716
     33  ND2       35.5220    7.6770   13.9600 N.am   65  ASN65      -0.0877
     34  N         30.9460    9.2710    6.2900 N.3    87  PHE87      -0.1227
     35  CA        31.0550    9.2160    7.7460 C.3    87  PHE87       0.1736
     36  C         32.4160    8.6910    8.2270 C.2    87  PHE87       0.2595
     37  O         32.7810    8.8590    9.3930 O.2    87  PHE87      -0.2718
     38  CB        29.8960    8.4100    8.3590 C.3    87  PHE87       0.0547
     39  CG        29.9710    6.9190    8.1040 C.ar   87  PHE87      -0.0202
     40  CD1       29.4370    6.3690    6.9390 C.ar   87  PHE87      -0.0042
     41  CD2       30.5590    6.0660    9.0350 C.ar   87  PHE87      -0.0042
     42  CE1       29.4960    4.9900    6.6980 C.ar   87  PHE87      -0.0003
     43  CE2       30.6190    4.6900    8.8090 C.ar   87  PHE87      -0.0003
     44  CZ        30.0850    4.1530    7.6410 C.ar   87  PHE87      -0.0000
     45  N         33.1760    8.0700    7.3340 N.am   88  GLN88      -0.1979
     46  CA        34.4350    7.4500    7.7410 C.3    88  GLN88       0.1601
     47  C         35.2560    7.0710    6.5210 C.2    88  GLN88       0.2287
     48  O         34.7080    6.8070    5.4430 O.2    88  GLN88      -0.2864
     49  CB        34.1730    6.1810    8.5700 C.3    88  GLN88       0.0394
     50  CG        35.4320    5.3740    8.8400 C.3    88  GLN88       0.0908
     51  CD        35.2110    3.8710    8.8280 C.2    88  GLN88       0.2608
     52  OE1       35.9010    3.1360    8.1180 O.2    88  GLN88      -0.2717
     53  NE2       34.2790    3.4020    9.6540 N.am   88  GLN88      -0.0878
     54  N         22.6930    5.7480   10.7690 N.3   127  LEU127     -0.1231
     55  CA        23.6420    4.7870   10.2390 C.3   127  LEU127      0.1693
     56  C         23.5650    3.4040   10.9130 C.2   127  LEU127      0.2591
     57  O         24.0760    2.4040   10.3760 O.2   127  LEU127     -0.2718
     58  CB        25.0390    5.3780   10.3230 C.3   127  LEU127      0.0284
     59  CG        26.2290    4.5070   10.7010 C.3   127  LEU127      0.0019
     60  CD1       26.7040    3.6180    9.5380 C.3   127  LEU127      0.0001
     61  CD2       27.3390    5.4300   11.1860 C.3   127  LEU127      0.0001
     62  N         22.9290    3.3430   12.0810 N.am  128  ALA128     -0.1980
     63  CA        22.6910    2.0580   12.7410 C.3   128  ALA128      0.1597
     64  C         21.4870    1.3780   12.0930 C.2   128  ALA128      0.2287
     65  O         21.3930    0.1370   12.0160 O.2   128  ALA128     -0.2864
     66  CB        22.4720    2.2420   14.2420 C.3   128  ALA128      0.0319
     67  N         23.1610    0.2870    8.5610 N.3   131  ALA131     -0.1245
     68  CA        24.1830   -0.7610    8.5720 C.3   131  ALA131      0.1562
     69  C         23.7110   -2.1670    8.1230 C.2   131  ALA131      0.2260
     70  O         24.4350   -2.8730    7.4050 O.2   131  ALA131     -0.2867
     71  CB        24.8360   -0.8260    9.9520 C.3   131  ALA131      0.0290
     72  N         24.6390    0.9710    2.8680 N.3   137  LEU137     -0.1245
     73  CA        26.0250    1.4510    2.7840 C.3   137  LEU137      0.1561
     74  C         26.6150    1.4450    1.3660 C.2   137  LEU137      0.2260
     75  O         26.2360    0.6210    0.5190 O.2   137  LEU137     -0.2867
     76  CB        26.9310    0.6260    3.6940 C.3   137  LEU137      0.0270
     77  CG        26.5860    0.6510    5.1810 C.3   137  LEU137      0.0019
     78  CD1       27.3700   -0.4310    5.9700 C.3   137  LEU137      0.0001
     79  CD2       26.7880    2.0510    5.7550 C.3   137  LEU137      0.0001
     80  N         30.3310   -5.9510    4.3130 N.3   194  LEU194     -0.1245
     81  CA        31.4410   -5.3910    5.0750 C.3   194  LEU194      0.1561
     82  C         32.5050   -6.4780    5.1710 C.2   194  LEU194      0.2260
     83  O         32.1720   -7.6780    5.2730 O.2   194  LEU194     -0.2867
     84  CB        30.9950   -5.0510    6.4940 C.3   194  LEU194      0.0270
     85  CG        29.9620   -3.9540    6.7070 C.3   194  LEU194      0.0019
     86  CD1       29.4170   -4.0550    8.1350 C.3   194  LEU194      0.0001
     87  CD2       30.5610   -2.5640    6.4190 C.3   194  LEU194      0.0001
     88  N         30.9340   -6.5310   11.8080 N.3   198  PRO198     -0.2116
     89  CA        29.8740   -7.5650   11.7900 C.3   198  PRO198      0.1372
     90  C         29.5870   -8.2480   10.4200 C.2   198  PRO198      0.2244
     91  O         28.6870   -9.1010   10.3490 O.2   198  PRO198     -0.2868
     92  CB        28.6440   -6.7900   12.2350 C.3   198  PRO198      0.0268
     93  CG        28.8900   -5.3790   11.7170 C.3   198  PRO198      0.0207
     94  CD        30.3730   -5.1620   11.8440 C.3   198  PRO198      0.0892
     95  N         28.0850   -7.4030    7.6740 N.3   200  TYR200     -0.1241
     96  CA        26.7750   -7.1830    7.0490 C.3   200  TYR200      0.1605
     97  C         26.8370   -7.1600    5.5240 C.2   200  TYR200      0.2264
     98  O         27.5760   -6.3440    4.9530 O.2   200  TYR200     -0.2867
     99  CB        26.1620   -5.8550    7.5130 C.3   200  TYR200      0.0534
    100  CG        25.8480   -5.7680    8.9960 C.ar  200  TYR200     -0.0201
    101  CD1       25.5540   -6.9060    9.7410 C.ar  200  TYR200     -0.0009
    102  CD2       25.8290   -4.5390    9.6420 C.ar  200  TYR200     -0.0009
    103  CE1       25.2640   -6.8190   11.0980 C.ar  200  TYR200      0.0417
    104  CE2       25.5440   -4.4370   10.9950 C.ar  200  TYR200      0.0417
    105  CZ        25.2650   -5.5710   11.7190 C.ar  200  TYR200      0.1957
    106  OH        24.9880   -5.4310   13.0640 O.3   200  TYR200     -0.2866
@<TRIPOS>BOND
     1    75    74    2
     2    74    73    1
     3    73    72    1
     4    73    76    1
     5    76    77    1
     6    80    81    1
     7    98    97    2
     8    81    82    1
     9    81    84    1
    10    82    83    2
    11    77    79    1
    12    77    78    1
    13    48    47    2
    14    97    96    1
    15    34    35    1
    16    87    85    1
    17    84    85    1
    18    47    46    1
    19    42    40   ar
    20    42    44   ar
    21    85    86    1
    22    40    39   ar
    23    96    99    1
    24    96    95    1
    25    45    46    1
    26    45    36   am
    27    70    69    2
    28    99   100    1
    29    44    43   ar
    30    46    49    1
    31    35    36    1
    32    35    38    1
    33    39    38    1
    34    39    41   ar
    35    52    51    2
    36    69    68    1
    37    36    37    2
    38    67    68    1
    39    49    50    1
    40    68    71    1
    41    43    41   ar
    42    51    50    1
    43    51    53   am
    44   100   102   ar
    45   100   101   ar
    46    60    59    1
    47   102   104   ar
    48   101   103   ar
    49    55    58    1
    50    55    54    1
    51    55    56    1
    52    58    59    1
    53    91    90    2
    54    57    56    2
    55    90    89    1
    56    59    61    1
    57    28    29    2
    58    28    27    1
    59    23    25   ar
    60    23    21   ar
    61    56    62   am
    62   104   105   ar
    63    26    27    1
    64   103   105   ar
    65    25    24   ar
    66    27    30    1
    67    17    18    1
    68    17    20    1
    69    17    16    1
    70    18    19    2
    71    21    20    1
    72    21    22   ar
    73    93    94    1
    74    93    92    1
    75   105   106    1
    76    89    88    1
    77    89    92    1
    78    88    94    1
    79    32    31    2
    80    65    64    2
    81    62    63    1
    82    64    63    1
    83    24    22   ar
    84    30    31    1
    85    63    66    1
    86    31    33   am
    87    15    13    1
    88     4     3    2
    89     1     2    1
    90    14    13    1
    91    13    10    1
    92     7     5    1
    93     3     2    1
    94     2     5    1
    95     9    10    1
    96    10    11    1
    97     5     6    1
    98    11    12    2
    99     8     6    1
