@<TRIPOS>MOLECULE
tmp/3w6nA00.pdb
 181 175 0 0 0
SMALL
GASTEIGER

@<TRIPOS>ATOM
      1  N        -15.2850    9.2290  -16.1840 N.3    36  GLN36      -0.1231
      2  CA       -16.2260    8.6040  -17.1050 C.3    36  GLN36       0.1698
      3  C        -16.0230    9.1090  -18.5410 C.2    36  GLN36       0.2593
      4  O        -15.9290   10.3160  -18.7750 O.2    36  GLN36      -0.2718
      5  CB       -17.6760    8.8610  -16.6500 C.3    36  GLN36       0.0381
      6  CG       -18.7110    8.2080  -17.5450 C.3    36  GLN36       0.0905
      7  CD       -20.1280    8.3750  -17.0200 C.2    36  GLN36       0.2608
      8  OE1      -20.4460    7.9480  -15.9040 O.2    36  GLN36      -0.2717
      9  NE2      -20.9870    8.9980  -17.8260 N.am   36  GLN36      -0.0878
     10  N        -15.9360    8.1590  -19.4720 N.am   37  SER37      -0.1938
     11  CA       -15.8320    8.3990  -20.9100 C.3    37  SER37       0.2055
     12  C        -14.5170    8.9790  -21.4100 C.2    37  SER37       0.2644
     13  O        -14.4620    9.5020  -22.5210 O.2    37  SER37      -0.2714
     14  CB       -17.0180    9.2190  -21.4340 C.3    37  SER37       0.2130
     15  OG       -18.1960    8.4500  -21.3530 O.3    37  SER37      -0.2179
     16  N        -13.4580    8.8660  -20.6150 N.am   38  SER38      -0.1935
     17  CA       -12.1510    9.3810  -21.0150 C.3    38  SER38       0.2055
     18  C        -11.3880    8.4730  -21.9910 C.2    38  SER38       0.2644
     19  O        -10.3370    8.8620  -22.4930 O.2    38  SER38      -0.2714
     20  CB       -11.2950    9.6990  -19.7780 C.3    38  SER38       0.2130
     21  OG       -11.1420    8.5470  -18.9570 O.3    38  SER38      -0.2179
     22  N        -11.9250    7.2860  -22.2780 N.am   39  GLY39      -0.1939
     23  CA       -11.2820    6.3470  -23.2070 C.3    39  GLY39       0.2014
     24  C        -10.6600    5.1230  -22.5470 C.2    39  GLY39       0.2639
     25  O         -9.8410    4.4310  -23.1680 O.2    39  GLY39      -0.2714
     26  N        -11.0590    4.8390  -21.3010 N.am   40  LYS40      -0.1963
     27  CA       -10.4050    3.8110  -20.4770 C.3    40  LYS40       0.1728
     28  C        -10.4780    2.3950  -21.0510 C.2    40  LYS40       0.2617
     29  O         -9.4430    1.7140  -21.2040 O.2    40  LYS40      -0.2715
     30  CB       -10.9820    3.8150  -19.0550 C.3    40  LYS40       0.0311
     31  CG       -10.7490    5.1250  -18.2730 C.3    40  LYS40       0.0038
     32  CD       -11.3990    5.0760  -16.8860 C.3    40  LYS40       0.0206
     33  CE       -12.9090    4.8300  -16.9550 C.3    40  LYS40       0.1093
     34  NZ       -13.6060    5.9080  -17.7340 N.3    40  LYS40      -0.1314
     35  N        -11.6980    1.9390  -21.3280 N.am   41  SER41      -0.1936
     36  CA       -11.9240    0.5870  -21.7970 C.3    41  SER41       0.2055
     37  C        -11.2160    0.3480  -23.1470 C.2    41  SER41       0.2643
     38  O        -10.6730   -0.7290  -23.3670 O.2    41  SER41      -0.2714
     39  CB       -13.4360    0.2490  -21.8480 C.3    41  SER41       0.2130
     40  OG       -14.0680    0.4350  -20.5760 O.3    41  SER41      -0.2179
     41  N        -11.1810    1.3590  -24.0130 N.am   42  SER42      -0.1949
     42  CA       -10.4660    1.2530  -25.2960 C.3    42  SER42       0.1924
     43  C         -8.9630    1.0410  -25.1060 C.2    42  SER42       0.2314
     44  O         -8.3600    0.1980  -25.7910 O.2    42  SER42      -0.2863
     45  CB       -10.7130    2.4840  -26.1730 C.3    42  SER42       0.2116
     46  OG       -12.0890    2.6100  -26.5190 O.3    42  SER42      -0.2180
     47  N        -17.1300   -3.7660  -23.7450 N.3    54  PRO54      -0.2102
     48  CA       -18.1430   -2.8040  -24.1670 C.3    54  PRO54       0.1504
     49  C        -17.5830   -1.3860  -24.0830 C.2    54  PRO54       0.2576
     50  O        -16.9700   -1.0160  -23.0760 O.2    54  PRO54      -0.2718
     51  CB       -19.2670   -3.0040  -23.1440 C.3    54  PRO54       0.0282
     52  CG       -19.0720   -4.4050  -22.6510 C.3    54  PRO54       0.0208
     53  CD       -17.5840   -4.5590  -22.5870 C.3    54  PRO54       0.0893
     54  N        -17.7560   -0.6290  -25.1620 N.am   55  ARG55      -0.1966
     55  CA       -17.2570    0.7340  -25.2580 C.3    55  ARG55       0.1729
     56  C        -18.3560    1.6050  -25.8270 C.2    55  ARG55       0.2617
     57  O        -19.2220    1.1130  -26.5540 O.2    55  ARG55      -0.2715
     58  CB       -16.0410    0.8040  -26.1850 C.3    55  ARG55       0.0348
     59  CG       -14.7990    0.0730  -25.7000 C.3    55  ARG55       0.0492
     60  CD       -13.8200   -0.0770  -26.8540 C.3    55  ARG55       0.2205
     61  NE       -14.4130   -0.8560  -27.9370 N.pl3  55  ARG55      -0.0865
     62  CZ       -14.0970   -0.7420  -29.2230 C.cat  55  ARG55       0.5346
     63  NH1      -13.1800    0.1360  -29.6280 N.pl3  55  ARG55       0.1354
     64  NH2      -14.7120   -1.5070  -30.1050 N.pl3  55  ARG55       0.1354
     65  N        -18.3180    2.8970  -25.5090 N.am   56  GLY56      -0.1940
     66  CA       -19.3300    3.8220  -26.0150 C.3    56  GLY56       0.2014
     67  C        -19.4820    5.0910  -25.2020 C.2    56  GLY56       0.2640
     68  O        -18.7300    5.3320  -24.2480 O.2    56  GLY56      -0.2714
     69  N        -20.4740    5.8950  -25.5790 N.am   57  THR57      -0.1936
     70  CA       -20.8090    7.1200  -24.8450 C.3    57  THR57       0.2028
     71  C        -21.7840    6.8610  -23.7050 C.2    57  THR57       0.2642
     72  O        -22.4070    5.7920  -23.6330 O.2    57  THR57      -0.2714
     73  CB       -21.3780    8.2220  -25.7740 C.3    57  THR57       0.1808
     74  OG1      -22.2630    7.6420  -26.7470 O.3    57  THR57      -0.2208
     75  CG2      -20.2370    8.9280  -26.4880 C.3    57  THR57       0.0379
     76  N        -21.9230    7.8470  -22.8210 N.am   58  GLY58      -0.1954
     77  CA       -22.7140    7.6880  -21.6020 C.3    58  GLY58       0.1869
     78  C        -21.9770    6.7310  -20.6880 C.2    58  GLY58       0.2309
     79  O        -20.8160    6.3900  -20.9400 O.2    58  GLY58      -0.2863
     80  N        -20.9090    3.3090  -19.3570 N.3    60  VAL60      -0.1231
     81  CA       -20.8640    1.9790  -19.9630 C.3    60  VAL60       0.1692
     82  C        -20.3920    0.9160  -18.9770 C.2    60  VAL60       0.2592
     83  O        -21.1490   -0.0010  -18.6510 O.2    60  VAL60      -0.2718
     84  CB       -20.0020    1.9630  -21.2500 C.3    60  VAL60       0.0266
     85  CG1      -19.8800    0.5240  -21.7990 C.3    60  VAL60       0.0020
     86  CG2      -20.6110    2.8710  -22.2870 C.3    60  VAL60       0.0020
     87  N        -19.1540    1.0500  -18.4910 N.am   61  THR61      -0.1953
     88  CA       -18.5830    0.0810  -17.5420 C.3    61  THR61       0.1897
     89  C        -19.2400    0.3370  -16.1730 C.2    61  THR61       0.2313
     90  O        -18.9880    1.3650  -15.5440 O.2    61  THR61      -0.2863
     91  CB       -17.0500    0.2580  -17.4360 C.3    61  THR61       0.1794
     92  OG1      -16.4620    0.2740  -18.7500 O.3    61  THR61      -0.2208
     93  CG2      -16.4170   -0.8270  -16.5410 C.3    61  THR61       0.0378
     94  N         -5.5140   10.0370  -24.1160 N.3   203  THR203     -0.1203
     95  CA        -6.3420    9.5130  -25.2170 C.3   203  THR203      0.1994
     96  C         -6.8910   10.6500  -26.0870 C.2   203  THR203      0.2617
     97  O         -6.6970   11.8120  -25.7730 O.2   203  THR203     -0.2717
     98  CB        -7.5330    8.7340  -24.6560 C.3   203  THR203      0.1784
     99  OG1       -8.2900    9.6130  -23.8220 O.3   203  THR203     -0.2211
    100  CG2       -7.0510    7.5370  -23.8210 C.3   203  THR203      0.0376
    101  N         -7.5830   10.3150  -27.1780 N.am  204  LYS204     -0.1979
    102  CA        -8.3320   11.3090  -27.9530 C.3   204  LYS204      0.1596
    103  C         -7.4950   12.4800  -28.4960 C.2   204  LYS204      0.2287
    104  O         -8.0010   13.5940  -28.6430 O.2   204  LYS204     -0.2864
    105  CB        -9.5070   11.8490  -27.1220 C.3   204  LYS204      0.0298
    106  CG       -10.4840   10.7630  -26.6980 C.3   204  LYS204      0.0038
    107  CD       -11.6610   11.3120  -25.8730 C.3   204  LYS204      0.0206
    108  CE       -12.6820   10.1990  -25.6630 C.3   204  LYS204      0.1093
    109  NZ       -13.9130   10.6280  -24.9480 N.3   204  LYS204     -0.1314
    110  N         -6.7360   13.0110  -31.4250 N.3   206  ASP206     -0.1225
    111  CA        -7.3980   13.4360  -32.6610 C.3   206  ASP206      0.1805
    112  C         -8.5790   14.4060  -32.4450 C.2   206  ASP206      0.2597
    113  O         -9.0430   15.0450  -33.3910 O.2   206  ASP206     -0.2718
    114  CB        -7.8660   12.2030  -33.4480 C.3   206  ASP206      0.1424
    115  CG        -8.8220   11.3170  -32.6460 C.2   206  ASP206      0.3668
    116  OD1       -8.5670   11.0510  -31.4430 O.co2 206  ASP206     -0.2456
    117  OD2       -9.8230   10.8750  -33.2280 O.co2 206  ASP206     -0.2456
    118  N         -9.0560   14.5190  -31.2040 N.am  207  LEU207     -0.1979
    119  CA       -10.2350   15.3580  -30.9040 C.3   207  LEU207      0.1596
    120  C         -9.8910   16.7490  -30.3590 C.2   207  LEU207      0.2287
    121  O        -10.7790   17.5270  -29.9900 O.2   207  LEU207     -0.2864
    122  CB       -11.1600   14.6240  -29.9260 C.3   207  LEU207      0.0297
    123  CG       -11.8300   13.3610  -30.4900 C.3   207  LEU207      0.0022
    124  CD1      -12.7980   12.8050  -29.4600 C.3   207  LEU207      0.0001
    125  CD2      -12.5540   13.6180  -31.8340 C.3   207  LEU207      0.0001
    126  N         -2.2120    8.2300  -27.2760 N.3   232  VAL232     -0.1231
    127  CA        -2.7940    7.1830  -28.1270 C.3   232  VAL232      0.1692
    128  C         -4.0100    7.7370  -28.8680 C.2   232  VAL232      0.2592
    129  O         -4.6260    8.7380  -28.4360 O.2   232  VAL232     -0.2718
    130  CB        -3.2340    5.9020  -27.3340 C.3   232  VAL232      0.0266
    131  CG1       -2.0620    5.2390  -26.6190 C.3   232  VAL232      0.0020
    132  CG2       -4.3670    6.2180  -26.3290 C.3   232  VAL232      0.0020
    133  N         -4.3400    7.0950  -29.9820 N.am  233  VAL233     -0.1966
    134  CA        -5.5690    7.3970  -30.7110 C.3   233  VAL233      0.1727
    135  C         -6.3760    6.1210  -30.9290 C.2   233  VAL233      0.2616
    136  O         -5.9870    5.2430  -31.6920 O.2   233  VAL233     -0.2715
    137  CB        -5.2940    8.0730  -32.0450 C.3   233  VAL233      0.0290
    138  CG1       -6.6190    8.4620  -32.7480 C.3   233  VAL233      0.0023
    139  CG2       -4.4300    9.3090  -31.8420 C.3   233  VAL233      0.0023
    140  N         -7.4970    6.0170  -30.2310 N.am  234  ASN234     -0.1958
    141  CA        -8.3520    4.8600  -30.3930 C.3   234  ASN234      0.1819
    142  C         -9.5410    5.1990  -31.2790 C.2   234  ASN234      0.2621
    143  O         -9.6670    6.3300  -31.7410 O.2   234  ASN234     -0.2715
    144  CB        -8.7420    4.2680  -29.0380 C.3   234  ASN234      0.1195
    145  CG        -7.6320    3.4070  -28.4510 C.2   234  ASN234      0.2630
    146  OD1       -7.2270    2.4050  -29.0540 O.2   234  ASN234     -0.2716
    147  ND2       -7.0990    3.8180  -27.2980 N.am  234  ASN234     -0.0877
    148  N        -10.3760    4.2000  -31.5450 N.am  235  ARG235     -0.1963
    149  CA       -11.5100    4.3400  -32.4460 C.3   235  ARG235      0.1729
    150  C        -12.5890    5.2960  -31.9220 C.2   235  ARG235      0.2617
    151  O        -12.9840    5.2310  -30.7460 O.2   235  ARG235     -0.2715
    152  CB       -12.0870    2.9510  -32.7270 C.3   235  ARG235      0.0348
    153  CG       -11.2830    2.1730  -33.7960 C.3   235  ARG235      0.0492
    154  CD       -11.6170    0.6890  -33.8040 C.3   235  ARG235      0.2205
    155  NE       -11.1830    0.0570  -32.5600 N.pl3 235  ARG235     -0.0865
    156  CZ       -11.3010   -1.2340  -32.2790 C.cat 235  ARG235      0.5346
    157  NH1      -11.8450   -2.0830  -33.1570 N.pl3 235  ARG235      0.1354
    158  NH2      -10.8650   -1.6780  -31.1080 N.pl3 235  ARG235      0.1354
    159  N        -13.0330    6.1920  -32.8000 N.am  236  SER236     -0.1936
    160  CA       -14.1610    7.0730  -32.5560 C.3   236  SER236      0.2055
    161  C        -15.4520    6.2700  -32.4210 C.2   236  SER236      0.2642
    162  O        -15.4890    5.0540  -32.7220 O.2   236  SER236     -0.2714
    163  CB       -14.3030    8.0630  -33.7180 C.3   236  SER236      0.2130
    164  OG       -14.7540    7.3940  -34.8950 O.3   236  SER236     -0.2179
    165  N        -16.5150    6.9310  -31.9750 N.am  237  GLN237     -0.1976
    166  CA       -17.8170    6.2510  -31.9030 C.3   237  GLN237      0.1601
    167  C        -18.3010    5.8440  -33.2970 C.2   237  GLN237      0.2287
    168  O        -18.8750    4.7640  -33.4730 O.2   237  GLN237     -0.2864
    169  CB       -18.8760    7.1120  -31.2020 C.3   237  GLN237      0.0394
    170  CG       -20.1910    6.3410  -30.8910 C.3   237  GLN237      0.0908
    171  CD       -19.9560    5.0850  -30.0490 C.2   237  GLN237      0.2608
    172  OE1      -19.3170    5.1430  -29.0010 O.2   237  GLN237     -0.2717
    173  NE2      -20.4630    3.9370  -30.5220 N.am  237  GLN237     -0.0878
    174  N        -16.4440    2.6210  -34.1670 N.3   240  ILE240     -0.1245
    175  CA       -17.0960    1.5130  -33.4700 C.3   240  ILE240      0.1561
    176  C        -18.3930    1.1190  -34.1800 C.2   240  ILE240      0.2260
    177  O        -18.5950   -0.0640  -34.4810 O.2   240  ILE240     -0.2867
    178  CB       -17.3570    1.8160  -31.9740 C.3   240  ILE240      0.0252
    179  CG1      -16.0280    2.0140  -31.2330 C.3   240  ILE240      0.0019
    180  CG2      -18.1730    0.6810  -31.3250 C.3   240  ILE240      0.0019
    181  CD1      -16.1690    2.4780  -29.7560 C.3   240  ILE240      0.0001
@<TRIPOS>BOND
     1   164   163    1
     2   177   176    2
     3   176   175    1
     4   174   175    1
     5   154   153    1
     6   154   155    1
     7   153   152    1
     8   163   160    1
     9   168   167    2
    10   175   178    1
    11   114   111    1
    12   114   115    1
    13   113   112    2
    14   167   166    1
    15   117   115   ar
    16   157   156    1
    17   159   160    1
    18   159   150   am
    19   138   137    1
    20   152   149    1
    21   162   161    2
    22   111   112    1
    23   111   110    1
    24   115   116   ar
    25   155   156    2
    26   160   161    1
    27   149   150    1
    28   149   148    1
    29   112   118   am
    30   161   165   am
    31   156   158    1
    32   137   139    1
    33   137   134    1
    34   165   166    1
    35   178   180    1
    36   178   179    1
    37   150   151    2
    38   166   169    1
    39   125   123    1
    40   143   142    2
    41   136   135    2
    42   148   142   am
    43   142   141    1
    44   179   181    1
    45   118   119    1
    46   169   170    1
    47   135   134    1
    48   135   140   am
    49   119   120    1
    50   119   122    1
    51   170   171    1
    52   134   133    1
    53   173   171   am
    54   123   122    1
    55   123   124    1
    56   141   140    1
    57   141   144    1
    58   120   121    2
    59    64    62    1
    60   171   172    2
    61   133   128   am
    62    63    62    1
    63    62    61    2
    64   146   145    2
    65   144   145    1
    66   128   129    2
    67   128   127    1
    68   104   103    2
    69   103   102    1
    70   145   147   am
    71   127   130    1
    72   127   126    1
    73   102   101    1
    74   102   105    1
    75    61    60    1
    76   130   131    1
    77   130   132    1
    78   101    96   am
    79   105   106    1
    80    60    59    1
    81    74    73    1
    82   106   107    1
    83    57    56    2
    84    46    45    1
    85    75    73    1
    86    58    59    1
    87    58    55    1
    88    45    42    1
    89    96    97    2
    90    96    95    1
    91    66    65    1
    92    66    67    1
    93   107   108    1
    94    56    65   am
    95    56    55    1
    96    44    43    2
    97    73    70    1
    98   108   109    1
    99    69    67   am
   100    69    70    1
   101    42    43    1
   102    42    41    1
   103    55    54    1
   104    95    98    1
   105    95    94    1
   106    67    68    2
   107    54    49   am
   108    70    71    1
   109    98    99    1
   110    98   100    1
   111    48    49    1
   112    48    47    1
   113    48    51    1
   114    49    50    2
   115    41    37   am
   116    47    53    1
   117    71    72    2
   118    71    76   am
   119    38    37    2
   120    23    24    1
   121    23    22    1
   122    25    24    2
   123    37    36    1
   124    51    52    1
   125    76    77    1
   126    52    53    1
   127    24    26   am
   128    13    12    2
   129    19    18    2
   130    86    84    1
   131    22    18   am
   132    18    17    1
   133    39    36    1
   134    39    40    1
   135    85    84    1
   136    36    35    1
   137    77    78    1
   138    14    15    1
   139    14    11    1
   140    12    11    1
   141    12    16   am
   142    35    28   am
   143    26    27    1
   144    84    81    1
   145    29    28    2
   146    28    27    1
   147    17    16    1
   148    17    20    1
   149    79    78    2
   150    11    10    1
   151    27    30    1
   152    81    80    1
   153    81    82    1
   154    20    21    1
   155    10     3   am
   156    30    31    1
   157    82    83    2
   158    82    87   am
   159     4     3    2
   160    92    91    1
   161     3     2    1
   162    87    88    1
   163    31    32    1
   164     9     7   am
   165    34    33    1
   166     6     7    1
   167     6     5    1
   168    88    91    1
   169    88    89    1
   170    91    93    1
   171     2     5    1
   172     2     1    1
   173     7     8    2
   174    33    32    1
   175    89    90    2
