@<TRIPOS>MOLECULE
tmp/3w6xF00.pdb
 112 113 0 0 0
SMALL
GASTEIGER

@<TRIPOS>ATOM
      1  N         -7.8730  -46.2210   19.1930 N.3    70  THR70      -0.1203
      2  CA        -8.6090  -45.3250   18.3200 C.3    70  THR70       0.1994
      3  C         -7.9670  -43.9150   18.1540 C.2    70  THR70       0.2618
      4  O         -8.0060  -43.3500   17.0560 O.2    70  THR70      -0.2717
      5  CB       -10.0230  -45.1500   18.7960 C.3    70  THR70       0.1784
      6  OG1       -9.9920  -44.6440   20.1290 O.3    70  THR70      -0.2211
      7  CG2      -10.7430  -46.4660   18.7540 C.3    70  THR70       0.0376
      8  N         -7.4280  -43.3800   19.2520 N.am   71  TYR71      -0.1962
      9  CA        -6.7360  -42.0920   19.2700 C.3    71  TYR71       0.1756
     10  C         -5.1950  -42.2370   19.3400 C.2    71  TYR71       0.2461
     11  O         -4.6650  -43.2440   19.8060 O.2    71  TYR71      -0.2730
     12  CB        -7.2470  -41.2310   20.4630 C.3    71  TYR71       0.0574
     13  CG        -8.6200  -40.6200   20.1940 C.ar   71  TYR71      -0.0198
     14  CD1       -9.7850  -41.3990   20.2330 C.ar   71  TYR71      -0.0009
     15  CD2       -8.7500  -39.2700   19.8620 C.ar   71  TYR71      -0.0009
     16  CE1      -11.0170  -40.8560   19.9480 C.ar   71  TYR71       0.0417
     17  CE2       -9.9840  -38.7160   19.5790 C.ar   71  TYR71       0.0417
     18  CZ       -11.1040  -39.5080   19.6250 C.ar   71  TYR71       0.1957
     19  OH       -12.3260  -38.9320   19.3510 O.3    71  TYR71      -0.2866
     20  N         -4.4770  -41.1900   18.9210 N.am   72  PRO72      -0.2727
     21  CA        -2.9990  -41.2050   18.9540 C.3    72  PRO72       0.1402
     22  C         -2.3700  -40.8740   20.3180 C.2    72  PRO72       0.2269
     23  O         -1.1590  -41.0550   20.4950 O.2    72  PRO72      -0.2865
     24  CB        -2.6140  -40.1540   17.9020 C.3    72  PRO72       0.0296
     25  CG        -3.8190  -39.1750   17.8690 C.3    72  PRO72       0.0237
     26  CD        -5.0420  -40.0020   18.2290 C.3    72  PRO72       0.0939
     27  N         -8.3170  -29.2440   24.7340 N.3    85  TYR85      -0.1241
     28  CA        -8.3250  -30.1440   23.5720 C.3    85  TYR85       0.1605
     29  C         -9.7420  -30.2960   22.9960 C.2    85  TYR85       0.2264
     30  O        -10.0210  -29.9270   21.8420 O.2    85  TYR85      -0.2867
     31  CB        -7.7320  -31.5080   23.9840 C.3    85  TYR85       0.0534
     32  CG        -7.7170  -32.5550   22.8970 C.ar   85  TYR85      -0.0201
     33  CD1       -8.8410  -33.2940   22.6170 C.ar   85  TYR85      -0.0009
     34  CD2       -6.5840  -32.8010   22.1510 C.ar   85  TYR85      -0.0009
     35  CE1       -8.8590  -34.2580   21.6060 C.ar   85  TYR85       0.0417
     36  CE2       -6.5890  -33.7940   21.0980 C.ar   85  TYR85       0.0417
     37  CZ        -7.7380  -34.5170   20.8560 C.ar   85  TYR85       0.1957
     38  OH        -7.8070  -35.4890   19.8570 O.3    85  TYR85      -0.2866
     39  N        -15.9140  -32.9460   18.8630 N.3   117  TYR117     -0.1241
     40  CA       -15.4550  -31.5810   18.7560 C.3   117  TYR117      0.1605
     41  C        -15.3500  -31.2200   17.2850 C.2   117  TYR117      0.2264
     42  O        -15.2040  -32.1000   16.4510 O.2   117  TYR117     -0.2867
     43  CB       -14.0860  -31.4630   19.4130 C.3   117  TYR117      0.0534
     44  CG       -12.9830  -32.2590   18.7320 C.ar  117  TYR117     -0.0201
     45  CD1      -12.4160  -31.8070   17.5410 C.ar  117  TYR117     -0.0009
     46  CD2      -12.4750  -33.4420   19.3010 C.ar  117  TYR117     -0.0009
     47  CE1      -11.4020  -32.5090   16.9320 C.ar  117  TYR117      0.0417
     48  CE2      -11.4480  -34.1450   18.6830 C.ar  117  TYR117      0.0417
     49  CZ       -10.9160  -33.6660   17.5170 C.ar  117  TYR117      0.1957
     50  OH        -9.9060  -34.3620   16.8760 O.3   117  TYR117     -0.2866
     51  N        -11.6830  -30.4100   11.3790 N.3   131  ASN131     -0.1225
     52  CA       -11.4360  -31.7280   11.8900 C.3   131  ASN131      0.1785
     53  C        -12.4400  -32.0080   13.0080 C.2   131  ASN131      0.2597
     54  O        -12.9650  -31.0820   13.6290 O.2   131  ASN131     -0.2718
     55  CB        -9.9970  -31.7840   12.4070 C.3   131  ASN131      0.1169
     56  CG        -9.6570  -33.1040   13.0380 C.2   131  ASN131      0.2627
     57  OD1       -9.3460  -33.1820   14.2390 O.2   131  ASN131     -0.2716
     58  ND2       -9.7200  -34.1730   12.2380 N.am  131  ASN131     -0.0877
     59  N        -12.7250  -33.2780   13.2510 N.am  132  ALA132     -0.1966
     60  CA       -13.6610  -33.6710   14.2850 C.3   132  ALA132      0.1728
     61  C        -13.2020  -35.0070   14.8430 C.2   132  ALA132      0.2617
     62  O        -12.6190  -35.8550   14.1330 O.2   132  ALA132     -0.2715
     63  CB       -15.1100  -33.7920   13.7030 C.3   132  ALA132      0.0334
     64  N        -13.4470  -35.1820   16.1250 N.am  133  GLY133     -0.1940
     65  CA       -13.1750  -36.4190   16.8100 C.3   133  GLY133      0.2014
     66  C        -14.4640  -36.7900   17.5280 C.2   133  GLY133      0.2638
     67  O        -15.2150  -35.9280   17.9790 O.2   133  GLY133     -0.2714
     68  N        -14.7240  -38.0810   17.6320 N.am  134  PHE134     -0.1973
     69  CA       -16.0090  -38.5540   18.1340 C.3   134  PHE134      0.1639
     70  C        -15.8510  -39.4430   19.3620 C.2   134  PHE134      0.2290
     71  O        -14.8440  -40.1370   19.5220 O.2   134  PHE134     -0.2864
     72  CB       -16.7350  -39.3050   17.0060 C.3   134  PHE134      0.0560
     73  CG       -17.1360  -38.3980   15.8930 C.ar  134  PHE134     -0.0200
     74  CD1      -16.2260  -38.0550   14.9220 C.ar  134  PHE134     -0.0042
     75  CD2      -18.4060  -37.8690   15.8240 C.ar  134  PHE134     -0.0042
     76  CE1      -16.5600  -37.2170   13.9200 C.ar  134  PHE134     -0.0003
     77  CE2      -18.7660  -37.0020   14.7960 C.ar  134  PHE134     -0.0003
     78  CZ       -17.8470  -36.6710   13.8530 C.ar  134  PHE134     -0.0000
     79  N        -10.4160  -35.9500    8.3720 N.3   167  PHE167     -0.1227
     80  CA        -9.9900  -36.7850    9.4810 C.3   167  PHE167      0.1736
     81  C         -8.5990  -37.2900    9.0920 C.2   167  PHE167      0.2595
     82  O         -8.4030  -37.9540    8.0260 O.2   167  PHE167     -0.2718
     83  CB       -10.9360  -37.9840    9.7190 C.3   167  PHE167      0.0547
     84  CG       -12.3730  -37.6120    9.8340 C.ar  167  PHE167     -0.0202
     85  CD1      -12.7500  -36.3860   10.3300 C.ar  167  PHE167     -0.0042
     86  CD2      -13.3550  -38.4780    9.4430 C.ar  167  PHE167     -0.0042
     87  CE1      -14.1090  -36.0460   10.4290 C.ar  167  PHE167     -0.0003
     88  CE2      -14.6790  -38.1350    9.5180 C.ar  167  PHE167     -0.0003
     89  CZ       -15.0570  -36.9320   10.0120 C.ar  167  PHE167     -0.0000
     90  N         -7.6480  -37.0140    9.9660 N.am  168  ASN168     -0.1960
     91  CA        -6.2510  -37.3630    9.7650 C.3   168  ASN168      0.1819
     92  C         -5.8610  -38.8130   10.0430 C.2   168  ASN168      0.2621
     93  O         -4.9800  -39.3650    9.3530 O.2   168  ASN168     -0.2715
     94  CB        -5.4090  -36.4330   10.6330 C.3   168  ASN168      0.1195
     95  CG        -5.8180  -35.0290   10.4710 C.2   168  ASN168      0.2630
     96  OD1       -5.7350  -34.4990    9.3630 O.2   168  ASN168     -0.2716
     97  ND2       -6.3110  -34.4030   11.5370 N.am  168  ASN168     -0.0877
     98  N         -6.5270  -39.4270   11.0090 N.am  169  LEU169     -0.1963
     99  CA        -6.1480  -40.7510   11.4540 C.3   169  LEU169      0.1728
    100  C         -7.3420  -41.6540   11.7630 C.2   169  LEU169      0.2616
    101  O         -7.7450  -41.7910   12.9350 O.2   169  LEU169     -0.2715
    102  CB        -5.2690  -40.6590   12.6950 C.3   169  LEU169      0.0311
    103  CG        -3.8810  -40.0540   12.4800 C.3   169  LEU169      0.0022
    104  CD1       -3.2160  -39.8300   13.8390 C.3   169  LEU169      0.0001
    105  CD2       -3.0520  -40.9430   11.6310 C.3   169  LEU169      0.0001
    106  N         -7.9150  -42.2690   10.7310 N.am  170  VAL170     -0.1977
    107  CA        -8.8650  -43.3150   10.9940 C.3   170  VAL170      0.1596
    108  C         -8.2110  -44.6640   10.7220 C.2   170  VAL170      0.2287
    109  O         -8.1000  -45.0950    9.5780 O.2   170  VAL170     -0.2864
    110  CB       -10.1680  -43.1470   10.2450 C.3   170  VAL170      0.0276
    111  CG1      -11.1710  -44.2460   10.6820 C.3   170  VAL170      0.0022
    112  CG2      -10.7730  -41.8200   10.5620 C.3   170  VAL170      0.0022
@<TRIPOS>BOND
     1    82    81    2
     2    79    80    1
     3    81    80    1
     4    81    90   am
     5    93    92    2
     6    96    95    2
     7    86    88   ar
     8    86    84   ar
     9    80    83    1
    10    88    89   ar
    11   109   108    2
    12    83    84    1
    13    91    90    1
    14    91    92    1
    15    91    94    1
    16    84    85   ar
    17    89    87   ar
    18    92    98   am
    19   110   112    1
    20   110   111    1
    21   110   107    1
    22    85    87   ar
    23    95    94    1
    24    95    97   am
    25   108   107    1
    26   106   107    1
    27   106   100   am
    28    98    99    1
    29    51    52    1
    30    99   100    1
    31    99   102    1
    32   105   103    1
    33   100   101    2
    34    52    55    1
    35    52    53    1
    36    58    56   am
    37    55    56    1
    38   103   102    1
    39   103   104    1
    40    53    59   am
    41    53    54    2
    42    56    57    2
    43    59    60    1
    44    63    60    1
    45    78    76   ar
    46    78    77   ar
    47    76    74   ar
    48    62    61    2
    49    60    61    1
    50    77    75   ar
    51    61    64   am
    52    74    73   ar
    53    75    73   ar
    54    73    72    1
    55    64    65    1
    56    42    41    2
    57    65    66    1
    58    50    49    1
    59    47    49   ar
    60    47    45   ar
    61    72    69    1
    62     4     3    2
    63    41    40    1
    64    49    48   ar
    65    66    68   am
    66    66    67    2
    67    45    44   ar
    68    68    69    1
    69    25    24    1
    70    25    26    1
    71    24    21    1
    72    69    70    1
    73     3     2    1
    74     3     8   am
    75    26    20    1
    76     2     5    1
    77     2     1    1
    78    48    46   ar
    79    44    46   ar
    80    44    43    1
    81     7     5    1
    82    40    39    1
    83    40    43    1
    84     5     6    1
    85    20    21    1
    86    20    10   am
    87    21    22    1
    88     8     9    1
    89     9    10    1
    90     9    12    1
    91    10    11    2
    92    19    18    1
    93    70    71    2
    94    17    18   ar
    95    17    15   ar
    96    18    16   ar
    97    38    37    1
    98    15    13   ar
    99    16    14   ar
   100    13    14   ar
   101    13    12    1
   102    22    23    2
   103    37    36   ar
   104    37    35   ar
   105    36    34   ar
   106    35    33   ar
   107    30    29    2
   108    34    32   ar
   109    33    32   ar
   110    32    31    1
   111    29    28    1
   112    28    31    1
   113    28    27    1
