@<TRIPOS>MOLECULE
tmp/3w6xH00.pdb
 99 98 0 0 0
SMALL
GASTEIGER

@<TRIPOS>ATOM
      1  N         13.3750  -27.8250  -47.9230 N.3    84  ASN84      -0.1225
      2  CA        12.7470  -26.9600  -46.9280 C.3    84  ASN84       0.1785
      3  C         12.7530  -27.5730  -45.5500 C.2    84  ASN84       0.2597
      4  O         12.6450  -26.8710  -44.5520 O.2    84  ASN84      -0.2718
      5  CB        11.2960  -26.6560  -47.3190 C.3    84  ASN84       0.1169
      6  CG        11.1940  -25.8520  -48.6140 C.2    84  ASN84       0.2627
      7  OD1       12.1490  -25.1960  -49.0270 O.2    84  ASN84      -0.2716
      8  ND2       10.0400  -25.9060  -49.2540 N.am   84  ASN84      -0.0877
      9  N         12.7980  -28.9010  -45.5040 N.am   85  TYR85      -0.1976
     10  CA        12.7850  -29.6420  -44.2450 C.3    85  TYR85       0.1639
     11  C         14.2140  -29.8010  -43.7210 C.2    85  TYR85       0.2290
     12  O         14.5470  -29.2600  -42.6800 O.2    85  TYR85      -0.2864
     13  CB        12.1530  -31.0050  -44.4730 C.3    85  TYR85       0.0560
     14  CG        12.0870  -31.8920  -43.2450 C.ar   85  TYR85      -0.0198
     15  CD1       13.1570  -32.6980  -42.9050 C.ar   85  TYR85      -0.0009
     16  CD2       10.9600  -31.9490  -42.4410 C.ar   85  TYR85      -0.0009
     17  CE1       13.1280  -33.5400  -41.7880 C.ar   85  TYR85       0.0417
     18  CE2       10.9220  -32.8250  -41.2890 C.ar   85  TYR85       0.0417
     19  CZ        12.0300  -33.6060  -40.9940 C.ar   85  TYR85       0.1957
     20  OH        12.0920  -34.4550  -39.9000 O.3    85  TYR85      -0.2866
     21  N         16.2550  -26.2520  -43.5110 N.3    88  HIS88      -0.1241
     22  CA        15.5270  -25.0890  -43.0390 C.3    88  HIS88       0.1621
     23  C         16.4050  -24.1100  -42.2920 C.2    88  HIS88       0.2264
     24  O         16.1880  -22.9050  -42.3770 O.2    88  HIS88      -0.2867
     25  CB        14.3950  -25.5040  -42.1130 C.3    88  HIS88       0.0745
     26  CG        13.7090  -24.3460  -41.4700 C.ar   88  HIS88       0.0817
     27  ND1       12.9280  -23.4560  -42.1780 N.ar   88  HIS88      -0.2268
     28  CD2       13.7040  -23.9220  -40.1850 C.ar   88  HIS88       0.1154
     29  CE1       12.4610  -22.5360  -41.3550 C.ar   88  HIS88       0.1986
     30  NE2       12.9170  -22.7960  -40.1360 N.ar   88  HIS88      -0.2212
     31  N         20.2540  -32.3800  -39.2920 N.3   117  TYR117     -0.1241
     32  CA        19.9330  -30.9830  -39.2720 C.3   117  TYR117      0.1605
     33  C         19.8590  -30.4720  -37.8250 C.2   117  TYR117      0.2264
     34  O         19.7650  -31.2620  -36.8910 O.2   117  TYR117     -0.2867
     35  CB        18.5940  -30.7720  -39.9810 C.3   117  TYR117      0.0534
     36  CG        17.3750  -31.4070  -39.2920 C.ar  117  TYR117     -0.0201
     37  CD1       16.7330  -30.7660  -38.2290 C.ar  117  TYR117     -0.0009
     38  CD2       16.8530  -32.6210  -39.7300 C.ar  117  TYR117     -0.0009
     39  CE1       15.6210  -31.3190  -37.6240 C.ar  117  TYR117      0.0417
     40  CE2       15.7360  -33.1750  -39.1340 C.ar  117  TYR117      0.0417
     41  CZ        15.1290  -32.5100  -38.0890 C.ar  117  TYR117      0.1957
     42  OH        14.0290  -33.0610  -37.4950 O.3   117  TYR117     -0.2866
     43  N         17.7370  -27.1550  -35.9610 N.3   119  LYS119     -0.1231
     44  CA        16.8820  -25.9780  -36.1070 C.3   119  LYS119      0.1678
     45  C         16.2120  -25.7290  -34.7780 C.2   119  LYS119      0.2434
     46  O         16.2360  -26.5870  -33.9070 O.2   119  LYS119     -0.2733
     47  CB        15.7980  -26.2170  -37.1620 C.3   119  LYS119      0.0284
     48  CG        14.7910  -27.2890  -36.7540 C.3   119  LYS119      0.0035
     49  CD        13.4400  -27.0890  -37.4260 C.3   119  LYS119      0.0206
     50  CE        12.3170  -27.8950  -36.7400 C.3   119  LYS119      0.1093
     51  NZ        10.9160  -27.4570  -37.1130 N.3   119  LYS119     -0.1314
     52  N         15.5770  -24.5720  -34.6190 N.am  120  PRO120     -0.2718
     53  CA        14.7840  -24.3300  -33.4200 C.3   120  PRO120      0.1535
     54  C         13.6180  -25.2850  -33.3590 C.2   120  PRO120      0.2599
     55  O         13.0140  -25.5460  -34.3970 O.2   120  PRO120     -0.2715
     56  CB        14.2910  -22.9060  -33.6120 C.3   120  PRO120      0.0310
     57  CG        15.3000  -22.2830  -34.4920 C.3   120  PRO120      0.0237
     58  CD        15.6970  -23.3740  -35.4470 C.3   120  PRO120      0.0939
     59  N         13.3240  -25.8410  -32.1870 N.am  121  ASN121     -0.1959
     60  CA        12.2470  -26.8130  -32.0680 C.3   121  ASN121      0.1819
     61  C         10.9090  -26.1240  -31.9210 C.2   121  ASN121      0.2621
     62  O          9.8570  -26.7710  -31.9580 O.2   121  ASN121     -0.2715
     63  CB        12.4560  -27.7000  -30.8360 C.3   121  ASN121      0.1195
     64  CG        11.4960  -28.8760  -30.7990 C.2   121  ASN121      0.2630
     65  OD1       11.3280  -29.5710  -31.8030 O.2   121  ASN121     -0.2716
     66  ND2       10.8570  -29.0960  -29.6580 N.am  121  ASN121     -0.0877
     67  N         10.9580  -24.8140  -31.6700 N.am  122  TYR122     -0.1960
     68  CA         9.7770  -24.0330  -31.3400 C.3   122  TYR122      0.1771
     69  C          9.8610  -22.6200  -31.9060 C.2   122  TYR122      0.2619
     70  O         10.9240  -22.1820  -32.3500 O.2   122  TYR122     -0.2715
     71  CB         9.6510  -23.8740  -29.8350 C.3   122  TYR122      0.0574
     72  CG         9.6610  -25.1210  -28.9680 C.ar  122  TYR122     -0.0198
     73  CD1        8.5560  -25.9450  -28.8890 C.ar  122  TYR122     -0.0009
     74  CD2       10.7500  -25.4130  -28.1480 C.ar  122  TYR122     -0.0009
     75  CE1        8.5520  -27.0510  -28.0630 C.ar  122  TYR122      0.0417
     76  CE2       10.7460  -26.5250  -27.3110 C.ar  122  TYR122      0.0417
     77  CZ         9.6430  -27.3290  -27.2810 C.ar  122  TYR122      0.1957
     78  OH         9.6300  -28.4280  -26.4590 O.3   122  TYR122     -0.2866
     79  N          8.7410  -21.8950  -31.8580 N.am  123  ALA123     -0.1977
     80  CA         8.7200  -20.4390  -32.1410 C.3   123  ALA123      0.1597
     81  C          9.6940  -19.6750  -31.1970 C.2   123  ALA123      0.2287
     82  O         10.1080  -20.2130  -30.1730 O.2   123  ALA123     -0.2864
     83  CB         7.2840  -19.8980  -32.0060 C.3   123  ALA123      0.0319
     84  N         16.0970  -28.6900  -32.2130 N.3   131  ASN131     -0.1240
     85  CA        15.7620  -30.0600  -32.5490 C.3   131  ASN131      0.1653
     86  C         16.7500  -30.5410  -33.6020 C.2   131  ASN131      0.2266
     87  O         17.3280  -29.7260  -34.3360 O.2   131  ASN131     -0.2867
     88  CB        14.3170  -30.1660  -33.0530 C.3   131  ASN131      0.1155
     89  CG        13.9420  -31.5880  -33.4990 C.2   131  ASN131      0.2627
     90  OD1       13.7120  -31.8370  -34.6770 O.2   131  ASN131     -0.2716
     91  ND2       13.8830  -32.5170  -32.5520 N.am  131  ASN131     -0.0877
     92  N         11.7190  -34.8200  -30.0830 N.3   168  ASN168     -0.1240
     93  CA        10.3040  -34.9080  -29.7760 C.3   168  ASN168      0.1653
     94  C          9.7280  -36.3030  -29.8480 C.2   168  ASN168      0.2266
     95  O          8.7380  -36.6200  -29.1510 O.2   168  ASN168     -0.2867
     96  CB         9.4860  -34.0220  -30.7240 C.3   168  ASN168      0.1155
     97  CG         9.9020  -32.5750  -30.6880 C.2   168  ASN168      0.2627
     98  OD1        9.6740  -31.8590  -29.6930 O.2   168  ASN168     -0.2716
     99  ND2       10.5070  -32.1180  -31.7920 N.am  168  ASN168     -0.0877
@<TRIPOS>BOND
     1     8     6   am
     2     7     6    2
     3     6     5    1
     4     1     2    1
     5     5     2    1
     6     2     3    1
     7     3     9   am
     8     3     4    2
     9     9    10    1
    10    13    10    1
    11    13    14    1
    12    10    11    1
    13    11    12    2
    14    21    22    1
    15    14    15   ar
    16    14    16   ar
    17    22    23    1
    18    22    25    1
    19    15    17   ar
    20    16    18   ar
    21    24    23    2
    22    27    26   ar
    23    27    29   ar
    24    25    26    1
    25    17    19   ar
    26    26    28   ar
    27    29    30   ar
    28    18    19   ar
    29    19    20    1
    30    28    30   ar
    31    35    36    1
    32    35    32    1
    33    38    36   ar
    34    38    40   ar
    35    31    32    1
    36    36    37   ar
    37    32    33    1
    38    40    41   ar
    39    37    39   ar
    40    41    39   ar
    41    41    42    1
    42    33    34    2
    43    49    48    1
    44    49    50    1
    45    47    48    1
    46    47    44    1
    47    51    50    1
    48    44    43    1
    49    44    45    1
    50    58    52    1
    51    58    57    1
    52    45    52   am
    53    45    46    2
    54    90    89    2
    55    52    53    1
    56    57    56    1
    57    55    54    2
    58    87    86    2
    59    56    53    1
    60    86    85    1
    61    89    88    1
    62    89    91   am
    63    53    54    1
    64    54    59   am
    65    88    85    1
    66    85    84    1
    67    70    69    2
    68    59    60    1
    69    80    83    1
    70    80    79    1
    71    80    81    1
    72    60    61    1
    73    60    63    1
    74    62    61    2
    75    61    67   am
    76    69    79   am
    77    69    68    1
    78    65    64    2
    79    99    97   am
    80    67    68    1
    81    68    71    1
    82    81    82    2
    83    63    64    1
    84    64    66   am
    85    96    97    1
    86    96    93    1
    87    97    98    2
    88    92    93    1
    89    94    93    1
    90    94    95    2
    91    71    72    1
    92    72    73   ar
    93    72    74   ar
    94    73    75   ar
    95    74    76   ar
    96    75    77   ar
    97    76    77   ar
    98    77    78    1
