@<TRIPOS>MOLECULE
tmp/3w6xA01.pdb
 94 93 0 0 0
SMALL
GASTEIGER

@<TRIPOS>ATOM
      1  N        -25.9040   23.8200  -10.9580 N.3    84  ASN84      -0.1225
      2  CA       -26.8840   23.2890  -10.0110 C.3    84  ASN84       0.1785
      3  C        -26.8340   21.7650   -9.8710 C.2    84  ASN84       0.2597
      4  O        -27.0110   21.2500   -8.7830 O.2    84  ASN84      -0.2718
      5  CB       -28.2990   23.7100  -10.4130 C.3    84  ASN84       0.1169
      6  CG       -28.4880   25.2340  -10.4650 C.2    84  ASN84       0.2627
      7  OD1      -27.7590   26.0170   -9.8340 O.2    84  ASN84      -0.2716
      8  ND2      -29.4710   25.6540  -11.2300 N.am   84  ASN84      -0.0877
      9  N        -26.5920   21.0510  -10.9760 N.am   85  TYR85      -0.1976
     10  CA       -26.5460   19.5900  -10.9820 C.3    85  TYR85       0.1639
     11  C        -25.2520   19.0340  -10.4140 C.2    85  TYR85       0.2290
     12  O        -25.2800   18.3010   -9.4220 O.2    85  TYR85      -0.2864
     13  CB       -26.7560   19.0650  -12.4020 C.3    85  TYR85       0.0560
     14  CG       -26.7370   17.5490  -12.5640 C.ar   85  TYR85      -0.0198
     15  CD1      -25.5600   16.8950  -12.8100 C.ar   85  TYR85      -0.0009
     16  CD2      -27.9040   16.7900  -12.5220 C.ar   85  TYR85      -0.0009
     17  CE1      -25.5190   15.5330  -12.9860 C.ar   85  TYR85       0.0417
     18  CE2      -27.8730   15.4030  -12.6970 C.ar   85  TYR85       0.0417
     19  CZ       -26.6640   14.7920  -12.9240 C.ar   85  TYR85       0.1957
     20  OH       -26.5450   13.4320  -13.0930 O.3    85  TYR85      -0.2866
     21  N        -24.2890   20.4980   -6.6590 N.3    88  HIS88      -0.1241
     22  CA       -25.3900   20.7270   -5.7340 C.3    88  HIS88       0.1621
     23  C        -24.9330   20.5490   -4.2840 C.2    88  HIS88       0.2264
     24  O        -25.3920   21.2710   -3.3920 O.2    88  HIS88      -0.2867
     25  CB       -26.5300   19.7730   -6.0540 C.3    88  HIS88       0.0745
     26  CG       -27.6260   19.8040   -5.0460 C.ar   88  HIS88       0.0817
     27  ND1      -28.4830   20.8720   -4.9160 N.ar   88  HIS88      -0.2268
     28  CD2      -27.9880   18.9070   -4.1000 C.ar   88  HIS88       0.1154
     29  CE1      -29.3360   20.6260   -3.9420 C.ar   88  HIS88       0.1986
     30  NE2      -29.0600   19.4350   -3.4370 N.ar   88  HIS88      -0.2212
     31  N        -19.4600   13.8000   -8.5580 N.3   117  TYR117     -0.1241
     32  CA       -20.1810   14.4800   -7.4940 C.3   117  TYR117      0.1605
     33  C        -20.5690   13.4720   -6.4350 C.2   117  TYR117      0.2264
     34  O        -20.5960   12.3000   -6.6990 O.2   117  TYR117     -0.2867
     35  CB       -21.4140   15.2070   -8.0200 C.3   117  TYR117      0.0534
     36  CG       -22.4940   14.3040   -8.5630 C.ar  117  TYR117     -0.0201
     37  CD1      -23.3920   13.6610   -7.7120 C.ar  117  TYR117     -0.0009
     38  CD2      -22.6260   14.1010   -9.9210 C.ar  117  TYR117     -0.0009
     39  CE1      -24.3770   12.8470   -8.2010 C.ar  117  TYR117      0.0417
     40  CE2      -23.6160   13.2940  -10.4100 C.ar  117  TYR117      0.0417
     41  CZ       -24.4940   12.6570   -9.5540 C.ar  117  TYR117      0.1957
     42  OH       -25.4740   11.7930  -10.0970 O.3   117  TYR117     -0.2866
     43  N        -23.7610   13.4850   -3.4930 N.3   119  LYS119     -0.1231
     44  CA       -24.8770   14.1370   -2.8210 C.3   119  LYS119      0.1678
     45  C        -25.8320   13.1210   -2.1520 C.2   119  LYS119      0.2434
     46  O        -25.7770   11.9040   -2.4130 O.2   119  LYS119     -0.2733
     47  CB       -25.6560   14.9730   -3.8340 C.3   119  LYS119      0.0284
     48  CG       -26.3420   14.1170   -4.8380 C.3   119  LYS119      0.0035
     49  CD       -27.4500   14.8500   -5.5650 C.3   119  LYS119      0.0206
     50  CE       -28.4730   13.8420   -6.0980 C.3   119  LYS119      0.1093
     51  NZ       -29.7040   14.4450   -6.6990 N.3   119  LYS119     -0.1314
     52  N        -26.7310   13.6210   -1.3120 N.am  120  PRO120     -0.2718
     53  CA       -27.7860   12.7790   -0.7930 C.3   120  PRO120      0.1535
     54  C        -28.6330   12.2430   -1.9060 C.2   120  PRO120      0.2599
     55  O        -29.0410   12.9940   -2.8030 O.2   120  PRO120     -0.2715
     56  CB       -28.5980   13.7250    0.0780 C.3   120  PRO120      0.0310
     57  CG       -27.6650   14.8090    0.4260 C.3   120  PRO120      0.0237
     58  CD       -26.8230   14.9890   -0.8060 C.3   120  PRO120      0.0939
     59  N        -28.8570   10.9350   -1.8810 N.am  121  ASN121     -0.1959
     60  CA       -29.6860   10.2780   -2.9000 C.3   121  ASN121      0.1819
     61  C        -31.1820   10.4520   -2.6470 C.2   121  ASN121      0.2621
     62  O        -31.9890   10.1530   -3.5200 O.2   121  ASN121     -0.2715
     63  CB       -29.4090    8.7860   -2.9690 C.3   121  ASN121      0.1195
     64  CG       -29.8750    8.1890   -4.2890 C.2   121  ASN121      0.2630
     65  OD1      -29.5660    8.7280   -5.3420 O.2   121  ASN121     -0.2716
     66  ND2      -30.6580    7.1070   -4.2360 N.am  121  ASN121     -0.0877
     67  N        -31.5350   10.9220   -1.4580 N.am  122  TYR122     -0.1974
     68  CA       -32.9160   11.0610   -1.0620 C.3   122  TYR122      0.1639
     69  C        -33.0720   12.2530   -0.1430 C.2   122  TYR122      0.2290
     70  O        -32.0910   12.7740    0.3800 O.2   122  TYR122     -0.2864
     71  CB       -33.3890    9.8270   -0.2640 C.3   122  TYR122      0.0560
     72  CG       -33.1790    8.4780   -0.8900 C.ar  122  TYR122     -0.0198
     73  CD1      -33.9770    8.0290   -1.9310 C.ar  122  TYR122     -0.0009
     74  CD2      -32.2120    7.6110   -0.3790 C.ar  122  TYR122     -0.0009
     75  CE1      -33.8020    6.7880   -2.4510 C.ar  122  TYR122      0.0417
     76  CE2      -32.0060    6.3630   -0.8970 C.ar  122  TYR122      0.0417
     77  CZ       -32.8040    5.9310   -1.9210 C.ar  122  TYR122      0.1957
     78  OH       -32.5600    4.6560   -2.4560 O.3   122  TYR122     -0.2866
     79  N        -25.4160    9.3690   -3.3430 N.3   131  ASN131     -0.1240
     80  CA       -25.3280    9.0850   -4.7440 C.3   131  ASN131      0.1653
     81  C        -24.0500    9.7280   -5.2950 C.2   131  ASN131      0.2266
     82  O        -23.5260   10.6960   -4.7120 O.2   131  ASN131     -0.2867
     83  CB       -26.5470    9.6770   -5.4490 C.3   131  ASN131      0.1155
     84  CG       -26.5650    9.4090   -6.9260 C.2   131  ASN131      0.2627
     85  OD1      -26.6520   10.3360   -7.7120 O.2   131  ASN131     -0.2716
     86  ND2      -26.4690    8.1420   -7.3160 N.am  131  ASN131     -0.0877
     87  N        -28.3020    4.5770   -8.8400 N.3   168  ASN168     -0.1240
     88  CA       -29.6990    4.2810   -9.1900 C.3   168  ASN168      0.1653
     89  C        -29.8170    3.5820  -10.5560 C.2   168  ASN168      0.2266
     90  O        -30.7490    2.8000  -10.7940 O.2   168  ASN168     -0.2867
     91  CB       -30.4960    5.5830   -9.2040 C.3   168  ASN168      0.1155
     92  CG       -30.4250    6.3180   -7.8660 C.2   168  ASN168      0.2627
     93  OD1      -30.9790    5.8330   -6.8550 O.2   168  ASN168     -0.2716
     94  ND2      -29.7060    7.4760   -7.8270 N.am  168  ASN168     -0.0877
@<TRIPOS>BOND
     1    20    19    1
     2    17    19   ar
     3    17    15   ar
     4    19    18   ar
     5    15    14   ar
     6    18    16   ar
     7    14    16   ar
     8    14    13    1
     9    13    10    1
    10     8     6   am
    11    10     9    1
    12    10    11    1
    13     9     3   am
    14     1     2    1
    15    90    89    2
    16    89    88    1
    17     6     5    1
    18     6     7    2
    19    11    12    2
    20     5     2    1
    21    40    38   ar
    22    40    41   ar
    23    42    41    1
    24     2     3    1
    25    38    36   ar
    26     3     4    2
    27    41    39   ar
    28    91    88    1
    29    91    92    1
    30    88    87    1
    31    36    35    1
    32    36    37   ar
    33    31    32    1
    34    39    37   ar
    35    35    32    1
    36    92    94   am
    37    92    93    2
    38    85    84    2
    39    32    33    1
    40    86    84   am
    41    84    83    1
    42    34    33    2
    43    51    50    1
    44    21    22    1
    45    50    49    1
    46    25    22    1
    47    25    26    1
    48    22    23    1
    49    49    48    1
    50    83    80    1
    51    65    64    2
    52    81    80    1
    53    81    82    2
    54    26    27   ar
    55    26    28   ar
    56    27    29   ar
    57    48    47    1
    58    80    79    1
    59    64    66   am
    60    64    63    1
    61    23    24    2
    62    28    30   ar
    63    29    30   ar
    64    47    44    1
    65    62    61    2
    66    43    44    1
    67    63    60    1
    68    60    61    1
    69    60    59    1
    70    44    45    1
    71    55    54    2
    72    61    67   am
    73    78    77    1
    74    75    73   ar
    75    75    77   ar
    76    46    45    2
    77    45    52   am
    78    73    72   ar
    79    77    76   ar
    80    54    59   am
    81    54    53    1
    82    67    68    1
    83    52    58    1
    84    52    53    1
    85    68    71    1
    86    68    69    1
    87    76    74   ar
    88    72    74   ar
    89    72    71    1
    90    58    57    1
    91    53    56    1
    92    69    70    2
    93    56    57    1
