@<TRIPOS>MOLECULE
tmp/3w6xB00.pdb
 120 120 0 0 0
SMALL
GASTEIGER

@<TRIPOS>ATOM
      1  N        -43.3650    7.2280    6.9380 N.3    70  THR70      -0.1203
      2  CA       -43.6630    6.7410    5.5950 C.3    70  THR70       0.1994
      3  C        -42.9800    7.4520    4.4280 C.2    70  THR70       0.2618
      4  O        -42.6940    6.7980    3.4280 O.2    70  THR70      -0.2717
      5  CB       -45.1790    6.7350    5.3230 C.3    70  THR70       0.1784
      6  OG1      -45.7250    8.0210    5.6320 O.3    70  THR70      -0.2211
      7  CG2      -45.8500    5.6770    6.1870 C.3    70  THR70       0.0376
      8  N        -42.7470    8.7600    4.5490 N.am   71  TYR71      -0.1962
      9  CA       -42.0340    9.5320    3.5470 C.3    71  TYR71       0.1756
     10  C        -40.6570    9.9850    4.0540 C.2    71  TYR71       0.2461
     11  O        -40.4370   10.1180    5.2540 O.2    71  TYR71      -0.2730
     12  CB       -42.8320   10.7510    3.1440 C.3    71  TYR71       0.0574
     13  CG       -43.9620   10.4500    2.2190 C.ar   71  TYR71      -0.0198
     14  CD1      -45.1340    9.9010    2.6820 C.ar   71  TYR71      -0.0009
     15  CD2      -43.8580   10.7470    0.8620 C.ar   71  TYR71      -0.0009
     16  CE1      -46.1900    9.6240    1.8200 C.ar   71  TYR71       0.0417
     17  CE2      -44.9010   10.4970   -0.0130 C.ar   71  TYR71       0.0417
     18  CZ       -46.0530    9.9250    0.4600 C.ar   71  TYR71       0.1957
     19  OH       -47.0520    9.6540   -0.4500 O.3    71  TYR71      -0.2866
     20  N        -39.7270   10.2220    3.1220 N.am   72  PRO72      -0.2727
     21  CA       -38.3440   10.5900    3.4520 C.3    72  PRO72       0.1402
     22  C        -38.2130   12.0290    3.9470 C.2    72  PRO72       0.2269
     23  O        -37.1840   12.3950    4.4770 O.2    72  PRO72      -0.2865
     24  CB       -37.5980   10.4000    2.1100 C.3    72  PRO72       0.0296
     25  CG       -38.6660   10.4850    1.0610 C.3    72  PRO72       0.0237
     26  CD       -39.9260    9.9890    1.6800 C.3    72  PRO72       0.0939
     27  N        -44.5360   19.8070   -5.4380 N.3    85  TYR85      -0.1241
     28  CA       -44.2050   18.4240   -5.1490 C.3    85  TYR85       0.1605
     29  C        -45.3360   17.5410   -5.6750 C.2    85  TYR85       0.2264
     30  O        -45.1240   16.6550   -6.5010 O.2    85  TYR85      -0.2867
     31  CB       -43.9960   18.2360   -3.6510 C.3    85  TYR85       0.0534
     32  CG       -43.6720   16.8100   -3.2340 C.ar   85  TYR85      -0.0201
     33  CD1      -44.6770   15.9080   -2.9750 C.ar   85  TYR85      -0.0009
     34  CD2      -42.3560   16.3640   -3.1120 C.ar   85  TYR85      -0.0009
     35  CE1      -44.4010   14.6090   -2.5880 C.ar   85  TYR85       0.0417
     36  CE2      -42.0740   15.0330   -2.7090 C.ar   85  TYR85       0.0417
     37  CZ       -43.1080   14.1710   -2.4540 C.ar   85  TYR85       0.1957
     38  OH       -42.8820   12.8500   -2.0610 O.3    85  TYR85      -0.2866
     39  N        -49.9360   11.0040   -6.4800 N.3   117  TYR117     -0.1241
     40  CA       -49.3540   11.6570   -7.6360 C.3   117  TYR117      0.1605
     41  C        -48.8110   10.5940   -8.5300 C.2   117  TYR117      0.2264
     42  O        -48.5720    9.4670   -8.0920 O.2   117  TYR117     -0.2867
     43  CB       -48.2550   12.6420   -7.2370 C.3   117  TYR117      0.0534
     44  CG       -47.0470   12.0140   -6.6160 C.ar  117  TYR117     -0.0201
     45  CD1      -46.0620   11.4270   -7.4030 C.ar  117  TYR117     -0.0009
     46  CD2      -46.8810   12.0170   -5.2480 C.ar  117  TYR117     -0.0009
     47  CE1      -44.9570   10.8590   -6.8430 C.ar  117  TYR117      0.0417
     48  CE2      -45.7840   11.4520   -4.6830 C.ar  117  TYR117      0.0417
     49  CZ       -44.8310   10.8870   -5.4710 C.ar  117  TYR117      0.1957
     50  OH       -43.7550   10.3170   -4.8730 O.3   117  TYR117     -0.2866
     51  N        -43.2590    7.1490  -11.0270 N.3   131  ASN131     -0.1225
     52  CA       -43.2720    7.0540   -9.5720 C.3   131  ASN131      0.1785
     53  C        -44.6210    7.5430   -9.1110 C.2   131  ASN131      0.2597
     54  O        -45.2830    8.3410   -9.8070 O.2   131  ASN131     -0.2718
     55  CB       -42.1700    7.9270   -8.9640 C.3   131  ASN131      0.1169
     56  CG       -42.1500    7.8790   -7.4600 C.2   131  ASN131      0.2627
     57  OD1      -42.3500    8.8930   -6.7590 O.2   131  ASN131     -0.2716
     58  ND2      -41.9240    6.6930   -6.9400 N.am  131  ASN131     -0.0877
     59  N        -45.0180    7.0590   -7.9360 N.am  132  ALA132     -0.1966
     60  CA       -46.2450    7.4430   -7.2990 C.3   132  ALA132      0.1728
     61  C        -46.0840    7.4480   -5.7540 C.2   132  ALA132      0.2617
     62  O        -45.4160    6.6030   -5.1690 O.2   132  ALA132     -0.2715
     63  CB       -47.3890    6.4660   -7.7120 C.3   132  ALA132      0.0334
     64  N        -46.7450    8.4020   -5.1230 N.am  133  GLY133     -0.1940
     65  CA       -46.8800    8.4320   -3.6990 C.3   133  GLY133      0.2014
     66  C        -48.3620    8.5970   -3.3590 C.2   133  GLY133      0.2638
     67  O        -49.1110    9.3430   -4.0510 O.2   133  GLY133     -0.2714
     68  N        -48.7630    7.8910   -2.3090 N.am  134  PHE134     -0.1973
     69  CA       -50.1560    7.8000   -1.9020 C.3   134  PHE134      0.1639
     70  C        -50.4080    8.3940   -0.5460 C.2   134  PHE134      0.2290
     71  O        -49.4990    8.4680    0.2700 O.2   134  PHE134     -0.2864
     72  CB       -50.5730    6.3410   -1.8550 C.3   134  PHE134      0.0560
     73  CG       -50.4610    5.6750   -3.1560 C.ar  134  PHE134     -0.0200
     74  CD1      -49.2240    5.2270   -3.5950 C.ar  134  PHE134     -0.0042
     75  CD2      -51.5850    5.5220   -3.9720 C.ar  134  PHE134     -0.0042
     76  CE1      -49.1000    4.6190   -4.8060 C.ar  134  PHE134     -0.0003
     77  CE2      -51.4760    4.9110   -5.2080 C.ar  134  PHE134     -0.0003
     78  CZ       -50.2360    4.4630   -5.6290 C.ar  134  PHE134     -0.0000
     79  N        -41.4640    2.2420   -7.1380 N.3   167  PHE167     -0.1227
     80  CA       -41.4790    2.9160   -5.8370 C.3   167  PHE167      0.1736
     81  C        -40.0950    2.8080   -5.2210 C.2   167  PHE167      0.2595
     82  O        -39.5500    1.7140   -5.0680 O.2   167  PHE167     -0.2718
     83  CB       -42.5580    2.3230   -4.9160 C.3   167  PHE167      0.0547
     84  CG       -43.9240    2.3150   -5.5480 C.ar  167  PHE167     -0.0202
     85  CD1      -44.2480    3.2350   -6.5460 C.ar  167  PHE167     -0.0042
     86  CD2      -44.8600    1.3800   -5.1990 C.ar  167  PHE167     -0.0042
     87  CE1      -45.4960    3.2340   -7.1500 C.ar  167  PHE167     -0.0003
     88  CE2      -46.1130    1.3800   -5.8190 C.ar  167  PHE167     -0.0003
     89  CZ       -46.4190    2.3100   -6.7860 C.ar  167  PHE167     -0.0000
     90  N        -39.4980    3.9400   -4.8980 N.am  168  ASN168     -0.1960
     91  CA       -38.1100    3.9280   -4.5050 C.3   168  ASN168      0.1819
     92  C        -37.8730    3.4660   -3.0790 C.2   168  ASN168      0.2621
     93  O        -36.8630    2.7810   -2.8110 O.2   168  ASN168     -0.2715
     94  CB       -37.5450    5.3090   -4.6860 C.3   168  ASN168      0.1195
     95  CG       -37.7280    5.8090   -6.1030 C.2   168  ASN168      0.2630
     96  OD1      -37.0840    5.2900   -7.0360 O.2   168  ASN168     -0.2716
     97  ND2      -38.5820    6.8400   -6.2780 N.am  168  ASN168     -0.0877
     98  N        -38.8050    3.8310   -2.1880 N.am  169  LEU169     -0.1963
     99  CA       -38.6780    3.6030   -0.7760 C.3   169  LEU169      0.1728
    100  C        -40.0140    3.1990   -0.1220 C.2   169  LEU169      0.2616
    101  O        -40.7350    4.0710    0.3910 O.2   169  LEU169     -0.2715
    102  CB       -38.1970    4.8900   -0.0990 C.3   169  LEU169      0.0311
    103  CG       -36.8400    5.4850   -0.4750 C.3   169  LEU169      0.0022
    104  CD1      -36.6610    6.9000    0.0800 C.3   169  LEU169      0.0001
    105  CD2      -35.7580    4.5440    0.0310 C.3   169  LEU169      0.0001
    106  N        -40.3290    1.9070   -0.0790 N.am  170  VAL170     -0.1977
    107  CA       -41.4260    1.4390    0.7750 C.3   170  VAL170      0.1596
    108  C        -40.8270    0.7820    2.0030 C.2   170  VAL170      0.2287
    109  O        -40.3090   -0.3290    1.9150 O.2   170  VAL170     -0.2864
    110  CB       -42.3670    0.4630    0.0530 C.3   170  VAL170      0.0276
    111  CG1      -43.5330    0.0900    0.9570 C.3   170  VAL170      0.0022
    112  CG2      -42.8730    1.0920   -1.2210 C.3   170  VAL170      0.0022
    113  N        -43.8670   -0.3030    6.7100 N.3   174  ASN174     -0.1240
    114  CA       -45.1180    0.2100    6.1460 C.3   174  ASN174      0.1653
    115  C        -45.9780   -0.9840    5.6450 C.2   174  ASN174      0.2266
    116  O        -45.5480   -1.7290    4.7820 O.2   174  ASN174     -0.2867
    117  CB       -44.7990    1.2120    5.0290 C.3   174  ASN174      0.1155
    118  CG       -46.0360    1.9160    4.4270 C.2   174  ASN174      0.2627
    119  OD1      -47.1870    1.4730    4.5390 O.2   174  ASN174     -0.2716
    120  ND2      -45.7610    3.0180    3.7250 N.am  174  ASN174     -0.0877
@<TRIPOS>BOND
     1    51    52    1
     2    54    53    2
     3    52    53    1
     4    52    55    1
     5    53    59   am
     6    55    56    1
     7    41    42    2
     8    41    40    1
     9    59    60    1
    10    63    60    1
    11    40    43    1
    12    40    39    1
    13    56    58   am
    14    56    57    2
    15    45    47   ar
    16    45    44   ar
    17    60    61    1
    18    43    44    1
    19    87    89   ar
    20    87    85   ar
    21    79    80    1
    22    96    95    2
    23    47    49   ar
    24    89    88   ar
    25    44    46   ar
    26    85    84   ar
    27    30    29    2
    28    97    95   am
    29    95    94    1
    30    80    81    1
    31    80    83    1
    32    88    86   ar
    33    61    62    2
    34    61    64   am
    35    29    28    1
    36    78    77   ar
    37    78    76   ar
    38    84    86   ar
    39    84    83    1
    40    49    50    1
    41    49    48   ar
    42    27    28    1
    43    46    48   ar
    44    81    82    2
    45    81    90   am
    46    77    75   ar
    47    28    31    1
    48    64    65    1
    49    90    91    1
    50    76    74   ar
    51    94    91    1
    52    91    92    1
    53    67    66    2
    54    75    73   ar
    55    65    66    1
    56    31    32    1
    57    74    73   ar
    58    66    68   am
    59    32    34   ar
    60    32    33   ar
    61    73    72    1
    62    34    36   ar
    63    92    93    2
    64    92    98   am
    65    33    35   ar
    66    36    37   ar
    67    35    37   ar
    68    37    38    1
    69    68    69    1
    70    98    99    1
    71    69    72    1
    72    69    70    1
    73   112   110    1
    74    99   100    1
    75    99   102    1
    76    70    71    2
    77   103   102    1
    78   103   105    1
    79   103   104    1
    80    19    18    1
    81   100   106   am
    82   100   101    2
    83   106   107    1
    84    17    18   ar
    85    17    15   ar
    86   110   107    1
    87   110   111    1
    88    18    16   ar
    89   107   108    1
    90    15    13   ar
    91    25    26    1
    92    25    24    1
    93    26    20    1
    94    16    14   ar
    95   109   108    2
    96    24    21    1
    97    13    14   ar
    98    13    12    1
    99    20    21    1
   100    20    10   am
   101    12     9    1
   102     4     3    2
   103    21    22    1
   104     9    10    1
   105     9     8    1
   106   120   118   am
   107    22    23    2
   108    10    11    2
   109   118   119    2
   110   118   117    1
   111     3     8   am
   112     3     2    1
   113   116   115    2
   114   117   114    1
   115     5     2    1
   116     5     6    1
   117     5     7    1
   118     2     1    1
   119   115   114    1
   120   114   113    1
