@<TRIPOS>MOLECULE
tmp/3w6xG00.pdb
 103 101 0 0 0
SMALL
GASTEIGER

@<TRIPOS>ATOM
      1  N          5.1700  -17.5020  -29.6350 N.3    73  GLN73      -0.1245
      2  CA         5.3470  -16.4400  -30.6430 C.3    73  GLN73       0.1566
      3  C          5.8900  -15.1800  -29.9630 C.2    73  GLN73       0.2260
      4  O          5.6570  -14.9500  -28.7490 O.2    73  GLN73      -0.2867
      5  CB         4.0400  -16.1030  -31.3770 C.3    73  GLN73       0.0367
      6  CG         3.6230  -17.1100  -32.4530 C.3    73  GLN73       0.0905
      7  CD         3.1880  -18.4400  -31.8520 C.2    73  GLN73       0.2608
      8  OE1        2.7710  -18.5130  -30.6900 O.2    73  GLN73      -0.2717
      9  NE2        3.3220  -19.5030  -32.6220 N.am   73  GLN73      -0.0878
     10  N         -4.1020  -19.0330  -41.3070 N.3    84  ASN84      -0.1225
     11  CA        -3.3970  -20.2940  -41.5370 C.3    84  ASN84       0.1785
     12  C         -3.0400  -21.0090  -40.2690 C.2    84  ASN84       0.2597
     13  O         -2.9500  -22.2150  -40.2900 O.2    84  ASN84      -0.2718
     14  CB        -2.1120  -20.0910  -42.3560 C.3    84  ASN84       0.1169
     15  CG        -2.3780  -19.5480  -43.7600 C.2    84  ASN84       0.2627
     16  OD1       -3.5050  -19.5890  -44.2730 O.2    84  ASN84      -0.2716
     17  ND2       -1.3470  -19.0230  -44.3690 N.am   84  ASN84      -0.0877
     18  N         -2.7760  -20.2650  -39.1970 N.am   85  TYR85      -0.1976
     19  CA        -2.4110  -20.8370  -37.9000 C.3    85  TYR85       0.1639
     20  C         -3.6290  -21.3730  -37.1730 C.2    85  TYR85       0.2290
     21  O         -3.6870  -22.5390  -36.8430 O.2    85  TYR85      -0.2864
     22  CB        -1.7090  -19.8040  -37.0300 C.3    85  TYR85       0.0560
     23  CG        -1.3060  -20.2810  -35.6410 C.ar   85  TYR85      -0.0198
     24  CD1       -2.2250  -20.2980  -34.5990 C.ar   85  TYR85      -0.0009
     25  CD2       -0.0080  -20.6490  -35.3580 C.ar   85  TYR85      -0.0009
     26  CE1       -1.8630  -20.7180  -33.3000 C.ar   85  TYR85       0.0417
     27  CE2        0.3730  -21.0720  -34.0560 C.ar   85  TYR85       0.0417
     28  CZ        -0.5670  -21.1030  -33.0260 C.ar   85  TYR85       0.1957
     29  OH        -0.2170  -21.5350  -31.7380 O.3    85  TYR85      -0.2866
     30  N         -6.0050  -23.9590  -39.5080 N.3    88  HIS88      -0.1241
     31  CA        -5.2730  -24.8990  -40.3280 C.3    88  HIS88       0.1621
     32  C         -6.0950  -26.1720  -40.4490 C.2    88  HIS88       0.2264
     33  O         -6.1600  -26.7380  -41.5190 O.2    88  HIS88      -0.2867
     34  CB        -3.9300  -25.2510  -39.6810 C.3    88  HIS88       0.0745
     35  CG        -3.1920  -26.3380  -40.3940 C.ar   88  HIS88       0.0817
     36  ND1       -2.7010  -26.1840  -41.6680 N.ar   88  HIS88      -0.2268
     37  CD2       -2.8760  -27.6050  -40.0150 C.ar   88  HIS88       0.1154
     38  CE1       -2.0960  -27.2980  -42.0400 C.ar   88  HIS88       0.1986
     39  NE2       -2.1870  -28.1770  -41.0580 N.ar   88  HIS88      -0.2212
     40  N         -8.1780  -24.1570  -31.1680 N.3   117  TYR117     -0.1241
     41  CA        -8.0330  -24.9870  -32.3420 C.3   117  TYR117      0.1605
     42  C         -7.7050  -26.4310  -31.9440 C.2   117  TYR117      0.2264
     43  O         -7.2580  -26.7060  -30.8070 O.2   117  TYR117     -0.2867
     44  CB        -6.9610  -24.4240  -33.2540 C.3   117  TYR117      0.0534
     45  CG        -5.5910  -24.4800  -32.6340 C.ar  117  TYR117     -0.0201
     46  CD1       -4.8520  -25.6550  -32.6540 C.ar  117  TYR117     -0.0009
     47  CD2       -5.0450  -23.3530  -31.9980 C.ar  117  TYR117     -0.0009
     48  CE1       -3.6130  -25.7130  -32.0840 C.ar  117  TYR117      0.0417
     49  CE2       -3.7900  -23.3950  -31.4240 C.ar  117  TYR117      0.0417
     50  CZ        -3.0810  -24.5710  -31.4670 C.ar  117  TYR117      0.1957
     51  OH        -1.8260  -24.6230  -30.8860 O.3   117  TYR117     -0.2866
     52  N         -5.6780  -29.5850  -34.0440 N.3   119  LYS119     -0.1231
     53  CA        -4.9820  -30.0030  -35.2350 C.3   119  LYS119      0.1678
     54  C         -4.0380  -31.1470  -34.8860 C.2   119  LYS119      0.2434
     55  O         -3.7330  -31.3750  -33.7110 O.2   119  LYS119     -0.2733
     56  CB        -4.1940  -28.8160  -35.8210 C.3   119  LYS119      0.0284
     57  CG        -3.0500  -28.3810  -34.9300 C.3   119  LYS119      0.0035
     58  CD        -1.9060  -27.7630  -35.7070 C.3   119  LYS119      0.0206
     59  CE        -0.5910  -27.7710  -34.8880 C.3   119  LYS119      0.1093
     60  NZ         0.6110  -27.4860  -35.7290 N.3   119  LYS119     -0.1314
     61  N         -3.5660  -31.8880  -35.8910 N.am  120  PRO120     -0.2718
     62  CA        -2.5790  -32.9180  -35.5390 C.3   120  PRO120      0.1535
     63  C         -1.2950  -32.2830  -35.0290 C.2   120  PRO120      0.2599
     64  O         -0.8400  -31.2590  -35.5720 O.2   120  PRO120     -0.2715
     65  CB        -2.3320  -33.6610  -36.8640 C.3   120  PRO120      0.0310
     66  CG        -3.5610  -33.3390  -37.6980 C.3   120  PRO120      0.0237
     67  CD        -3.9630  -31.9690  -37.3010 C.3   120  PRO120      0.0939
     68  N         -0.7240  -32.8780  -33.9880 N.am  121  ASN121     -0.1959
     69  CA         0.4950  -32.3570  -33.3840 C.3   121  ASN121      0.1819
     70  C          1.7650  -32.7580  -34.1400 C.2   121  ASN121      0.2621
     71  O          2.8570  -32.2510  -33.8780 O.2   121  ASN121     -0.2715
     72  CB         0.6160  -32.8380  -31.9410 C.3   121  ASN121      0.1195
     73  CG         1.5520  -31.9830  -31.1560 C.2   121  ASN121      0.2630
     74  OD1        1.4060  -30.7640  -31.1410 O.2   121  ASN121     -0.2716
     75  ND2        2.5580  -32.5930  -30.5590 N.am  121  ASN121     -0.0877
     76  N          1.6240  -33.7060  -35.0440 N.am  122  TYR122     -0.1974
     77  CA         2.7720  -34.2700  -35.7370 C.3   122  TYR122      0.1639
     78  C          2.3690  -34.6880  -37.1330 C.2   122  TYR122      0.2290
     79  O          1.1620  -34.7120  -37.4690 O.2   122  TYR122     -0.2864
     80  CB         3.2090  -35.5620  -35.0570 C.3   122  TYR122      0.0560
     81  CG         3.5120  -35.5160  -33.5660 C.ar  122  TYR122     -0.0198
     82  CD1        4.6730  -34.9130  -33.1010 C.ar  122  TYR122     -0.0009
     83  CD2        2.6740  -36.1450  -32.6450 C.ar  122  TYR122     -0.0009
     84  CE1        4.9880  -34.9000  -31.7670 C.ar  122  TYR122      0.0417
     85  CE2        2.9750  -36.1370  -31.2890 C.ar  122  TYR122      0.0417
     86  CZ         4.1400  -35.5130  -30.8580 C.ar  122  TYR122      0.1957
     87  OH         4.4690  -35.4860  -29.5320 O.3   122  TYR122     -0.2866
     88  N         -3.1790  -31.4320  -31.1050 N.3   131  ASN131     -0.1240
     89  CA        -2.7140  -30.2870  -30.3370 C.3   131  ASN131      0.1653
     90  C         -3.8660  -29.3120  -30.2590 C.2   131  ASN131      0.2266
     91  O         -4.7550  -29.2680  -31.1360 O.2   131  ASN131     -0.2867
     92  CB        -1.4580  -29.6630  -30.9740 C.3   131  ASN131      0.1155
     93  CG        -0.9080  -28.4530  -30.1980 C.2   131  ASN131      0.2627
     94  OD1       -0.9280  -27.3160  -30.6950 O.2   131  ASN131     -0.2716
     95  ND2       -0.4320  -28.6880  -28.9790 N.am  131  ASN131     -0.0877
     96  N          2.3310  -29.0380  -26.0970 N.3   168  ASN168     -0.1240
     97  CA         3.7690  -29.0660  -26.1120 C.3   168  ASN168      0.1653
     98  C          4.4650  -28.1380  -25.1280 C.2   168  ASN168      0.2266
     99  O          5.6150  -28.3850  -24.7680 O.2   168  ASN168     -0.2867
    100  CB         4.2630  -28.7380  -27.5190 C.3   168  ASN168      0.1155
    101  CG         3.6960  -29.6770  -28.5310 C.2   168  ASN168      0.2627
    102  OD1        4.0730  -30.8380  -28.5580 O.2   168  ASN168     -0.2716
    103  ND2        2.7380  -29.2060  -29.3240 N.am  168  ASN168     -0.0877
@<TRIPOS>BOND
     1    17    15   am
     2    16    15    2
     3    15    14    1
     4    14    11    1
     5    38    36   ar
     6    38    39   ar
     7    36    35   ar
     8    11    10    1
     9    11    12    1
    10    33    32    2
    11    39    37   ar
    12    32    31    1
    13    35    37   ar
    14    35    34    1
    15    31    34    1
    16    31    30    1
    17    13    12    2
    18    12    18   am
    19    18    19    1
    20    19    20    1
    21    19    22    1
    22    66    67    1
    23    66    65    1
    24    79    78    2
    25    67    61    1
    26    20    21    2
    27    78    77    1
    28    22    23    1
    29    65    62    1
    30    61    62    1
    31    61    54   am
    32    56    53    1
    33    56    57    1
    34    77    80    1
    35    77    76    1
    36    60    59    1
    37    58    57    1
    38    58    59    1
    39    23    25   ar
    40    23    24   ar
    41    64    63    2
    42    62    63    1
    43    25    27   ar
    44    53    54    1
    45    53    52    1
    46    80    81    1
    47    76    70   am
    48    63    68   am
    49    54    55    2
    50    24    26   ar
    51    70    71    2
    52    70    69    1
    53    27    28   ar
    54    68    69    1
    55    81    82   ar
    56    81    83   ar
    57    69    72    1
    58    26    28   ar
    59    44    45    1
    60    44    41    1
    61    82    84   ar
    62    28    29    1
    63    46    45   ar
    64    46    48   ar
    65    83    85   ar
    66    45    47   ar
    67     9     7   am
    68     6     7    1
    69     6     5    1
    70    41    42    1
    71    41    40    1
    72    48    50   ar
    73    47    49   ar
    74    42    43    2
    75    72    73    1
    76     7     8    2
    77    84    86   ar
    78    50    49   ar
    79    50    51    1
    80     5     2    1
    81    85    86   ar
    82    73    74    2
    83    73    75   am
    84    91    90    2
    85    88    89    1
    86    92    89    1
    87    92    93    1
    88    86    87    1
    89    94    93    2
    90     2     3    1
    91     2     1    1
    92    89    90    1
    93    93    95   am
    94     3     4    2
    95   103   101   am
    96   102   101    2
    97   101   100    1
    98   100    97    1
    99    97    96    1
   100    97    98    1
   101    98    99    2
