@<TRIPOS>MOLECULE
tmp/3w6yA00.pdb
 141 131 0 0 0
SMALL
GASTEIGER

@<TRIPOS>ATOM
      1  N         17.5930   19.0430  -16.9910 N.3    44  LYS44      -0.1231
      2  CA        18.9190   19.0880  -16.4090 C.3    44  LYS44       0.1693
      3  C         18.8050   19.1330  -14.8960 C.2    44  LYS44       0.2592
      4  O         17.9430   19.8220  -14.3750 O.2    44  LYS44      -0.2718
      5  CB        19.6270   20.3450  -16.8880 C.3    44  LYS44       0.0285
      6  CG        20.9000   20.6910  -16.1390 C.3    44  LYS44       0.0035
      7  CD        22.0020   19.6970  -16.4310 C.3    44  LYS44       0.0206
      8  CE        23.1520   19.8200  -15.4400 C.3    44  LYS44       0.1093
      9  NZ        24.3390   19.0330  -15.8890 N.3    44  LYS44      -0.1314
     10  N         19.6860   18.4110  -14.1980 N.am   45  SER45      -0.1952
     11  CA        19.6390   18.3250  -12.7370 C.3    45  SER45       0.1924
     12  C         19.7780   19.6840  -12.1410 C.2    45  SER45       0.2314
     13  O         20.5620   20.4670  -12.6110 O.2    45  SER45      -0.2863
     14  CB        20.7560   17.4470  -12.2130 C.3    45  SER45       0.2116
     15  OG        20.3570   16.0910  -12.2140 O.3    45  SER45      -0.2180
     16  N         23.7200   27.8700  -11.4030 N.3    51  ARG51      -0.1245
     17  CA        25.1380   27.5780  -11.5090 C.3    51  ARG51       0.1563
     18  C         25.6360   27.7380  -12.9570 C.2    51  ARG51       0.2260
     19  O         24.9190   27.4470  -13.9180 O.2    51  ARG51      -0.2867
     20  CB        25.4090   26.1700  -11.0220 C.3    51  ARG51       0.0307
     21  CG        25.4070   26.0360   -9.5150 C.3    51  ARG51       0.0489
     22  CD        25.6210   24.5990   -9.1060 C.3    51  ARG51       0.2205
     23  NE        26.8510   24.0320   -9.6680 N.pl3  51  ARG51      -0.0865
     24  CZ        28.0060   23.8550   -9.0190 C.cat  51  ARG51       0.5346
     25  NH1       28.1500   24.1820   -7.7460 N.pl3  51  ARG51       0.1354
     26  NH2       29.0300   23.3160   -9.6460 N.pl3  51  ARG51       0.1354
     27  N         31.6070   24.2670  -14.3570 N.3    54  ASN54      -0.1240
     28  CA        33.0410   24.3130  -14.6140 C.3    54  ASN54       0.1653
     29  C         33.4170   25.1060  -15.8730 C.2    54  ASN54       0.2266
     30  O         32.5480   25.4060  -16.7010 O.2    54  ASN54      -0.2867
     31  CB        33.5880   22.8850  -14.7670 C.3    54  ASN54       0.1155
     32  CG        33.5360   22.0900  -13.4790 C.2    54  ASN54       0.2627
     33  OD1       33.5070   22.6510  -12.3900 O.2    54  ASN54      -0.2716
     34  ND2       33.5340   20.7700  -13.6050 N.am   54  ASN54      -0.0877
     35  N         32.7830   14.1750  -19.9150 N.3    68  ASN68      -0.1225
     36  CA        32.3370   15.4660  -19.3790 C.3    68  ASN68       0.1785
     37  C         32.5920   15.6690  -17.8750 C.2    68  ASN68       0.2598
     38  O         32.4210   14.7550  -17.0620 O.2    68  ASN68      -0.2718
     39  CB        30.8430   15.7010  -19.6650 C.3    68  ASN68       0.1169
     40  CG        29.9390   15.2080  -18.5440 C.2    68  ASN68       0.2627
     41  OD1       29.8490   15.8230  -17.4720 O.2    68  ASN68      -0.2716
     42  ND2       29.2700   14.0950  -18.7760 N.am   68  ASN68      -0.0877
     43  N         33.0200   16.8870  -17.5460 N.am   69  SER69      -0.1938
     44  CA        32.9350   17.4160  -16.2110 C.3    69  SER69       0.2055
     45  C         32.3430   18.7960  -16.3430 C.2    69  SER69       0.2643
     46  O         33.0640   19.7950  -16.3160 O.2    69  SER69      -0.2714
     47  CB        34.3050   17.5110  -15.5590 C.3    69  SER69       0.2130
     48  OG        34.8840   16.2240  -15.3600 O.3    69  SER69      -0.2179
     49  N         31.0200   18.8240  -16.5180 N.am   70  MET70      -0.1962
     50  CA        30.2460   20.0680  -16.6030 C.3    70  MET70       0.1736
     51  C         30.2610   20.8300  -15.2940 C.2    70  MET70       0.2617
     52  O         30.2870   22.0640  -15.2950 O.2    70  MET70      -0.2715
     53  CB        28.7720   19.7970  -16.9060 C.3    70  MET70       0.0427
     54  CG        28.5000   18.8190  -18.0250 C.3    70  MET70       0.0599
     55  SD        29.3250   19.4370  -19.4540 S.3    70  MET70      -0.1393
     56  CE        28.0870   20.5980  -20.0170 C.3    70  MET70       0.0692
     57  N         30.2000   20.0970  -14.1830 N.am   71  GLY71      -0.1940
     58  CA        30.0510   20.7130  -12.8800 C.3    71  GLY71       0.2014
     59  C         28.6700   21.3030  -12.6620 C.2    71  GLY71       0.2638
     60  O         28.5330   22.3460  -12.0550 O.2    71  GLY71      -0.2714
     61  N         27.6420   20.6490  -13.1830 N.am   72  LEU72      -0.1977
     62  CA        26.2720   20.9550  -12.7860 C.3    72  LEU72       0.1596
     63  C         25.8620   22.3900  -13.0770 C.2    72  LEU72       0.2287
     64  O         25.3470   23.0850  -12.1990 O.2    72  LEU72      -0.2864
     65  CB        26.1340   20.6660  -11.2920 C.3    72  LEU72       0.0297
     66  CG        24.7700   20.4000  -10.6750 C.3    72  LEU72       0.0022
     67  CD1       23.8990   19.5290  -11.5800 C.3    72  LEU72       0.0001
     68  CD2       25.0000   19.7820   -9.2920 C.3    72  LEU72       0.0001
     69  N         19.6250   17.6680   -8.1700 N.3   100  SER100     -0.1217
     70  CA        20.9500   17.2350   -7.7870 C.3   100  SER100      0.1889
     71  C         21.5650   18.1190   -6.7140 C.2   100  SER100      0.2288
     72  O         22.6300   18.7230   -6.9240 O.2   100  SER100     -0.2866
     73  CB        21.8390   17.2410   -9.0040 C.3   100  SER100      0.2089
     74  OG        23.1580   16.9380   -8.6250 O.3   100  SER100     -0.2183
     75  N         23.4620   19.6560   -3.5410 N.3   102  LEU102     -0.1245
     76  CA        24.8510   19.3660   -3.1320 C.3   102  LEU102      0.1561
     77  C         24.9820   18.9720   -1.6530 C.2   102  LEU102      0.2260
     78  O         26.0630   18.6110   -1.1930 O.2   102  LEU102     -0.2867
     79  CB        25.8000   20.5210   -3.5280 C.3   102  LEU102      0.0270
     80  CG        25.8640   20.7570   -5.0600 C.3   102  LEU102      0.0019
     81  CD1       26.9810   21.7030   -5.4600 C.3   102  LEU102      0.0001
     82  CD2       26.0280   19.4530   -5.8310 C.3   102  LEU102      0.0001
     83  N         18.8430   12.7250   -8.3320 N.3   128  ASN128     -0.1240
     84  CA        20.1960   12.4220   -8.7840 C.3   128  ASN128      0.1653
     85  C         21.1660   12.1180   -7.6170 C.2   128  ASN128      0.2266
     86  O         21.7350   13.0210   -7.0000 O.2   128  ASN128     -0.2867
     87  CB        20.7120   13.5700   -9.6620 C.3   128  ASN128      0.1155
     88  CG        22.0570   13.2700  -10.3050 C.2   128  ASN128      0.2627
     89  OD1       22.5780   12.1680  -10.1970 O.2   128  ASN128     -0.2716
     90  ND2       22.6230   14.2600  -10.9710 N.am  128  ASN128     -0.0877
     91  N         23.9100   10.3950   -8.0600 N.3   130  SER130     -0.1202
     92  CA        25.2000   10.2230   -8.6700 C.3   130  SER130      0.2020
     93  C         25.8290   11.5990   -8.6610 C.2   130  SER130      0.2619
     94  O         26.2950   12.0980   -9.6880 O.2   130  SER130     -0.2717
     95  CB        24.9980    9.6680  -10.0820 C.3   130  SER130      0.2103
     96  OG        26.1790    9.7640  -10.8520 O.3   130  SER130     -0.2182
     97  N         25.8170   12.2120   -7.4760 N.am  131  CYS131     -0.1956
     98  CA        26.2320   13.6030   -7.2930 C.3   131  CYS131      0.1828
     99  C         27.2650   13.6470   -6.1710 C.2   131  CYS131      0.2467
    100  O         27.5460   12.6090   -5.5490 O.2   131  CYS131     -0.2730
    101  CB        25.0190   14.5170   -6.9950 C.3   131  CYS131      0.0996
    102  SG        24.3770   14.4980   -5.3040 S.3   131  CYS131     -0.0797
    103  N         27.8560   14.8330   -5.9200 N.am  132  PRO132     -0.2726
    104  CA        28.8620   14.8890   -4.8810 C.3   132  PRO132      0.1402
    105  C         28.2960   15.3470   -3.5350 C.2   132  PRO132      0.2269
    106  O         27.4820   16.2670   -3.4810 O.2   132  PRO132     -0.2865
    107  CB        29.8770   15.9040   -5.4410 C.3   132  PRO132      0.0296
    108  CG        29.2170   16.5630   -6.6140 C.3   132  PRO132      0.0237
    109  CD        27.7940   16.1050   -6.6530 C.3   132  PRO132      0.0939
    110  N         18.4340    8.3530   -9.8580 N.3   165  LYS165     -0.1245
    111  CA        19.4870    8.1930  -10.8630 C.3   165  LYS165      0.1561
    112  C         20.7360    7.6710  -10.1780 C.2   165  LYS165      0.2260
    113  O         21.3170    8.3840   -9.3620 O.2   165  LYS165     -0.2867
    114  CB        19.7730    9.5190  -11.5470 C.3   165  LYS165      0.0271
    115  CG        20.8410    9.4840  -12.6090 C.3   165  LYS165      0.0035
    116  CD        20.3120    8.8530  -13.8780 C.3   165  LYS165      0.0206
    117  CE        21.2580    9.0290  -15.0590 C.3   165  LYS165      0.1093
    118  NZ        21.6670   10.4530  -15.2680 N.3   165  LYS165     -0.1314
    119  N         24.2920    6.4070  -14.6440 N.3   195  ASN195     -0.1225
    120  CA        24.9490    7.6850  -14.8730 C.3   195  ASN195      0.1785
    121  C         26.2980    7.4630  -15.5820 C.2   195  ASN195      0.2597
    122  O         26.6810    6.3200  -15.8320 O.2   195  ASN195     -0.2718
    123  CB        25.1610    8.4200  -13.5490 C.3   195  ASN195      0.1169
    124  CG        25.1390    9.9360  -13.7090 C.2   195  ASN195      0.2627
    125  OD1       25.7710   10.4900  -14.6000 O.2   195  ASN195     -0.2716
    126  ND2       24.4240   10.6020  -12.8380 N.am  195  ASN195     -0.0877
    127  N         27.0170    8.5440  -15.8960 N.am  196  SER196     -0.1952
    128  CA        28.3660    8.4400  -16.4800 C.3   196  SER196      0.1924
    129  C         29.3290    7.5350  -15.6940 C.2   196  SER196      0.2314
    130  O         29.4000    7.5740  -14.4520 O.2   196  SER196     -0.2863
    131  CB        28.9960    9.8310  -16.6530 C.3   196  SER196      0.2116
    132  OG        28.7740   10.6860  -15.5350 O.3   196  SER196     -0.2180
    133  N         39.2730   19.1460  -13.7320 N.3   215  LYS215     -0.1245
    134  CA        39.8370   17.9460  -13.0430 C.3   215  LYS215      0.1561
    135  C         41.0340   17.2670  -13.7640 C.2   215  LYS215      0.2260
    136  O         41.1080   16.0530  -13.8460 O.2   215  LYS215     -0.2867
    137  CB        38.7280   16.9260  -12.7930 C.3   215  LYS215      0.0271
    138  CG        37.5890   17.4500  -11.9180 C.3   215  LYS215      0.0035
    139  CD        36.3570   16.5270  -11.9470 C.3   215  LYS215      0.0206
    140  CE        36.7070   15.1190  -11.4890 C.3   215  LYS215      0.1093
    141  NZ        35.5310   14.2140  -11.4940 N.3   215  LYS215     -0.1314
@<TRIPOS>BOND
     1    56    55    1
     2    35    36    1
     3    39    36    1
     4    39    40    1
     5    55    54    1
     6    36    37    1
     7    42    40   am
     8    40    41    2
     9    54    53    1
    10    37    43   am
    11    37    38    2
    12    43    44    1
    13     1     2    1
    14    53    50    1
    15     5     2    1
    16     5     6    1
    17    30    29    2
    18   131   128    1
    19   131   132    1
    20    50    49    1
    21    50    51    1
    22    49    45   am
    23   128   127    1
    24   128   129    1
    25     7     6    1
    26     7     8    1
    27     2     3    1
    28    45    46    2
    29    45    44    1
    30    44    47    1
    31   127   121   am
    32     9     8    1
    33    29    28    1
    34   122   121    2
    35   129   130    2
    36   121   120    1
    37    47    48    1
    38    52    51    2
    39    51    57   am
    40   118   117    1
    41   117   116    1
    42     3     4    2
    43     3    10   am
    44   120   119    1
    45   120   123    1
    46    31    28    1
    47    31    32    1
    48    28    27    1
    49   125   124    2
    50    10    11    1
    51    57    58    1
    52    19    18    2
    53   116   115    1
    54   136   135    2
    55   135   134    1
    56   133   134    1
    57   124   123    1
    58   124   126   am
    59    34    32   am
    60    32    33    2
    61    61    62    1
    62    61    59   am
    63    63    62    1
    64    63    64    2
    65   134   137    1
    66    18    17    1
    67    58    59    1
    68   137   138    1
    69    62    65    1
    70    11    14    1
    71    11    12    1
    72    59    60    2
    73    13    12    2
    74   115   114    1
    75    15    14    1
    76   139   138    1
    77   139   140    1
    78    67    66    1
    79   114   111    1
    80    17    16    1
    81    17    20    1
    82   141   140    1
    83    65    66    1
    84    20    21    1
    85    90    88   am
    86   111   112    1
    87   111   110    1
    88    96    95    1
    89    66    68    1
    90    88    89    2
    91    88    87    1
    92   112   113    2
    93    95    92    1
    94    94    93    2
    95    23    22    1
    96    23    24    2
    97    87    84    1
    98    26    24    1
    99    21    22    1
   100    24    25    1
   101    73    74    1
   102    73    70    1
   103    84    83    1
   104    84    85    1
   105    92    93    1
   106    92    91    1
   107    93    97   am
   108    69    70    1
   109    70    71    1
   110    85    86    2
   111    97    98    1
   112    98   101    1
   113    98    99    1
   114   101   102    1
   115    72    71    2
   116   109   108    1
   117   109   103    1
   118   108   107    1
   119    99   103   am
   120    99   100    2
   121   103   104    1
   122    82    80    1
   123    81    80    1
   124   107   104    1
   125    80    79    1
   126   104   105    1
   127    75    76    1
   128   105   106    2
   129    79    76    1
   130    76    77    1
   131    77    78    2
