@<TRIPOS>MOLECULE
tmp/3w70A00.pdb
 136 126 0 0 0
SMALL
GASTEIGER

@<TRIPOS>ATOM
      1  N         16.5040   18.9210   16.9040 N.3    44  LYS44      -0.1231
      2  CA        15.1310   18.9690   16.3930 C.3    44  LYS44       0.1693
      3  C         15.1860   18.9700   14.8810 C.2    44  LYS44       0.2592
      4  O         16.0300   19.6180   14.3140 O.2    44  LYS44      -0.2718
      5  CB        14.4530   20.2590   16.8540 C.3    44  LYS44       0.0285
      6  CG        13.1340   20.6280   16.1600 C.3    44  LYS44       0.0035
      7  CD        12.0360   19.5950   16.4170 C.3    44  LYS44       0.0206
      8  CE        10.7620   19.8440   15.6140 C.3    44  LYS44       0.1093
      9  NZ         9.7200   18.7960   15.8850 N.3    44  LYS44      -0.1314
     10  N         14.2990   18.2180   14.2340 N.am   45  SER45      -0.1952
     11  CA        14.3000   18.1120   12.7670 C.3    45  SER45       0.1924
     12  C         14.0690   19.4980   12.2150 C.2    45  SER45       0.2314
     13  O         13.2000   20.2260   12.6950 O.2    45  SER45      -0.2863
     14  CB        13.2230   17.1420   12.2620 C.3    45  SER45       0.2116
     15  OG        13.6410   15.7830   12.4010 O.3    45  SER45      -0.2180
     16  N         10.2560   27.8960   11.4080 N.3    51  ARG51      -0.1245
     17  CA         8.8250   27.6310   11.5070 C.3    51  ARG51       0.1563
     18  C          8.3790   27.7560   12.9530 C.2    51  ARG51       0.2260
     19  O          9.0750   27.3000   13.8490 O.2    51  ARG51      -0.2867
     20  CB         8.5060   26.2190   11.0600 C.3    51  ARG51       0.0307
     21  CG         8.9230   25.8620    9.6640 C.3    51  ARG51       0.0489
     22  CD         8.7010   24.3810    9.3990 C.3    51  ARG51       0.2205
     23  NE         7.3480   23.9100    9.7490 N.pl3  51  ARG51      -0.0865
     24  CZ         6.2840   23.9800    8.9430 C.cat  51  ARG51       0.5346
     25  NH1        6.3640   24.5120    7.7350 N.pl3  51  ARG51       0.1354
     26  NH2        5.1360   23.5220    9.3480 N.pl3  51  ARG51       0.1354
     27  N          2.4730   24.4470   14.5940 N.3    54  ASN54      -0.1240
     28  CA         1.0240   24.4990   14.7540 C.3    54  ASN54       0.1653
     29  C          0.6330   25.1740   16.0750 C.2    54  ASN54       0.2266
     30  O          1.4570   25.3080   16.9850 O.2    54  ASN54      -0.2867
     31  CB         0.4170   23.0780   14.7700 C.3    54  ASN54       0.1155
     32  CG         0.5480   22.3440   13.4390 C.2    54  ASN54       0.2627
     33  OD1        0.5800   22.9540   12.3680 O.2    54  ASN54      -0.2716
     34  ND2        0.6010   21.0130   13.5100 N.am   54  ASN54      -0.0877
     35  N          1.3730   13.9320   19.9170 N.3    68  ASN68      -0.1225
     36  CA         1.7720   15.2490   19.4290 C.3    68  ASN68       0.1785
     37  C          1.4790   15.5180   17.9560 C.2    68  ASN68       0.2598
     38  O          1.4950   14.6230   17.1180 O.2    68  ASN68      -0.2718
     39  CB         3.2530   15.4890   19.6970 C.3    68  ASN68       0.1169
     40  CG         4.1160   14.9370   18.6020 C.2    68  ASN68       0.2627
     41  OD1        4.1630   15.4730   17.4890 O.2    68  ASN68      -0.2716
     42  ND2        4.7800   13.8470   18.8920 N.am   68  ASN68      -0.0877
     43  N          1.2190   16.7900   17.6830 N.am   69  SER69      -0.1938
     44  CA         1.1910   17.3280   16.3240 C.3    69  SER69       0.2055
     45  C          1.8500   18.6930   16.3670 C.2    69  SER69       0.2643
     46  O          1.1850   19.7110   16.3560 O.2    69  SER69      -0.2714
     47  CB        -0.2420   17.4090   15.7970 C.3    69  SER69       0.2130
     48  OG        -0.5950   16.2220   15.1080 O.3    69  SER69      -0.2179
     49  N          3.1640   18.6940   16.4490 N.am   70  MET70      -0.1962
     50  CA         3.9000   19.9340   16.6450 C.3    70  MET70       0.1736
     51  C          3.9150   20.7480   15.3470 C.2    70  MET70       0.2617
     52  O          3.7910   21.9800   15.3950 O.2    70  MET70      -0.2715
     53  CB         5.3340   19.6870   17.0900 C.3    70  MET70       0.0427
     54  CG         5.5110   18.7540   18.2650 C.3    70  MET70       0.0599
     55  SD         4.8540   19.3520   19.8460 S.3    70  MET70      -0.1393
     56  CE         5.9730   20.6870   20.2470 C.3    70  MET70       0.0692
     57  N          4.0660   20.0710   14.2030 N.am   71  GLY71      -0.1940
     58  CA         4.1430   20.7510   12.9090 C.3    71  GLY71       0.2014
     59  C          5.4970   21.3720   12.6050 C.2    71  GLY71       0.2638
     60  O          5.5640   22.4780   12.1330 O.2    71  GLY71      -0.2714
     61  N          6.5780   20.6500   12.8810 N.am   72  LEU72      -0.1977
     62  CA         7.9310   21.1150   12.6170 C.3    72  LEU72       0.1596
     63  C          8.1920   22.5250   13.1040 C.2    72  LEU72       0.2287
     64  O          8.5670   23.3880   12.3260 O.2    72  LEU72      -0.2864
     65  CB         8.2400   21.0400   11.1150 C.3    72  LEU72       0.0297
     66  CG         8.8180   19.7290   10.5790 C.3    72  LEU72       0.0022
     67  CD1        8.9330   19.8160    9.0640 C.3    72  LEU72       0.0001
     68  CD2       10.1510   19.3950   11.2370 C.3    72  LEU72       0.0001
     69  N         14.3420   17.5870    8.0030 N.3   100  SER100     -0.1217
     70  CA        13.0130   17.2150    7.5330 C.3   100  SER100      0.1889
     71  C         12.4140   18.2080    6.5380 C.2   100  SER100      0.2288
     72  O         11.3140   18.7810    6.7690 O.2   100  SER100     -0.2866
     73  CB        12.0650   17.0780    8.7160 C.3   100  SER100      0.2089
     74  OG        10.7300   16.9790    8.2470 O.3   100  SER100     -0.2183
     75  N         10.5440   19.8340    3.3430 N.3   102  LEU102     -0.1245
     76  CA         9.1790   19.6000    2.8460 C.3   102  LEU102      0.1561
     77  C          9.1720   19.2690    1.3510 C.2   102  LEU102      0.2260
     78  O          8.1600   19.4200    0.6670 O.2   102  LEU102     -0.2867
     79  CB         8.2660   20.8020    3.1230 C.3   102  LEU102      0.0270
     80  CG         8.3510   21.4600    4.5200 C.3   102  LEU102      0.0019
     81  CD1        7.2730   22.5190    4.7380 C.3   102  LEU102      0.0001
     82  CD2        8.2750   20.4240    5.6290 C.3   102  LEU102      0.0001
     83  N         15.0880   12.5490    8.2610 N.3   128  ASN128     -0.1240
     84  CA        13.7870   12.1960    8.7880 C.3   128  ASN128      0.1653
     85  C         12.8230   11.9240    7.6150 C.2   128  ASN128      0.2266
     86  O         12.2700   12.8660    7.0040 O.2   128  ASN128     -0.2867
     87  CB        13.2800   13.3320    9.6750 C.3   128  ASN128      0.1155
     88  CG        11.9080   13.0830   10.2510 C.2   128  ASN128      0.2627
     89  OD1       11.2610   12.1220    9.9320 O.2   128  ASN128     -0.2716
     90  ND2       11.4590   13.9860   11.0950 N.am  128  ASN128     -0.0877
     91  N          9.8920   10.7420    7.7130 N.3   130  SER130     -0.1217
     92  CA         8.5150   11.1660    7.9820 C.3   130  SER130      0.1889
     93  C          8.2960   12.6210    7.5410 C.2   130  SER130      0.2288
     94  O          7.3070   13.2480    7.9120 O.2   130  SER130     -0.2866
     95  CB         8.1460   11.0030    9.4670 C.3   130  SER130      0.2089
     96  OG         7.6590    9.6980    9.7460 O.3   130  SER130     -0.2183
     97  N          6.8920   15.3680    5.3190 N.3   132  PRO132     -0.2102
     98  CA         5.7310   15.4460    4.4500 C.3   132  PRO132      0.1504
     99  C          6.0930   15.3520    2.9920 C.2   132  PRO132      0.2575
    100  O          7.1530   15.8160    2.5850 O.2   132  PRO132     -0.2718
    101  CB         5.1910   16.8490    4.7180 C.3   132  PRO132      0.0282
    102  CG         5.5800   17.1310    6.1160 C.3   132  PRO132      0.0208
    103  CD         6.8750   16.4170    6.3580 C.3   132  PRO132      0.0893
    104  N          5.2070   14.7570    2.2130 N.am  133  ASN133     -0.1975
    105  CA         5.2270   14.9760    0.7850 C.3   133  ASN133      0.1688
    106  C          4.0000   15.7950    0.3660 C.2   133  ASN133      0.2292
    107  O          3.3150   16.3600    1.2040 O.2   133  ASN133     -0.2864
    108  CB         5.2860   13.6420    0.0460 C.3   133  ASN133      0.1181
    109  CG         6.2100   13.6860   -1.1580 C.2   133  ASN133      0.2629
    110  OD1        6.9650   14.6660   -1.3610 O.2   133  ASN133     -0.2716
    111  ND2        6.1680   12.6160   -1.9660 N.am  133  ASN133     -0.0877
    112  N          0.6050   16.9940    0.0390 N.3   135  PRO135     -0.2116
    113  CA        -0.5530   16.6330    0.8910 C.3   135  PRO135      0.1372
    114  C         -1.6380   15.8640    0.1370 C.2   135  PRO135      0.2244
    115  O         -1.9760   16.2330   -0.9970 O.2   135  PRO135     -0.2868
    116  CB        -1.1100   17.9870    1.3630 C.3   135  PRO135      0.0268
    117  CG        -0.0280   18.9910    1.1290 C.3   135  PRO135      0.0207
    118  CD         0.9290   18.4380    0.1100 C.3   135  PRO135      0.0892
    119  N          9.7930    6.4390   14.5810 N.3   195  ASN195     -0.1225
    120  CA         9.0550    7.6630   14.8250 C.3   195  ASN195      0.1785
    121  C          7.7360    7.3510   15.5470 C.2   195  ASN195      0.2597
    122  O          7.3900    6.1780   15.7730 O.2   195  ASN195     -0.2718
    123  CB         8.7260    8.4180   13.5140 C.3   195  ASN195      0.1169
    124  CG         8.7490    9.9330   13.6840 C.2   195  ASN195      0.2627
    125  OD1        8.0010   10.4660   14.4860 O.2   195  ASN195     -0.2716
    126  ND2        9.6400   10.6280   12.9550 N.am  195  ASN195     -0.0877
    127  N          6.9940    8.4180   15.8600 N.am  196  SER196     -0.1952
    128  CA         5.7000    8.3080   16.5100 C.3   196  SER196      0.1924
    129  C          4.6970    7.5110   15.7100 C.2   196  SER196      0.2314
    130  O          4.6510    7.6230   14.4850 O.2   196  SER196     -0.2863
    131  CB         5.1450    9.6870   16.7880 C.3   196  SER196      0.2116
    132  OG         5.1870   10.4490   15.6070 O.3   196  SER196     -0.2180
    133  N          0.7240   11.9810   16.6470 N.3   220  GLY220     -0.1225
    134  CA         1.6830   10.9120   16.8640 C.3   220  GLY220      0.1811
    135  C          1.8160   10.4540   18.3160 C.2   220  GLY220      0.2280
    136  O          1.8720   11.2580   19.2510 O.2   220  GLY220     -0.2866
@<TRIPOS>BOND
     1   111   109   am
     2   110   109    2
     3   109   108    1
     4   115   114    2
     5   112   118    1
     6   112   113    1
     7   108   105    1
     8   118   117    1
     9   114   113    1
    10   106   105    1
    11   106   107    2
    12    78    77    2
    13   105   104    1
    14   113   116    1
    15   117   116    1
    16    77    76    1
    17   104    99   am
    18   100    99    2
    19    76    79    1
    20    76    75    1
    21    99    98    1
    22    79    80    1
    23    98   101    1
    24    98    97    1
    25    80    81    1
    26    80    82    1
    27   101   102    1
    28    97   103    1
    29   102   103    1
    30    71    72    2
    31    71    70    1
    32    86    85    2
    33    70    69    1
    34    70    73    1
    35    93    94    2
    36    93    92    1
    37    85    84    1
    38    91    92    1
    39    25    24    1
    40    92    95    1
    41    74    73    1
    42    83    84    1
    43    84    87    1
    44    24    26    1
    45    24    23    2
    46    67    66    1
    47    22    21    1
    48    22    23    1
    49    95    96    1
    50    21    20    1
    51    87    88    1
    52    89    88    2
    53    88    90   am
    54    66    65    1
    55    66    68    1
    56    20    17    1
    57    65    62    1
    58    16    17    1
    59    17    18    1
    60    60    59    2
    61    12    13    2
    62    12    11    1
    63    14    15    1
    64    14    11    1
    65    64    63    2
    66    33    32    2
    67    59    61   am
    68    59    58    1
    69    62    61    1
    70    62    63    1
    71    11    10    1
    72    58    57    1
    73    18    19    2
    74   126   124   am
    75    32    34   am
    76    32    31    1
    77   123   124    1
    78   123   120    1
    79   124   125    2
    80    57    51   am
    81    10     3   am
    82     4     3    2
    83   130   129    2
    84   119   120    1
    85    27    28    1
    86    28    31    1
    87    28    29    1
    88   120   121    1
    89     3     2    1
    90    48    47    1
    91    51    52    2
    92    51    50    1
    93   121   122    2
    94   121   127   am
    95   132   131    1
    96     8     9    1
    97     8     7    1
    98   129   128    1
    99    47    44    1
   100   127   128    1
   101    29    30    2
   102     6     7    1
   103     6     5    1
   104    44    45    1
   105    44    43    1
   106    46    45    2
   107    45    49   am
   108     2     5    1
   109     2     1    1
   110    49    50    1
   111   128   131    1
   112    50    53    1
   113   133   134    1
   114   134   135    1
   115    53    54    1
   116    38    37    2
   117    41    40    2
   118    43    37   am
   119    37    36    1
   120    54    55    1
   121   135   136    2
   122    40    42   am
   123    40    39    1
   124    36    39    1
   125    36    35    1
   126    55    56    1
