@<TRIPOS>MOLECULE
tmp/3w71A01.pdb
 143 134 0 0 0
SMALL
GASTEIGER

@<TRIPOS>ATOM
      1  N         16.5850   19.1580   16.8040 N.3    44  LYS44      -0.1231
      2  CA        15.2450   19.1780   16.2500 C.3    44  LYS44       0.1693
      3  C         15.2950   19.1160   14.7330 C.2    44  LYS44       0.2592
      4  O         16.0820   19.8400   14.1200 O.2    44  LYS44      -0.2718
      5  CB        14.6300   20.4930   16.6390 C.3    44  LYS44       0.0285
      6  CG        13.2470   20.7190   16.1060 C.3    44  LYS44       0.0035
      7  CD        12.1400   19.7460   16.4510 C.3    44  LYS44       0.0206
      8  CE        10.9120   19.8740   15.5580 C.3    44  LYS44       0.1093
      9  NZ         9.7990   18.8920   15.9720 N.3    44  LYS44      -0.1314
     10  N         14.4710   18.2550   14.1650 N.am   45  SER45      -0.1952
     11  CA        14.3210   18.1460   12.6880 C.3    45  SER45       0.1924
     12  C         14.0750   19.5600   12.2100 C.2    45  SER45       0.2314
     13  O         13.1980   20.2660   12.6900 O.2    45  SER45      -0.2863
     14  CB        13.2070   17.2530   12.2770 C.3    45  SER45       0.2116
     15  OG        13.4990   15.9300   12.6110 O.3    45  SER45      -0.2180
     16  N         10.2190   27.8980   11.4610 N.3    51  ARG51      -0.1245
     17  CA         8.8110   27.6030   11.5470 C.3    51  ARG51       0.1563
     18  C          8.3370   27.7470   12.9510 C.2    51  ARG51       0.2260
     19  O          8.9870   27.3440   13.9130 O.2    51  ARG51      -0.2867
     20  CB         8.4580   26.1680   11.1330 C.3    51  ARG51       0.0307
     21  CG         8.7210   25.8390    9.6610 C.3    51  ARG51       0.0489
     22  CD         8.5170   24.3870    9.3970 C.3    51  ARG51       0.2205
     23  NE         7.2080   23.8640    9.7940 N.pl3  51  ARG51      -0.0865
     24  CZ         6.1490   23.8740    9.0310 C.cat  51  ARG51       0.5346
     25  NH1        6.1870   24.4640    7.8230 N.pl3  51  ARG51       0.1354
     26  NH2        5.0190   23.3650    9.4770 N.pl3  51  ARG51       0.1354
     27  N          2.5660   24.2650   14.6860 N.3    54  ASN54      -0.1240
     28  CA         1.0960   24.2960   14.8120 C.3    54  ASN54       0.1653
     29  C          0.5660   25.0390   16.0320 C.2    54  ASN54       0.2266
     30  O          1.2570   25.2820   16.9920 O.2    54  ASN54      -0.2867
     31  CB         0.5940   22.8640   14.8620 C.3    54  ASN54       0.1155
     32  CG         0.6260   22.1630   13.5450 C.2    54  ASN54       0.2627
     33  OD1        0.6730   22.7920   12.4600 O.2    54  ASN54      -0.2716
     34  ND2        0.6780   20.8460   13.5920 N.am   54  ASN54      -0.0877
     35  N          1.2760   14.1010   19.9760 N.3    68  ASN68      -0.1225
     36  CA         1.7730   15.3600   19.5130 C.3    68  ASN68       0.1785
     37  C          1.4050   15.6320   18.0610 C.2    68  ASN68       0.2598
     38  O          1.4580   14.7380   17.1930 O.2    68  ASN68      -0.2718
     39  CB         3.3130   15.5530   19.7310 C.3    68  ASN68       0.1169
     40  CG         4.1230   15.0600   18.5830 C.2    68  ASN68       0.2627
     41  OD1        4.3400   15.7820   17.5840 O.2    68  ASN68      -0.2716
     42  ND2        4.6560   13.9070   18.7190 N.am   68  ASN68      -0.0877
     43  N          1.2040   16.8910   17.7530 N.am   69  SER69      -0.1938
     44  CA         1.1750   17.4050   16.4020 C.3    69  SER69       0.2055
     45  C          1.8900   18.7560   16.4390 C.2    69  SER69       0.2643
     46  O          1.3110   19.8270   16.1790 O.2    69  SER69      -0.2714
     47  CB        -0.2560   17.4680   15.8370 C.3    69  SER69       0.2130
     48  OG        -0.1820   17.9240   14.4810 O.3    69  SER69      -0.2179
     49  N          3.1950   18.7050   16.6350 N.am   70  MET70      -0.1962
     50  CA         3.9560   19.9360   16.8180 C.3    70  MET70       0.1736
     51  C          3.9910   20.7510   15.4960 C.2    70  MET70       0.2617
     52  O          3.9810   22.0020   15.5090 O.2    70  MET70      -0.2715
     53  CB         5.3500   19.5930   17.2030 C.3    70  MET70       0.0427
     54  CG         5.5950   18.8180   18.4380 C.3    70  MET70       0.0599
     55  SD         4.8700   19.4850   19.9210 S.3    70  MET70      -0.1393
     56  CE         5.8620   20.8570   20.2330 C.3    70  MET70       0.0692
     57  N          4.0280   20.0640   14.3490 N.am   71  GLY71      -0.1940
     58  CA         4.1290   20.8320   13.0920 C.3    71  GLY71       0.2014
     59  C          5.5180   21.3630   12.7450 C.2    71  GLY71       0.2638
     60  O          5.6290   22.4120   12.0790 O.2    71  GLY71      -0.2714
     61  N          6.5690   20.6790   13.1860 N.am   72  LEU72      -0.1977
     62  CA         7.9350   21.0360   12.9150 C.3    72  LEU72       0.1596
     63  C          8.2810   22.4880   13.2490 C.2    72  LEU72       0.2287
     64  O          9.0050   23.2160   12.5140 O.2    72  LEU72      -0.2864
     65  CB         8.2230   20.7560   11.4070 C.3    72  LEU72       0.0297
     66  CG         9.4360   20.1010   10.8210 C.3    72  LEU72       0.0022
     67  CD1       10.1160   18.9890   11.6050 C.3    72  LEU72       0.0001
     68  CD2        9.0430   19.6780    9.3530 C.3    72  LEU72       0.0001
     69  N         14.3690   17.6590    8.1220 N.3   100  SER100     -0.1217
     70  CA        13.0820   17.2500    7.6190 C.3   100  SER100      0.1889
     71  C         12.4760   18.2690    6.6720 C.2   100  SER100      0.2288
     72  O         11.3650   18.8020    6.8750 O.2   100  SER100     -0.2866
     73  CB        12.1560   16.9610    8.8250 C.3   100  SER100      0.2089
     74  OG        10.8400   16.7020    8.3700 O.3   100  SER100     -0.2183
     75  N         10.4890   19.7660    3.4370 N.3   102  LEU102     -0.1245
     76  CA         9.1190   19.4950    2.9770 C.3   102  LEU102      0.1561
     77  C          9.0610   19.0800    1.4830 C.2   102  LEU102      0.2260
     78  O          7.9750   18.8140    0.9280 O.2   102  LEU102     -0.2867
     79  CB         8.2410   20.7180    3.2340 C.3   102  LEU102      0.0270
     80  CG         8.2690   21.3330    4.6530 C.3   102  LEU102      0.0019
     81  CD1        7.2120   22.4180    4.7500 C.3   102  LEU102      0.0001
     82  CD2        8.0760   20.3260    5.7260 C.3   102  LEU102      0.0001
     83  N         14.9760   12.6340    8.3820 N.3   128  ASN128     -0.1240
     84  CA        13.6940   12.2120    8.8190 C.3   128  ASN128      0.1653
     85  C         12.7700   11.9210    7.6180 C.2   128  ASN128      0.2266
     86  O         12.3290   12.8690    6.9170 O.2   128  ASN128     -0.2867
     87  CB        13.0670   13.3470    9.6410 C.3   128  ASN128      0.1155
     88  CG        11.7690   12.9600   10.2840 C.2   128  ASN128      0.2627
     89  OD1       11.2440   11.9260   10.0800 O.2   128  ASN128     -0.2716
     90  ND2       11.2270   13.9300   11.0650 N.am  128  ASN128     -0.0877
     91  N          9.8410   10.4110    7.9930 N.3   130  SER130     -0.1202
     92  CA         8.4780   10.2150    8.4690 C.3   130  SER130      0.2020
     93  C          7.9930   11.4810    8.6390 C.2   130  SER130      0.2619
     94  O          7.8170   11.9210    9.7490 O.2   130  SER130     -0.2717
     95  CB         8.3070    9.5600    9.8470 C.3   130  SER130      0.2103
     96  OG         6.9540    9.6640   10.1740 O.3   130  SER130     -0.2182
     97  N          7.6700   12.0620    7.5120 N.am  131  CYS131     -0.1956
     98  CA         7.5380   13.3910    7.3190 C.3   131  CYS131      0.1828
     99  C          6.7000   13.6990    5.9930 C.2   131  CYS131      0.2467
    100  O          6.9260   13.0830    4.9310 O.2   131  CYS131     -0.2730
    101  CB         8.9880   13.7610    6.9130 C.3   131  CYS131      0.0996
    102  SG         9.1640   15.4660    6.3650 S.3   131  CYS131     -0.0797
    103  N          5.7920   14.6880    6.0370 N.am  132  PRO132     -0.2726
    104  CA         5.2420   15.3780    4.8730 C.3   132  PRO132      0.1402
    105  C          5.8450   15.3900    3.4560 C.2   132  PRO132      0.2269
    106  O          6.8770   15.9590    3.1600 O.2   132  PRO132     -0.2865
    107  CB         5.1150   16.8140    5.4190 C.3   132  PRO132      0.0296
    108  CG         4.4940   16.5060    6.7800 C.3   132  PRO132      0.0237
    109  CD         5.0820   15.1550    7.2470 C.3   132  PRO132      0.0939
    110  N          9.9570    6.4800   14.6060 N.3   195  ASN195     -0.1225
    111  CA         9.1530    7.7230   14.8610 C.3   195  ASN195      0.1785
    112  C          7.7990    7.4100   15.5600 C.2   195  ASN195      0.2597
    113  O          7.4410    6.2390   15.8090 O.2   195  ASN195     -0.2718
    114  CB         8.9760    8.4740   13.5210 C.3   195  ASN195      0.1169
    115  CG         8.9440    9.9700   13.6790 C.2   195  ASN195      0.2627
    116  OD1        8.2990   10.4950   14.5630 O.2   195  ASN195     -0.2716
    117  ND2        9.7650   10.6740   12.8740 N.am  195  ASN195     -0.0877
    118  N          7.0210    8.4490   15.8650 N.am  196  SER196     -0.1952
    119  CA         5.7090    8.2510   16.5050 C.3   196  SER196      0.1924
    120  C          4.7990    7.3480   15.7200 C.2   196  SER196      0.2314
    121  O          4.8720    7.3050   14.4610 O.2   196  SER196     -0.2863
    122  CB         5.1550    9.6530   16.8460 C.3   196  SER196      0.2116
    123  OG         5.1560   10.4020   15.7090 O.3   196  SER196     -0.2180
    124  N         -4.3950   20.8090   16.8430 N.3   214  PRO214     -0.2102
    125  CA        -4.2790   20.5740   15.3770 C.3   214  PRO214      0.1504
    126  C         -4.9970   19.3060   14.9320 C.2   214  PRO214      0.2575
    127  O         -5.1860   18.3910   15.7400 O.2   214  PRO214     -0.2718
    128  CB        -2.7830   20.3930   15.2030 C.3   214  PRO214      0.0282
    129  CG        -2.1710   21.1340   16.3310 C.3   214  PRO214      0.0208
    130  CD        -3.0620   20.7950   17.4560 C.3   214  PRO214      0.0893
    131  N         -5.4120   19.2540   13.6640 N.am  215  LYS215     -0.1980
    132  CA        -5.8990   18.0260   13.0140 C.3   215  LYS215      0.1596
    133  C         -7.0150   17.3300   13.7750 C.2   215  LYS215      0.2287
    134  O         -7.0920   16.1110   13.8520 O.2   215  LYS215     -0.2864
    135  CB        -4.7340   17.0710   12.7440 C.3   215  LYS215      0.0298
    136  CG        -3.6970   17.5970   11.7660 C.3   215  LYS215      0.0038
    137  CD        -2.5300   16.6100   11.6340 C.3   215  LYS215      0.0206
    138  CE        -2.8780   15.1280   11.5610 C.3   215  LYS215      0.1093
    139  NZ        -1.6960   14.2820   11.2430 N.3   215  LYS215     -0.1314
    140  N          0.7510   12.1170   16.6010 N.3   220  GLY220     -0.1225
    141  CA         1.5880   10.9080   16.7010 C.3   220  GLY220      0.1811
    142  C          1.7440   10.5030   18.1670 C.2   220  GLY220      0.2280
    143  O          1.8700   11.3210   19.0520 O.2   220  GLY220     -0.2866
@<TRIPOS>BOND
     1    78    77    2
     2    77    76    1
     3    76    79    1
     4    76    75    1
     5   106   105    2
     6    79    80    1
     7   105   104    1
     8    80    81    1
     9    80    82    1
    10   104   107    1
    11   104   103    1
    12   100    99    2
    13   107   108    1
    14    99   103   am
    15    99    98    1
    16   103   109    1
    17   102   101    1
    18    71    72    2
    19    71    70    1
    20   108   109    1
    21   101    98    1
    22    86    85    2
    23    98    97    1
    24    97    93   am
    25    85    84    1
    26    70    69    1
    27    70    73    1
    28    25    24    1
    29    91    92    1
    30    74    73    1
    31    83    84    1
    32    92    93    1
    33    92    95    1
    34    93    94    2
    35    84    87    1
    36    24    26    1
    37    24    23    2
    38    68    66    1
    39    22    21    1
    40    22    23    1
    41    87    88    1
    42    21    20    1
    43    95    96    1
    44    89    88    2
    45    88    90   am
    46    66    65    1
    47    66    67    1
    48    20    17    1
    49   139   138    1
    50    65    62    1
    51    16    17    1
    52    17    18    1
    53   138   137    1
    54   137   136    1
    55   136   135    1
    56    60    59    2
    57    12    11    1
    58    12    13    2
    59    14    15    1
    60    14    11    1
    61    33    32    2
    62    64    63    2
    63    11    10    1
    64   135   132    1
    65    59    58    1
    66    59    61   am
    67   117   115   am
    68    62    61    1
    69    62    63    1
    70    18    19    2
    71   132   131    1
    72   132   133    1
    73    58    57    1
    74   114   115    1
    75   114   111    1
    76    32    34   am
    77    32    31    1
    78   131   126   am
    79   115   116    2
    80   133   134    2
    81     4     3    2
    82    10     3   am
    83    57    51   am
    84   121   120    2
    85    48    47    1
    86   110   111    1
    87    27    28    1
    88     3     2    1
    89    28    31    1
    90    28    29    1
    91   111   112    1
    92   126   125    1
    93   126   127    2
    94   128   125    1
    95   128   129    1
    96   125   124    1
    97    51    52    2
    98    51    50    1
    99     8     9    1
   100     8     7    1
   101   112   113    2
   102   112   118   am
   103   123   122    1
   104   120   119    1
   105    47    44    1
   106   118   119    1
   107    29    30    2
   108     6     7    1
   109     6     5    1
   110    46    45    2
   111     2     5    1
   112     2     1    1
   113   129   130    1
   114    44    45    1
   115    44    43    1
   116    45    49   am
   117   119   122    1
   118   140   141    1
   119    49    50    1
   120   141   142    1
   121    50    53    1
   122   124   130    1
   123    38    37    2
   124    53    54    1
   125    41    40    2
   126    43    37   am
   127    37    36    1
   128   142   143    2
   129    54    55    1
   130    40    42   am
   131    40    39    1
   132    36    39    1
   133    36    35    1
   134    55    56    1
