@<TRIPOS>MOLECULE
tmp/3w72A00.pdb
 127 118 0 0 0
SMALL
GASTEIGER

@<TRIPOS>ATOM
      1  N        -15.6720  -16.6970   15.4240 N.3    44  LYS44      -0.1227
      2  CA       -14.2840  -16.6440   14.9750 C.3    44  LYS44       0.1736
      3  C        -14.2370  -16.5540   13.4450 C.2    44  LYS44       0.2596
      4  O        -14.9360  -17.3200   12.7410 O.2    44  LYS44      -0.2718
      5  CB       -13.6270  -17.9760   15.4040 C.3    44  LYS44       0.0541
      6  CG       -12.2610  -18.2590   14.8660 C.2    44  LYS44      -0.0272
      7  CD       -11.1390  -17.2910   15.3390 C.2    44  LYS44      -0.0103
      8  CE        -9.7680  -17.3740   14.6620 C.3    44  LYS44       0.1350
      9  NZ        -8.7860  -16.2700   15.0960 N.3    44  LYS44      -0.1262
     10  N        -13.3250  -15.7400   12.9500 N.am   45  SER45      -0.1952
     11  CA       -13.1530  -15.6060   11.4560 C.3    45  SER45       0.1924
     12  C        -12.8230  -17.0160   10.9560 C.2    45  SER45       0.2314
     13  O        -11.9400  -17.6880   11.4490 O.2    45  SER45      -0.2863
     14  CB       -12.0140  -14.7100   11.0680 C.3    45  SER45       0.2116
     15  OG       -12.3740  -13.3680   11.4420 O.3    45  SER45      -0.2180
     16  N         -8.8660  -25.2240   10.4050 N.3    51  ARG51      -0.1245
     17  CA        -7.4670  -24.9850   10.5960 C.3    51  ARG51       0.1563
     18  C         -7.0890  -25.2150   12.0270 C.2    51  ARG51       0.2260
     19  O         -7.7260  -24.7910   12.9690 O.2    51  ARG51      -0.2867
     20  CB        -7.0950  -23.5240   10.2620 C.3    51  ARG51       0.0307
     21  CG        -7.2990  -23.1530    8.8560 C.3    51  ARG51       0.0489
     22  CD        -7.0610  -21.7050    8.5520 C.3    51  ARG51       0.2205
     23  NE        -5.7620  -21.1990    8.9810 N.pl3  51  ARG51      -0.0865
     24  CZ        -4.6970  -21.1940    8.2280 C.cat  51  ARG51       0.5346
     25  NH1       -4.7680  -21.6080    6.9740 N.pl3  51  ARG51       0.1354
     26  NH2       -3.5600  -20.6660    8.6470 N.pl3  51  ARG51       0.1354
     27  N         -1.4290  -21.9380   14.3290 N.3    54  ASN54      -0.1240
     28  CA         0.0020  -21.9910   14.5870 C.3    54  ASN54       0.1653
     29  C          0.3230  -22.7130   15.8330 C.2    54  ASN54       0.2266
     30  O         -0.4640  -22.9130   16.7380 O.2    54  ASN54      -0.2867
     31  CB         0.4770  -20.5380   14.6890 C.3    54  ASN54       0.1155
     32  CG         0.5650  -19.8600   13.3780 C.2    54  ASN54       0.2627
     33  OD1        0.6290  -20.5130   12.3050 O.2    54  ASN54      -0.2716
     34  ND2        0.5800  -18.5650   13.3940 N.am   54  ASN54      -0.0877
     35  N         -0.6490  -11.6380   19.6320 N.3    68  ASN68      -0.1225
     36  CA        -1.0710  -12.9630   19.1020 C.3    68  ASN68       0.1785
     37  C         -0.6680  -13.1120   17.6810 C.2    68  ASN68       0.2598
     38  O         -0.6820  -12.2340   16.8210 O.2    68  ASN68      -0.2718
     39  CB        -2.5700  -13.1650   19.2350 C.3    68  ASN68       0.1169
     40  CG        -3.3540  -12.6700   18.0700 C.2    68  ASN68       0.2627
     41  OD1       -3.5030  -13.2600   16.9820 O.2    68  ASN68      -0.2716
     42  ND2       -3.8530  -11.4470   18.2270 N.am   68  ASN68      -0.0877
     43  N         -0.3080  -14.4130   17.4020 N.am   69  SER69      -0.1938
     44  CA        -0.1820  -14.9030   16.0030 C.3    69  SER69       0.2055
     45  C         -0.8690  -16.2490   15.9300 C.2    69  SER69       0.2643
     46  O         -0.1990  -17.2540   15.9260 O.2    69  SER69      -0.2714
     47  CB         1.2480  -14.9290   15.5150 C.3    69  SER69       0.2130
     48  OG         1.7370  -13.5820   15.3220 O.3    69  SER69      -0.2179
     49  N         -2.1760  -16.2670   16.0420 N.am   70  MET70      -0.1962
     50  CA        -2.9180  -17.5160   16.1500 C.3    70  MET70       0.1736
     51  C         -2.8390  -18.3610   14.9610 C.2    70  MET70       0.2617
     52  O         -2.8890  -19.5700   15.1400 O.2    70  MET70      -0.2715
     53  CB        -4.3500  -17.2100   16.4960 C.3    70  MET70       0.0427
     54  CG        -4.6430  -16.3550   17.6860 C.3    70  MET70       0.0599
     55  SD        -4.0410  -17.0090   19.2480 S.3    70  MET70      -0.1393
     56  CE        -5.1160  -18.2750   19.5840 C.3    70  MET70       0.0692
     57  N         -2.7500  -17.7730   13.7950 N.am   71  GLY71      -0.1940
     58  CA        -2.8030  -18.5060   12.5280 C.3    71  GLY71       0.2014
     59  C         -4.1620  -18.9880   12.1350 C.2    71  GLY71       0.2638
     60  O         -4.3040  -19.9480   11.4070 O.2    71  GLY71      -0.2714
     61  N         -5.1530  -18.2170   12.5580 N.am   72  LEU72      -0.1977
     62  CA        -6.5450  -18.4700   12.2390 C.3    72  LEU72       0.1596
     63  C         -6.9790  -19.9160   12.5380 C.2    72  LEU72       0.2287
     64  O         -7.5880  -20.5710   11.6660 O.2    72  LEU72      -0.2864
     65  CB        -6.9190  -18.0310   10.8110 C.3    72  LEU72       0.0297
     66  CG        -8.4080  -17.8330   10.7290 C.3    72  LEU72       0.0022
     67  CD1       -8.8270  -16.4110   11.0900 C.3    72  LEU72       0.0001
     68  CD2       -8.9060  -18.1000    9.2970 C.3    72  LEU72       0.0001
     69  N        -12.9450  -15.0360    6.8040 N.3   100  SER100     -0.1217
     70  CA       -11.6600  -14.5620    6.3280 C.3   100  SER100      0.1889
     71  C        -11.0150  -15.6900    5.5290 C.2   100  SER100      0.2288
     72  O        -10.0990  -16.3100    5.9430 O.2   100  SER100     -0.2866
     73  CB       -10.7790  -14.0560    7.5030 C.3   100  SER100      0.2089
     74  OG        -9.9330  -13.0120    6.9980 O.3   100  SER100     -0.2183
     75  N         -8.7580  -17.2800    2.3340 N.3   102  LEU102     -0.1245
     76  CA        -7.3640  -17.0360    1.8990 C.3   102  LEU102      0.1561
     77  C         -7.3150  -16.4990    0.4560 C.2   102  LEU102      0.2260
     78  O         -6.2470  -16.1280   -0.0070 O.2   102  LEU102     -0.2867
     79  CB        -6.5470  -18.3110    1.9920 C.3   102  LEU102      0.0270
     80  CG        -5.7830  -18.6790    3.2660 C.3   102  LEU102      0.0019
     81  CD1       -6.4610  -18.3520    4.5530 C.3   102  LEU102      0.0001
     82  CD2       -5.4840  -20.1750    3.2160 C.3   102  LEU102      0.0001
     83  N        -13.5910  -10.0870    7.3520 N.3   128  ASN128     -0.1240
     84  CA       -12.2910   -9.7080    7.8930 C.3   128  ASN128      0.1653
     85  C        -11.3300   -9.4550    6.7660 C.2   128  ASN128      0.2266
     86  O        -10.8620  -10.4120    6.1780 O.2   128  ASN128     -0.2867
     87  CB       -11.8140  -10.7900    8.8510 C.3   128  ASN128      0.1155
     88  CG       -10.4280  -10.5760    9.4240 C.2   128  ASN128      0.2627
     89  OD1       -9.8030   -9.5760    9.1590 O.2   128  ASN128     -0.2716
     90  ND2       -9.9780  -11.5030   10.2580 N.am  128  ASN128     -0.0877
     91  N         -8.2550   -8.2890    6.9390 N.3   130  SER130     -0.1202
     92  CA        -6.8260   -8.5480    7.3250 C.3   130  SER130      0.2020
     93  C         -6.3990   -9.9320    6.8920 C.2   130  SER130      0.2619
     94  O         -5.7060  -10.5890    7.5780 O.2   130  SER130     -0.2717
     95  CB        -6.6140   -8.2480    8.8100 C.3   130  SER130      0.2103
     96  OG        -6.6650   -6.8560    9.0050 O.3   130  SER130     -0.2182
     97  N         -6.9020  -10.4020    5.7850 N.am  131  CYS131     -0.1956
     98  CA        -6.6070  -11.7110    5.2350 C.3   131  CYS131      0.1828
     99  C         -5.4630  -11.6270    4.2170 C.2   131  CYS131      0.2467
    100  O         -5.0320  -10.5430    3.7150 O.2   131  CYS131     -0.2730
    101  CB        -7.8390  -12.2670    4.5740 C.3   131  CYS131      0.0996
    102  SG        -8.6360  -11.0390    3.5000 S.3   131  CYS131     -0.0797
    103  N         -4.9450  -12.8130    3.9080 N.am  132  PRO132     -0.2726
    104  CA        -3.7070  -12.7180    3.1780 C.3   132  PRO132      0.1402
    105  C         -3.9570  -12.4670    1.7150 C.2   132  PRO132      0.2269
    106  O         -5.0560  -12.6600    1.1420 O.2   132  PRO132     -0.2865
    107  CB        -3.0580  -14.1050    3.3620 C.3   132  PRO132      0.0296
    108  CG        -4.1230  -15.0190    3.8720 C.3   132  PRO132      0.0237
    109  CD        -5.0900  -14.1070    4.6130 C.3   132  PRO132      0.0939
    110  N         -8.9050   -4.0760   13.9200 N.3   195  ASN195     -0.1225
    111  CA        -8.0990   -5.2950   14.2000 C.3   195  ASN195      0.1785
    112  C         -6.8230   -4.9410   14.9620 C.2   195  ASN195      0.2597
    113  O         -6.5720   -3.7670   15.2310 O.2   195  ASN195     -0.2718
    114  CB        -7.8670   -5.9900   12.8440 C.3   195  ASN195      0.1169
    115  CG        -7.8400   -7.4980   12.9730 C.2   195  ASN195      0.2627
    116  OD1       -7.2430   -8.0640   13.8990 O.2   195  ASN195     -0.2716
    117  ND2       -8.4730   -8.1440   12.0500 N.am  195  ASN195     -0.0877
    118  N         -6.0920   -5.9480   15.3370 N.am  196  SER196     -0.1952
    119  CA        -4.9030   -5.7060   16.0640 C.3   196  SER196      0.1924
    120  C         -3.9070   -4.8380   15.3170 C.2   196  SER196      0.2314
    121  O         -3.8930   -4.7650   14.1440 O.2   196  SER196     -0.2863
    122  CB        -4.3050   -7.0380   16.5630 C.3   196  SER196      0.2116
    123  OG        -4.1840   -7.9520   15.5690 O.3   196  SER196     -0.2180
    124  N          0.1470   -9.5870   16.3890 N.3   220  GLY220     -0.1225
    125  CA        -0.7470   -8.4080   16.4960 C.3   220  GLY220      0.1811
    126  C         -0.9510   -8.0160   17.9020 C.2   220  GLY220      0.2280
    127  O         -1.1730   -8.8480   18.8010 O.2   220  GLY220     -0.2866
@<TRIPOS>BOND
     1    78    77    2
     2    77    76    1
     3   106   105    2
     4   105   104    1
     5    76    79    1
     6    76    75    1
     7    79    80    1
     8   104   107    1
     9   104   103    1
    10    82    80    1
    11    80    81    1
    12   107   108    1
    13   102   101    1
    14   100    99    2
    15   108   109    1
    16   103    99   am
    17   103   109    1
    18    99    98    1
    19   101    98    1
    20    98    97    1
    21    71    72    2
    22    71    70    1
    23    97    93   am
    24    86    85    2
    25    70    69    1
    26    70    73    1
    27    85    84    1
    28    93    92    1
    29    93    94    2
    30    91    92    1
    31    25    24    1
    32    74    73    1
    33    92    95    1
    34    83    84    1
    35    84    87    1
    36    24    26    1
    37    24    23    2
    38    22    21    1
    39    22    23    1
    40    95    96    1
    41    87    88    1
    42    21    20    1
    43    89    88    2
    44    68    66    1
    45    88    90   am
    46    20    17    1
    47    16    17    1
    48    17    18    1
    49    66    65    1
    50    66    67    1
    51    65    62    1
    52    12    13    2
    53    12    11    1
    54    14    15    1
    55    14    11    1
    56    60    59    2
    57    11    10    1
    58    64    63    2
    59    18    19    2
    60   117   115   am
    61    59    58    1
    62    59    61   am
    63    62    63    1
    64    62    61    1
    65    33    32    2
    66    58    57    1
    67     4     3    2
    68   114   115    1
    69   114   111    1
    70    10     3   am
    71   115   116    2
    72    32    34   am
    73    32    31    1
    74     3     2    1
    75    57    51   am
    76   110   111    1
    77   121   120    2
    78   111   112    1
    79    27    28    1
    80    28    31    1
    81    28    29    1
    82     8     9    1
    83     8     7    1
    84     6     7    2
    85     6     5    1
    86    51    52    2
    87    51    50    1
    88   112   113    2
    89   112   118   am
    90     2     5    1
    91     2     1    1
    92   120   119    1
    93    48    47    1
    94   118   119    1
    95    47    44    1
    96   123   122    1
    97    29    30    2
    98    46    45    2
    99    45    44    1
   100    45    49   am
   101    44    43    1
   102    49    50    1
   103   119   122    1
   104    50    53    1
   105   124   125    1
   106    53    54    1
   107   125   126    1
   108    38    37    2
   109    41    40    2
   110    43    37   am
   111    37    36    1
   112    54    55    1
   113   126   127    2
   114    40    42   am
   115    40    39    1
   116    36    39    1
   117    36    35    1
   118    55    56    1
