@<TRIPOS>MOLECULE
tmp/3w73A00.pdb
 130 119 0 0 0
SMALL
GASTEIGER

@<TRIPOS>ATOM
      1  N        -15.9670  -16.7760   15.9930 N.3    44  LYS44      -0.1231
      2  CA       -14.5870  -16.8010   15.5050 C.3    44  LYS44       0.1693
      3  C        -14.4900  -16.6830   13.9780 C.2    44  LYS44       0.2592
      4  O        -15.2350  -17.3390   13.3240 O.2    44  LYS44      -0.2718
      5  CB       -13.9020  -18.1140   15.9330 C.3    44  LYS44       0.0285
      6  CG       -12.4360  -18.3100   15.4730 C.3    44  LYS44       0.0035
      7  CD       -11.3560  -17.4090   16.0750 C.3    44  LYS44       0.0206
      8  CE       -10.0700  -17.3640   15.2460 C.3    44  LYS44       0.1093
      9  NZ        -8.8950  -16.3960   15.6350 N.3    44  LYS44      -0.1314
     10  N        -13.6320  -15.8230   13.4490 N.am   45  SER45      -0.1952
     11  CA       -13.4250  -15.7310   11.9760 C.3    45  SER45       0.1924
     12  C        -13.0890  -17.1200   11.4310 C.2    45  SER45       0.2314
     13  O        -12.2350  -17.8040   11.9910 O.2    45  SER45      -0.2863
     14  CB       -12.2770  -14.8000   11.6450 C.3    45  SER45       0.2116
     15  OG       -12.6460  -13.4550   11.9680 O.3    45  SER45      -0.2180
     16  N         -8.9810  -25.4000   11.0260 N.3    51  ARG51      -0.1245
     17  CA        -7.5610  -25.1120   11.1370 C.3    51  ARG51       0.1563
     18  C         -7.1680  -25.2870   12.6040 C.2    51  ARG51       0.2260
     19  O         -7.8690  -24.8680   13.5490 O.2    51  ARG51      -0.2867
     20  CB        -7.1890  -23.6660   10.7540 C.3    51  ARG51       0.0307
     21  CG        -7.4140  -23.2470    9.3400 C.3    51  ARG51       0.0489
     22  CD        -7.1660  -21.7400    9.1680 C.3    51  ARG51       0.2205
     23  NE        -5.8140  -21.2720    9.5840 N.pl3  51  ARG51      -0.0865
     24  CZ        -4.7620  -21.2730    8.7990 C.cat  51  ARG51       0.5346
     25  NH1       -4.8630  -21.7210    7.5430 N.pl3  51  ARG51       0.1354
     26  NH2       -3.5990  -20.8180    9.2550 N.pl3  51  ARG51       0.1354
     27  N         -1.4920  -21.8360   14.7210 N.3    54  ASN54      -0.1240
     28  CA        -0.0500  -21.8630   14.9580 C.3    54  ASN54       0.1653
     29  C          0.3670  -22.5860   16.2240 C.2    54  ASN54       0.2266
     30  O         -0.4850  -22.8430   17.1250 O.2    54  ASN54      -0.2867
     31  CB         0.4550  -20.4220   15.0360 C.3    54  ASN54       0.1155
     32  CG         0.4480  -19.7430   13.7180 C.2    54  ASN54       0.2627
     33  OD1        0.4360  -20.3970   12.6800 O.2    54  ASN54      -0.2716
     34  ND2        0.5150  -18.4220   13.7170 N.am   54  ASN54      -0.0877
     35  N         -0.6680  -11.6240   20.0320 N.3    68  ASN68      -0.1225
     36  CA        -1.1150  -12.9250   19.5510 C.3    68  ASN68       0.1785
     37  C         -0.6570  -13.1560   18.1190 C.2    68  ASN68       0.2598
     38  O         -0.6610  -12.2630   17.2780 O.2    68  ASN68      -0.2718
     39  CB        -2.6670  -13.0770   19.6620 C.3    68  ASN68       0.1169
     40  CG        -3.4230  -12.5770   18.4580 C.2    68  ASN68       0.2627
     41  OD1       -3.5480  -13.2790   17.4190 O.2    68  ASN68      -0.2716
     42  ND2       -3.9110  -11.3580   18.5240 N.am   68  ASN68      -0.0877
     43  N         -0.3520  -14.4290   17.8390 N.am   69  SER69      -0.1938
     44  CA        -0.2380  -14.8840   16.4850 C.3    69  SER69       0.2055
     45  C         -0.9320  -16.2160   16.4110 C.2    69  SER69       0.2643
     46  O         -0.3010  -17.2840   16.2950 O.2    69  SER69      -0.2714
     47  CB         1.2610  -15.0230   16.1190 C.3    69  SER69       0.2130
     48  OG         1.3600  -15.5370   14.8160 O.3    69  SER69      -0.2179
     49  N         -2.2240  -16.1720   16.5870 N.am   70  MET70      -0.1962
     50  CA        -2.9880  -17.4210   16.7030 C.3    70  MET70       0.1736
     51  C         -2.9480  -18.2710   15.4510 C.2    70  MET70       0.2617
     52  O         -2.9880  -19.5040   15.5460 O.2    70  MET70      -0.2715
     53  CB        -4.4170  -17.1420   16.9990 C.3    70  MET70       0.0427
     54  CG        -4.6710  -16.3020   18.1780 C.3    70  MET70       0.0599
     55  SD        -4.2170  -16.9950   19.7520 S.3    70  MET70      -0.1393
     56  CE        -5.2230  -18.3990   19.9170 C.3    70  MET70       0.0692
     57  N         -2.9040  -17.6480   14.2940 N.am   71  GLY71      -0.1940
     58  CA        -2.9570  -18.3870   13.0600 C.3    71  GLY71       0.2014
     59  C         -4.3180  -18.8880   12.6270 C.2    71  GLY71       0.2638
     60  O         -4.4360  -19.9260   11.9740 O.2    71  GLY71      -0.2714
     61  N         -5.3680  -18.1780   13.0370 N.am   72  LEU72      -0.1977
     62  CA        -6.7530  -18.5270   12.7260 C.3    72  LEU72       0.1596
     63  C         -7.2040  -19.9730   13.0190 C.2    72  LEU72       0.2287
     64  O         -7.8620  -20.6090   12.1610 O.2    72  LEU72      -0.2864
     65  CB        -7.1010  -18.1270   11.2730 C.3    72  LEU72       0.0297
     66  CG        -8.6240  -17.9510   11.2270 C.3    72  LEU72       0.0022
     67  CD1       -9.1000  -16.5580   11.6250 C.3    72  LEU72       0.0001
     68  CD2       -9.0960  -18.2510    9.8490 C.3    72  LEU72       0.0001
     69  N        -13.0640  -15.2380    7.3460 N.3   100  SER100     -0.1217
     70  CA       -11.7360  -14.8080    6.9910 C.3   100  SER100      0.1889
     71  C        -11.1390  -15.8540    6.0420 C.2   100  SER100      0.2288
     72  O        -10.1310  -16.4650    6.3590 O.2   100  SER100     -0.2866
     73  CB       -10.8500  -14.7380    8.2100 C.3   100  SER100      0.2089
     74  OG        -9.7920  -13.8970    7.9170 O.3   100  SER100     -0.2183
     75  N         -9.0290  -17.4560    2.9220 N.3   102  LEU102     -0.1245
     76  CA        -7.6240  -17.2540    2.4640 C.3   102  LEU102      0.1561
     77  C         -7.5740  -16.6610    1.0330 C.2   102  LEU102      0.2260
     78  O         -6.5330  -16.2150    0.5880 O.2   102  LEU102     -0.2867
     79  CB        -6.8610  -18.5890    2.5100 C.3   102  LEU102      0.0270
     80  CG        -6.0150  -18.9340    3.7670 C.3   102  LEU102      0.0019
     81  CD1       -6.7120  -18.5920    5.0720 C.3   102  LEU102      0.0001
     82  CD2       -5.6210  -20.4130    3.7400 C.3   102  LEU102      0.0001
     83  N        -13.7180  -10.2580    7.6660 N.3   128  ASN128     -0.1240
     84  CA       -12.4050   -9.8260    8.2130 C.3   128  ASN128      0.1653
     85  C        -11.4140   -9.5710    7.0770 C.2   128  ASN128      0.2266
     86  O        -10.9780  -10.5170    6.4490 O.2   128  ASN128     -0.2867
     87  CB       -11.9140  -10.9080    9.1350 C.3   128  ASN128      0.1155
     88  CG       -10.5620  -10.6320    9.7670 C.2   128  ASN128      0.2627
     89  OD1       -9.9830   -9.6160    9.5970 O.2   128  ASN128     -0.2716
     90  ND2      -10.1110  -11.5520   10.5500 N.am  128  ASN128     -0.0877
     91  N         -8.4240   -8.3480    7.3460 N.3   130  SER130     -0.1217
     92  CA        -7.0260   -8.7430    7.7070 C.3   130  SER130      0.1889
     93  C         -6.6940  -10.1530    7.2420 C.2   130  SER130      0.2288
     94  O         -6.1250  -10.9330    7.9340 O.2   130  SER130     -0.2866
     95  CB        -6.7620   -8.5750    9.2070 C.3   130  SER130      0.2089
     96  OG        -6.9050   -7.1900    9.4880 O.3   130  SER130     -0.2183
     97  N         -5.1610  -12.9710    4.0520 N.3   132  PRO132     -0.2116
     98  CA        -3.9820  -12.9980    3.1910 C.3   132  PRO132      0.1372
     99  C         -4.1560  -12.5870    1.7180 C.2   132  PRO132      0.2244
    100  O         -5.2200  -12.7630    1.0970 O.2   132  PRO132     -0.2868
    101  CB        -3.5290  -14.4760    3.2570 C.3   132  PRO132      0.0268
    102  CG        -4.7600  -15.2460    3.6580 C.3   132  PRO132      0.0207
    103  CD        -5.4250  -14.3090    4.6360 C.3   132  PRO132      0.0892
    104  N         -9.0480   -4.0190   14.1940 N.3   195  ASN195     -0.1225
    105  CA        -8.2820   -5.2790   14.4810 C.3   195  ASN195      0.1785
    106  C         -6.9850   -4.9570   15.2960 C.2   195  ASN195      0.2597
    107  O         -6.6360   -3.7720   15.5330 O.2   195  ASN195     -0.2718
    108  CB        -8.0050   -6.0180   13.1690 C.3   195  ASN195      0.1169
    109  CG        -7.9710   -7.5360   13.3410 C.2   195  ASN195      0.2627
    110  OD1       -7.3530   -8.1000   14.2660 O.2   195  ASN195     -0.2716
    111  ND2       -8.6000   -8.2060   12.4320 N.am  195  ASN195     -0.0877
    112  N         -6.2490   -5.9610   15.6700 N.am  196  SER196     -0.1952
    113  CA        -4.9710   -5.7580   16.4080 C.3   196  SER196      0.1924
    114  C         -3.9540   -4.9080   15.6430 C.2   196  SER196      0.2314
    115  O         -3.9610   -4.8500   14.3720 O.2   196  SER196     -0.2863
    116  CB        -4.3830   -7.1650   16.8160 C.3   196  SER196      0.2116
    117  OG        -4.1630   -7.9800   15.7190 O.3   196  SER196     -0.2180
    118  N          6.3140  -16.8010   14.1670 N.3   215  LYS215     -0.1245
    119  CA         6.7850  -15.5850   13.5710 C.3   215  LYS215      0.1561
    120  C          7.8900  -14.8960   14.3850 C.2   215  LYS215      0.2260
    121  O          7.9060  -13.6800   14.4350 O.2   215  LYS215     -0.2867
    122  CB         5.6070  -14.6200   13.3400 C.3   215  LYS215      0.0271
    123  CG         4.5450  -15.0680   12.3510 C.3   215  LYS215      0.0035
    124  CD         3.4570  -14.0080   12.1250 C.3   215  LYS215      0.0206
    125  CE         3.9290  -12.5470   11.8800 C.3   215  LYS215      0.1093
    126  NZ         2.6840  -11.7750   11.5880 N.3   215  LYS215     -0.1314
    127  N          0.0840   -9.5290   16.7340 N.3   220  GLY220     -0.1225
    128  CA        -0.8020   -8.3930   16.7880 C.3   220  GLY220      0.1811
    129  C         -1.0110   -7.9870   18.2610 C.2   220  GLY220      0.2280
    130  O         -1.1380   -8.8230   19.1870 O.2   220  GLY220     -0.2866
@<TRIPOS>BOND
     1    78    77    2
     2    77    76    1
     3   100    99    2
     4    99    98    1
     5    76    79    1
     6    76    75    1
     7    79    80    1
     8    98   101    1
     9    98    97    1
    10   101   102    1
    11   102   103    1
    12    82    80    1
    13    80    81    1
    14    97   103    1
    15    71    72    2
    16    71    70    1
    17    86    85    2
    18    70    69    1
    19    70    73    1
    20    85    84    1
    21    93    92    1
    22    93    94    2
    23    91    92    1
    24    25    24    1
    25    83    84    1
    26    92    95    1
    27    74    73    1
    28    84    87    1
    29    24    26    1
    30    24    23    2
    31    87    88    1
    32    22    21    1
    33    22    23    1
    34    95    96    1
    35    21    20    1
    36    89    88    2
    37    88    90   am
    38    68    66    1
    39    20    17    1
    40    16    17    1
    41    17    18    1
    42    66    65    1
    43    66    67    1
    44    65    62    1
    45    12    11    1
    46    12    13    2
    47   126   125    1
    48    14    15    1
    49    14    11    1
    50   125   124    1
    51    60    59    2
    52    11    10    1
    53   124   123    1
    54    64    63    2
    55   123   122    1
    56   111   109   am
    57    18    19    2
    58    59    61   am
    59    59    58    1
    60    33    32    2
    61    62    63    1
    62    62    61    1
    63    58    57    1
    64   108   109    1
    65   108   105    1
    66     4     3    2
    67   122   119    1
    68   109   110    2
    69    10     3   am
    70   119   118    1
    71   119   120    1
    72    34    32   am
    73    32    31    1
    74     3     2    1
    75   104   105    1
    76    57    51   am
    77   115   114    2
    78   120   121    2
    79   105   106    1
    80    27    28    1
    81    48    47    1
    82    28    31    1
    83    28    29    1
    84     8     9    1
    85     8     7    1
    86   106   107    2
    87   106   112   am
    88    51    52    2
    89    51    50    1
    90     6     5    1
    91     6     7    1
    92     2     5    1
    93     2     1    1
    94   114   113    1
    95   112   113    1
    96   117   116    1
    97    47    44    1
    98    29    30    2
    99    46    45    2
   100   113   116    1
   101    45    44    1
   102    45    49   am
   103    44    43    1
   104    49    50    1
   105    50    53    1
   106   127   128    1
   107   128   129    1
   108    53    54    1
   109    38    37    2
   110    41    40    2
   111    43    37   am
   112    37    36    1
   113    54    55    1
   114   129   130    2
   115    40    42   am
   116    40    39    1
   117    36    39    1
   118    36    35    1
   119    55    56    1
