@<TRIPOS>MOLECULE
tmp/3w74A00.pdb
 136 126 0 0 0
SMALL
GASTEIGER

@<TRIPOS>ATOM
      1  N        -16.6200   19.1290  -16.9070 N.3    44  LYS44      -0.1231
      2  CA       -15.2630   19.1460  -16.3760 C.3    44  LYS44       0.1693
      3  C        -15.2930   19.0370  -14.8620 C.2    44  LYS44       0.2592
      4  O        -15.9900   19.8080  -14.2040 O.2    44  LYS44      -0.2718
      5  CB       -14.5350   20.4330  -16.8010 C.3    44  LYS44       0.0285
      6  CG       -13.1860   20.6950  -16.1560 C.3    44  LYS44       0.0035
      7  CD       -12.1370   19.7070  -16.5770 C.3    44  LYS44       0.0206
      8  CE       -10.9850   19.7710  -15.6180 C.3    44  LYS44       0.1093
      9  NZ        -9.8340   18.9030  -16.0540 N.3    44  LYS44      -0.1314
     10  N        -14.4250   18.2060  -14.3150 N.am   45  SER45      -0.1952
     11  CA       -14.2410   18.1450  -12.8660 C.3    45  SER45       0.1924
     12  C        -13.9670   19.5330  -12.2830 C.2    45  SER45       0.2314
     13  O        -13.0310   20.2050  -12.6710 O.2    45  SER45      -0.2863
     14  CB       -13.1060   17.2330  -12.4960 C.3    45  SER45       0.2116
     15  OG       -13.4630   15.9170  -12.6820 O.3    45  SER45      -0.2180
     16  N        -10.1450   27.7680  -11.5880 N.3    51  ARG51      -0.1245
     17  CA        -8.7170   27.5190  -11.6790 C.3    51  ARG51       0.1563
     18  C         -8.2680   27.6460  -13.1210 C.2    51  ARG51       0.2260
     19  O         -8.9690   27.2270  -14.0410 O.2    51  ARG51      -0.2867
     20  CB        -8.3010   26.1150  -11.1810 C.3    51  ARG51       0.0307
     21  CG        -8.6580   25.8130   -9.7340 C.3    51  ARG51       0.0489
     22  CD        -8.4090   24.3550   -9.3660 C.3    51  ARG51       0.2205
     23  NE        -7.0910   23.8720   -9.7860 N.pl3  51  ARG51      -0.0865
     24  CZ        -6.0320   23.8360   -9.0200 C.cat  51  ARG51       0.5346
     25  NH1       -6.0850   24.3060   -7.7820 N.pl3  51  ARG51       0.1354
     26  NH2       -4.9230   23.3660   -9.4960 N.pl3  51  ARG51       0.1354
     27  N         -2.5170   24.1200  -14.7450 N.3    54  ASN54      -0.1240
     28  CA        -1.0800   24.1760  -14.8890 C.3    54  ASN54       0.1653
     29  C         -0.5710   24.9390  -16.1280 C.2    54  ASN54       0.2266
     30  O         -1.3400   25.2460  -17.0580 O.2    54  ASN54      -0.2867
     31  CB        -0.5080   22.7820  -14.8750 C.3    54  ASN54       0.1155
     32  CG        -0.5740   22.1340  -13.5390 C.2    54  ASN54       0.2627
     33  OD1       -0.6910   22.7940  -12.5150 O.2    54  ASN54      -0.2716
     34  ND2       -0.5210   20.8110  -13.5300 N.am   54  ASN54      -0.0877
     35  N         -1.2010   14.1440  -20.0780 N.3    68  ASN68      -0.1225
     36  CA        -1.7900   15.4370  -19.6730 C.3    68  ASN68       0.1785
     37  C         -1.4570   15.7140  -18.2200 C.2    68  ASN68       0.2598
     38  O         -1.4250   14.7450  -17.3650 O.2    68  ASN68      -0.2718
     39  CB        -3.2990   15.4850  -19.8980 C.3    68  ASN68       0.1169
     40  CG        -4.0760   15.0420  -18.7010 C.2    68  ASN68       0.2627
     41  OD1       -4.2060   15.7900  -17.6750 O.2    68  ASN68      -0.2716
     42  ND2       -4.5750   13.8210  -18.7540 N.am   68  ASN68      -0.0877
     43  N         -1.1360   16.9530  -17.9150 N.am   69  SER69      -0.1938
     44  CA        -1.1480   17.3930  -16.4950 C.3    69  SER69       0.2055
     45  C         -1.8710   18.6860  -16.4720 C.2    69  SER69       0.2643
     46  O         -1.2490   19.7210  -16.2850 O.2    69  SER69      -0.2714
     47  CB         0.2310   17.6250  -15.8470 C.3    69  SER69       0.2130
     48  OG         0.9570   16.4270  -15.7970 O.3    69  SER69      -0.2179
     49  N         -3.1710   18.6170  -16.6690 N.am   70  MET70      -0.1962
     50  CA        -3.9730   19.8450  -16.7840 C.3    70  MET70       0.1736
     51  C         -3.9670   20.6480  -15.4530 C.2    70  MET70       0.2617
     52  O         -3.8050   21.9010  -15.4440 O.2    70  MET70      -0.2715
     53  CB        -5.3480   19.5160  -17.1970 C.3    70  MET70       0.0427
     54  CG        -5.4580   18.7020  -18.4740 C.3    70  MET70       0.0599
     55  SD        -4.8000   19.4980  -19.9430 S.3    70  MET70      -0.1393
     56  CE        -5.9680   20.7850  -20.2510 C.3    70  MET70       0.0692
     57  N         -4.0920   19.9550  -14.3350 N.am   71  GLY71      -0.1940
     58  CA        -4.1530   20.6610  -13.0290 C.3    71  GLY71       0.2014
     59  C         -5.4920   21.2580  -12.6790 C.2    71  GLY71       0.2638
     60  O         -5.5750   22.3310  -12.0810 O.2    71  GLY71      -0.2714
     61  N         -6.5510   20.5950  -13.1340 N.am   72  LEU72      -0.1977
     62  CA        -7.9100   20.9750  -12.8460 C.3    72  LEU72       0.1596
     63  C         -8.2810   22.4060  -13.2230 C.2    72  LEU72       0.2287
     64  O         -8.8830   23.1180  -12.4120 O.2    72  LEU72      -0.2864
     65  CB        -8.1420   20.7720  -11.3330 C.3    72  LEU72       0.0297
     66  CG        -9.2590   19.9360  -10.7560 C.3    72  LEU72       0.0022
     67  CD1       -9.7650   18.8750  -11.6610 C.3    72  LEU72       0.0001
     68  CD2       -8.7800   19.3250   -9.4290 C.3    72  LEU72       0.0001
     69  N        -14.2920   17.5490   -8.1400 N.3   100  SER100     -0.1217
     70  CA       -12.9550   17.1190   -7.7600 C.3   100  SER100      0.1889
     71  C        -12.3680   18.0650   -6.7280 C.2   100  SER100      0.2288
     72  O        -11.3200   18.7180   -6.9370 O.2   100  SER100     -0.2866
     73  CB       -12.0370   17.0260   -8.9990 C.3   100  SER100      0.2089
     74  OG       -10.7870   16.5460   -8.5990 O.3   100  SER100     -0.2183
     75  N        -10.3850   19.6020   -3.5520 N.3   102  LEU102     -0.1245
     76  CA        -9.0370   19.3430   -3.0400 C.3   102  LEU102      0.1561
     77  C         -9.0050   19.0330   -1.5170 C.2   102  LEU102      0.2260
     78  O         -7.9550   18.9480   -0.9390 O.2   102  LEU102     -0.2867
     79  CB        -8.0860   20.5000   -3.3510 C.3   102  LEU102      0.0270
     80  CG        -8.1310   20.9960   -4.8330 C.3   102  LEU102      0.0019
     81  CD1       -7.1210   22.1110   -5.0530 C.3   102  LEU102      0.0001
     82  CD2       -7.9080   19.8760   -5.8160 C.3   102  LEU102      0.0001
     83  N        -14.9080   12.5770   -8.2980 N.3   128  ASN128     -0.1240
     84  CA       -13.6060   12.2060   -8.8150 C.3   128  ASN128      0.1653
     85  C        -12.6790   11.9120   -7.6680 C.2   128  ASN128      0.2266
     86  O        -12.2950   12.8130   -6.9190 O.2   128  ASN128     -0.2867
     87  CB       -13.0190   13.3070   -9.6780 C.3   128  ASN128      0.1155
     88  CG       -11.7110   12.9400  -10.3270 C.2   128  ASN128      0.2627
     89  OD1      -11.1210   11.9030  -10.0840 O.2   128  ASN128     -0.2716
     90  ND2      -11.2870   13.7980  -11.2370 N.am  128  ASN128     -0.0877
     91  N         -9.8780   10.2580   -8.0890 N.3   130  SER130     -0.1202
     92  CA        -8.6000    9.9330   -8.7420 C.3   130  SER130      0.2020
     93  C         -7.8660   11.2230   -8.7790 C.2   130  SER130      0.2619
     94  O         -7.4570   11.6860   -9.8380 O.2   130  SER130     -0.2717
     95  CB        -8.7650    9.3860  -10.1790 C.3   130  SER130      0.2103
     96  OG       -10.1350    9.0140  -10.5150 O.3   130  SER130     -0.2182
     97  N         -7.6710   11.7740   -7.5900 N.am  131  CYS131     -0.1956
     98  CA        -7.5000   13.1780   -7.3530 C.3   131  CYS131      0.1828
     99  C         -6.6540   13.4800   -6.0490 C.2   131  CYS131      0.2467
    100  O         -6.9520   12.9040   -4.9930 O.2   131  CYS131     -0.2730
    101  CB        -8.9110   13.7180   -7.1080 C.3   131  CYS131      0.0996
    102  SG        -8.9710   15.3560   -6.3630 S.3   131  CYS131     -0.0797
    103  N         -5.6570   14.4150   -6.1090 N.am  132  PRO132     -0.2726
    104  CA        -4.9590   15.0660   -4.9630 C.3   132  PRO132      0.1402
    105  C         -5.6650   15.2460   -3.6020 C.2   132  PRO132      0.2269
    106  O         -6.7750   15.8000   -3.4970 O.2   132  PRO132     -0.2865
    107  CB        -4.6410   16.4440   -5.5410 C.3   132  PRO132      0.0296
    108  CG        -4.2830   16.1310   -6.9690 C.3   132  PRO132      0.0237
    109  CD        -4.9660   14.8110   -7.3560 C.3   132  PRO132      0.0939
    110  N         -9.7640    6.4470  -14.6520 N.3   195  ASN195     -0.1225
    111  CA        -9.0540    7.7050  -14.9100 C.3   195  ASN195      0.1785
    112  C         -7.7510    7.3250  -15.5980 C.2   195  ASN195      0.2597
    113  O         -7.5120    6.1290  -15.8890 O.2   195  ASN195     -0.2718
    114  CB        -8.8150    8.5110  -13.6070 C.3   195  ASN195      0.1169
    115  CG        -8.8670    9.9550  -13.8290 C.2   195  ASN195      0.2627
    116  OD1       -8.1130   10.4860  -14.6480 O.2   195  ASN195     -0.2716
    117  ND2       -9.8320   10.6130  -13.2080 N.am  195  ASN195     -0.0877
    118  N         -6.9220    8.3290  -15.9020 N.am  196  SER196     -0.1952
    119  CA        -5.6790    8.1130  -16.6250 C.3   196  SER196      0.1924
    120  C         -4.7020    7.2350  -15.8210 C.2   196  SER196      0.2314
    121  O         -4.7290    7.1730  -14.5470 O.2   196  SER196     -0.2863
    122  CB        -5.1260    9.4770  -17.0700 C.3   196  SER196      0.2116
    123  OG        -5.0640   10.3320  -16.0100 O.3   196  SER196     -0.2180
    124  N          5.2820   19.1830  -13.6810 N.3   215  LYS215     -0.1245
    125  CA         5.7990   17.9600  -13.1240 C.3   215  LYS215      0.1561
    126  C          6.9550   17.2970  -13.8810 C.2   215  LYS215      0.2260
    127  O          7.0570   16.1190  -13.9160 O.2   215  LYS215     -0.2867
    128  CB         4.6380   16.9580  -12.9410 C.3   215  LYS215      0.0271
    129  CG         3.5690   17.4760  -11.9710 C.3   215  LYS215      0.0035
    130  CD         2.3790   16.5270  -11.8950 C.3   215  LYS215      0.0206
    131  CE         2.7960   15.0760  -11.6330 C.3   215  LYS215      0.1093
    132  NZ         1.6180   14.2130  -11.3130 N.3   215  LYS215     -0.1314
    133  N         -0.6620   12.0740  -16.7210 N.3   220  GLY220     -0.1225
    134  CA        -1.5340   10.9120  -16.8820 C.3   220  GLY220      0.1811
    135  C         -1.7210   10.4750  -18.3210 C.2   220  GLY220      0.2280
    136  O         -1.9090   11.3020  -19.2230 O.2   220  GLY220     -0.2866
@<TRIPOS>BOND
     1    56    55    1
     2    35    36    1
     3    55    54    1
     4    39    36    1
     5    39    40    1
     6    36    37    1
     7   136   135    2
     8    42    40   am
     9    40    41    2
    10    54    53    1
    11   135   134    1
    12    37    43   am
    13    37    38    2
    14    43    44    1
    15    53    50    1
    16   122   119    1
    17   122   123    1
    18    30    29    2
    19     1     2    1
    20   134   133    1
    21     5     2    1
    22     5     6    1
    23    50    49    1
    24    50    51    1
    25    49    45   am
    26   119   118    1
    27   119   120    1
    28     7     6    1
    29     7     8    1
    30    44    45    1
    31    44    47    1
    32    45    46    2
    33     2     3    1
    34    29    28    1
    35     9     8    1
    36   118   112   am
    37   113   112    2
    38    47    48    1
    39   120   121    2
    40   112   111    1
    41    51    52    2
    42    51    57   am
    43   111   110    1
    44   111   114    1
    45    28    31    1
    46    28    27    1
    47    31    32    1
    48     3    10   am
    49     3     4    2
    50   116   115    2
    51    57    58    1
    52    10    11    1
    53    19    18    2
    54   127   126    2
    55   126   125    1
    56   115   114    1
    57   115   117   am
    58   124   125    1
    59    32    34   am
    60    32    33    2
    61    63    62    1
    62    63    64    2
    63    61    62    1
    64    61    59   am
    65   125   128    1
    66    18    17    1
    67    58    59    1
    68   128   129    1
    69    11    14    1
    70    11    12    1
    71    62    65    1
    72    15    14    1
    73    59    60    2
    74    13    12    2
    75   129   130    1
    76   130   131    1
    77    17    16    1
    78    17    20    1
    79    67    66    1
    80   131   132    1
    81    65    66    1
    82    90    88   am
    83    20    21    1
    84    66    68    1
    85    96    95    1
    86    88    89    2
    87    88    87    1
    88    95    92    1
    89    94    93    2
    90    23    22    1
    91    23    24    2
    92    21    22    1
    93    87    84    1
    94    26    24    1
    95    24    25    1
    96    73    74    1
    97    73    70    1
    98    84    83    1
    99    84    85    1
   100    93    92    1
   101    93    97   am
   102    92    91    1
   103    69    70    1
   104    70    71    1
   105    85    86    2
   106    97    98    1
   107   109   108    1
   108   109   103    1
   109    98   101    1
   110    98    99    1
   111   101   102    1
   112   108   107    1
   113    72    71    2
   114   103    99   am
   115   103   104    1
   116    99   100    2
   117    82    80    1
   118   107   104    1
   119    81    80    1
   120   104   105    1
   121    80    79    1
   122   105   106    2
   123    75    76    1
   124    79    76    1
   125    76    77    1
   126    77    78    2
