@<TRIPOS>MOLECULE
tmp/3w75B00.pdb
 131 121 0 0 0
SMALL
GASTEIGER

@<TRIPOS>ATOM
      1  N        -14.8330   12.8480  -18.4660 N.3    20  ALA20      -0.1245
      2  CA       -14.7130   14.1130  -17.7980 C.3    20  ALA20       0.1562
      3  C        -13.3480   14.7040  -18.1400 C.2    20  ALA20       0.2260
      4  O        -12.3140   14.0590  -18.2640 O.2    20  ALA20      -0.2867
      5  CB       -14.8510   13.9390  -16.2670 C.3    20  ALA20       0.0290
      6  N        -16.6240   19.0700  -16.8140 N.3    44  LYS44      -0.1231
      7  CA       -15.3010   19.1130  -16.2500 C.3    44  LYS44       0.1693
      8  C        -15.3330   18.9960  -14.7550 C.2    44  LYS44       0.2592
      9  O        -16.0630   19.7650  -14.1310 O.2    44  LYS44      -0.2718
     10  CB       -14.6560   20.4460  -16.6810 C.3    44  LYS44       0.0285
     11  CG       -13.2820   20.6370  -16.0600 C.3    44  LYS44       0.0035
     12  CD       -12.1250   19.7010  -16.4770 C.3    44  LYS44       0.0206
     13  CE       -10.8800   19.8210  -15.5870 C.3    44  LYS44       0.1093
     14  NZ        -9.7510   18.7780  -15.9360 N.3    44  LYS44      -0.1314
     15  N        -14.4310   18.1960  -14.2070 N.am   45  SER45      -0.1952
     16  CA       -14.3380   18.1290  -12.7280 C.3    45  SER45       0.1924
     17  C        -14.0730   19.5620  -12.2290 C.2    45  SER45       0.2314
     18  O        -13.2240   20.2540  -12.7040 O.2    45  SER45      -0.2863
     19  CB       -13.2310   17.2720  -12.2960 C.3    45  SER45       0.2116
     20  OG       -13.5150   15.9030  -12.5860 O.3    45  SER45      -0.2180
     21  N         -2.5390   24.2850  -14.7210 N.3    54  ASN54      -0.1240
     22  CA        -1.1190   24.3410  -14.8480 C.3    54  ASN54       0.1653
     23  C         -0.6530   25.0390  -16.0930 C.2    54  ASN54       0.2266
     24  O         -1.3410   25.2690  -17.0260 O.2    54  ASN54      -0.2867
     25  CB        -0.6170   22.8920  -14.8950 C.3    54  ASN54       0.1155
     26  CG        -0.5690   22.2390  -13.5720 C.2    54  ASN54       0.2627
     27  OD1       -0.6470   22.8900  -12.4990 O.2    54  ASN54      -0.2716
     28  ND2       -0.5820   20.9390  -13.5270 N.am   54  ASN54      -0.0877
     29  N         -1.2920   14.0900  -19.9360 N.3    68  ASN68      -0.1225
     30  CA        -1.7890   15.3910  -19.4690 C.3    68  ASN68       0.1785
     31  C         -1.4180   15.6190  -18.0370 C.2    68  ASN68       0.2598
     32  O         -1.4900   14.7610  -17.1900 O.2    68  ASN68      -0.2718
     33  CB        -3.3010   15.5700  -19.6890 C.3    68  ASN68       0.1169
     34  CG        -4.1530   15.0520  -18.5280 C.2    68  ASN68       0.2627
     35  OD1       -4.3710   15.7290  -17.5110 O.2    68  ASN68      -0.2716
     36  ND2       -4.6450   13.8340  -18.6660 N.am   68  ASN68      -0.0877
     37  N         -1.1910   16.8670  -17.7410 N.am   69  SER69      -0.1938
     38  CA        -1.1310   17.3890  -16.3770 C.3    69  SER69       0.2055
     39  C         -1.9060   18.7090  -16.3650 C.2    69  SER69       0.2643
     40  O         -1.2740   19.7740  -16.1960 O.2    69  SER69      -0.2714
     41  CB         0.3190   17.5510  -15.9060 C.3    69  SER69       0.2130
     42  OG         0.2790   18.0350  -14.5780 O.3    69  SER69      -0.2179
     43  N         -3.2020   18.7000  -16.6180 N.am   70  MET70      -0.1962
     44  CA        -3.9800   19.8860  -16.7870 C.3    70  MET70       0.1736
     45  C         -3.9920   20.7010  -15.4890 C.2    70  MET70       0.2617
     46  O         -3.9310   21.9640  -15.5870 O.2    70  MET70      -0.2715
     47  CB        -5.3540   19.5630  -17.1700 C.3    70  MET70       0.0427
     48  CG        -5.5880   18.7390  -18.4420 C.3    70  MET70       0.0599
     49  SD        -4.8320   19.4210  -19.8770 S.3    70  MET70      -0.1393
     50  CE        -5.8110   20.7220  -20.2480 C.3    70  MET70       0.0692
     51  N         -4.0870   20.1010  -14.3110 N.am   71  GLY71      -0.1940
     52  CA        -4.1600   20.8570  -13.0540 C.3    71  GLY71       0.2014
     53  C         -5.5180   21.2970  -12.7210 C.2    71  GLY71       0.2638
     54  O         -5.6600   22.3660  -12.0940 O.2    71  GLY71      -0.2714
     55  N         -6.5570   20.6480  -13.1610 N.am   72  LEU72      -0.1977
     56  CA        -7.9110   20.9320  -12.8310 C.3    72  LEU72       0.1596
     57  C         -8.2760   22.3840  -13.2470 C.2    72  LEU72       0.2287
     58  O         -8.9960   23.1040  -12.4990 O.2    72  LEU72      -0.2864
     59  CB        -8.1960   20.6350  -11.3690 C.3    72  LEU72       0.0297
     60  CG        -9.4790   20.2410  -10.8100 C.3    72  LEU72       0.0022
     61  CD1      -10.2050   19.1570  -11.5710 C.3    72  LEU72       0.0001
     62  CD2       -9.1070   19.6970   -9.3730 C.3    72  LEU72       0.0001
     63  N        -14.3950   17.5660   -8.1170 N.3   100  SER100     -0.1217
     64  CA       -13.0780   17.1530   -7.6660 C.3   100  SER100      0.1889
     65  C        -12.5170   18.1650   -6.6980 C.2   100  SER100      0.2288
     66  O        -11.4870   18.8070   -6.8990 O.2   100  SER100     -0.2866
     67  CB       -12.1770   16.9060   -8.8770 C.3   100  SER100      0.2089
     68  OG       -10.8980   16.4490   -8.4370 O.3   100  SER100     -0.2183
     69  N        -15.0440   12.6160   -8.3930 N.3   128  ASN128     -0.1240
     70  CA       -13.7030   12.2020   -8.8140 C.3   128  ASN128      0.1653
     71  C        -12.7970   11.8410   -7.6750 C.2   128  ASN128      0.2266
     72  O        -12.4410   12.7740   -6.9620 O.2   128  ASN128     -0.2867
     73  CB       -13.0990   13.3180   -9.6960 C.3   128  ASN128      0.1155
     74  CG       -11.7900   12.9550  -10.3020 C.2   128  ASN128      0.2627
     75  OD1      -11.3100   11.8710  -10.1380 O.2   128  ASN128     -0.2716
     76  ND2      -11.2990   13.8990  -11.1230 N.am  128  ASN128     -0.0877
     77  N         -9.8720   10.2810   -8.0240 N.3   130  SER130     -0.1202
     78  CA        -8.5650   10.0320   -8.6060 C.3   130  SER130      0.2020
     79  C         -8.0140   11.4030   -8.7340 C.2   130  SER130      0.2619
     80  O         -7.9140   11.9210   -9.7610 O.2   130  SER130     -0.2717
     81  CB        -8.6770    9.3440   -9.9870 C.3   130  SER130      0.2103
     82  OG       -10.1280    8.9880  -10.3440 O.3   130  SER130     -0.2182
     83  N         -7.7750   12.0290   -7.6180 N.am  131  CYS131     -0.1956
     84  CA        -7.3170   13.3350   -7.5280 C.3   131  CYS131      0.1828
     85  C         -6.5200   13.5580   -6.1210 C.2   131  CYS131      0.2467
     86  O         -6.7220   12.8400   -5.0310 O.2   131  CYS131     -0.2730
     87  CB        -8.5700   14.2080   -7.4750 C.3   131  CYS131      0.0996
     88  SG        -9.4690   14.0660   -5.9200 S.3   131  CYS131     -0.0797
     89  N         -5.6690   14.6140   -6.0970 N.am  132  PRO132     -0.2726
     90  CA        -5.0070   15.0890   -4.8820 C.3   132  PRO132      0.1402
     91  C         -5.7410   15.2630   -3.5510 C.2   132  PRO132      0.2269
     92  O         -6.8290   15.8240   -3.4440 O.2   132  PRO132     -0.2865
     93  CB        -4.4760   16.4890   -5.3390 C.3   132  PRO132      0.0296
     94  CG        -4.0980   16.2570   -6.7510 C.3   132  PRO132      0.0237
     95  CD        -5.2490   15.4250   -7.2850 C.3   132  PRO132      0.0939
     96  N         -2.9180    9.8700   -3.9960 N.3   139  GLN139     -0.1245
     97  CA        -4.1750   10.3730   -4.3800 C.3   139  GLN139      0.1566
     98  C         -5.2920    9.6390   -3.5490 C.2   139  GLN139      0.2260
     99  O         -5.0960    8.5390   -3.0640 O.2   139  GLN139     -0.2867
    100  CB        -4.4550   10.1810   -5.8760 C.3   139  GLN139      0.0367
    101  CG        -4.4270    8.7770   -6.4080 C.3   139  GLN139      0.0905
    102  CD        -4.9940    8.6120   -7.8380 C.2   139  GLN139      0.2608
    103  OE1       -4.2800    8.2000   -8.7680 O.2   139  GLN139     -0.2717
    104  NE2       -6.2430    8.7420   -7.9460 N.am  139  GLN139     -0.0878
    105  N         -9.9070    6.5020  -14.6280 N.3   195  ASN195     -0.1225
    106  CA        -9.1770    7.7280  -14.8730 C.3   195  ASN195      0.1785
    107  C         -7.8390    7.3930  -15.5600 C.2   195  ASN195      0.2597
    108  O         -7.5130    6.2240  -15.8080 O.2   195  ASN195     -0.2718
    109  CB        -8.9970    8.5060  -13.5320 C.3   195  ASN195      0.1169
    110  CG        -8.9900    9.9710  -13.6960 C.2   195  ASN195      0.2627
    111  OD1       -8.2660   10.5050  -14.5630 O.2   195  ASN195     -0.2716
    112  ND2       -9.8050   10.6640  -12.9080 N.am  195  ASN195     -0.0877
    113  N         -7.0640    8.4340  -15.9120 N.am  196  SER196     -0.1952
    114  CA        -5.7770    8.1980  -16.5760 C.3   196  SER196      0.1924
    115  C         -4.8610    7.3660  -15.7440 C.2   196  SER196      0.2314
    116  O         -4.9010    7.3410  -14.5080 O.2   196  SER196     -0.2863
    117  CB        -5.2300    9.5780  -16.9600 C.3   196  SER196      0.2116
    118  OG        -5.0490   10.3670  -15.8350 O.3   196  SER196     -0.2180
    119  N          5.3330   19.2870  -13.7060 N.3   215  LYS215     -0.1245
    120  CA         5.7140   18.1130  -13.0460 C.3   215  LYS215      0.1561
    121  C          6.8500   17.4070  -13.7930 C.2   215  LYS215      0.2260
    122  O          6.9620   16.1700  -13.8400 O.2   215  LYS215     -0.2867
    123  CB         4.5540   17.1630  -12.8180 C.3   215  LYS215      0.0271
    124  CG         3.3700   17.6930  -12.0180 C.3   215  LYS215      0.0035
    125  CD         2.2630   16.5630  -11.8840 C.3   215  LYS215      0.0206
    126  CE         2.6900   15.0820  -11.7030 C.3   215  LYS215      0.1093
    127  NZ         1.4780   14.2020  -11.4830 N.3   215  LYS215     -0.1314
    128  N         -0.8120   12.0560  -16.5720 N.3   220  GLY220     -0.1225
    129  CA        -1.6850   10.8540  -16.7000 C.3   220  GLY220      0.1811
    130  C         -1.7750   10.4900  -18.1540 C.2   220  GLY220      0.2280
    131  O         -1.9090   11.3190  -19.0540 O.2   220  GLY220     -0.2866
@<TRIPOS>BOND
     1    50    49    1
     2    29    30    1
     3    49    48    1
     4    33    30    1
     5    33    34    1
     6    30    31    1
     7   131   130    2
     8    36    34   am
     9    34    35    2
    10     1     2    1
    11    48    47    1
    12     4     3    2
    13   130   129    1
    14     3     2    1
    15    31    37   am
    16    31    32    2
    17     2     5    1
    18    37    38    1
    19    47    44    1
    20    24    23    2
    21   117   114    1
    22   117   118    1
    23     6     7    1
    24    44    43    1
    25    44    45    1
    26   129   128    1
    27    10     7    1
    28    10    11    1
    29    43    39   am
    30   114   113    1
    31   114   115    1
    32    12    11    1
    33    12    13    1
    34    38    39    1
    35    38    41    1
    36    39    40    2
    37     7     8    1
    38    23    22    1
    39    14    13    1
    40   113   107   am
    41    41    42    1
    42   108   107    2
    43   115   116    2
    44    46    45    2
    45   107   106    1
    46    45    51   am
    47    25    22    1
    48    25    26    1
    49   106   105    1
    50   106   109    1
    51    22    21    1
    52     8    15   am
    53     8     9    2
    54   111   110    2
    55    51    52    1
    56    15    16    1
    57   122   121    2
    58   121   120    1
    59   119   120    1
    60   110   109    1
    61   110   112   am
    62    26    28   am
    63    26    27    2
    64    57    56    1
    65    57    58    2
    66    55    56    1
    67    55    53   am
    68    52    53    1
    69   120   123    1
    70    56    59    1
    71   123   124    1
    72    16    19    1
    73    16    17    1
    74    53    54    2
    75    18    17    2
    76    20    19    1
    77   124   125    1
    78   125   126    1
    79   126   127    1
    80    61    60    1
    81    59    60    1
    82    76    74   am
    83    60    62    1
    84    82    81    1
    85    74    75    2
    86    74    73    1
    87    81    78    1
    88    80    79    2
    89    73    70    1
    90    67    68    1
    91    67    64    1
    92    70    69    1
    93    70    71    1
    94   103   102    2
    95    79    78    1
    96    79    83   am
    97    78    77    1
    98    63    64    1
    99   104   102   am
   100   102   101    1
   101    71    72    2
   102    64    65    1
   103    83    84    1
   104    84    87    1
   105    84    85    1
   106    87    88    1
   107    95    94    1
   108    95    89    1
   109    66    65    2
   110    94    93    1
   111   101   100    1
   112    85    89   am
   113    85    86    2
   114    89    90    1
   115   100    97    1
   116    93    90    1
   117    90    91    1
   118    97    96    1
   119    97    98    1
   120    91    92    2
   121    98    99    2
