@<TRIPOS>MOLECULE
tmp/3w77A00.pdb
 145 143 0 0 0
SMALL
GASTEIGER

@<TRIPOS>ATOM
      1  N         30.3190   30.0400   41.3100 N.3     9  ASN9       -0.1240
      2  CA        29.0770   29.9500   40.5310 C.3     9  ASN9        0.1653
      3  C         29.1090   28.7060   39.6640 C.2     9  ASN9        0.2266
      4  O         29.9360   28.6420   38.7560 O.2     9  ASN9       -0.2867
      5  CB        28.9690   31.1550   39.6120 C.3     9  ASN9        0.1155
      6  CG        27.5900   31.3030   38.9740 C.2     9  ASN9        0.2627
      7  OD1       26.8220   30.3500   38.8500 O.2     9  ASN9       -0.2716
      8  ND2       27.2890   32.5320   38.5390 N.am    9  ASN9       -0.0877
      9  N         26.5970   27.6340   37.6590 N.3    11  ARG11      -0.1245
     10  CA        25.8190   27.7690   36.4150 C.3    11  ARG11       0.1563
     11  C         26.7520   27.6440   35.2140 C.2    11  ARG11       0.2260
     12  O         27.8790   28.0810   35.2670 O.2    11  ARG11      -0.2867
     13  CB        25.1000   29.1230   36.3580 C.3    11  ARG11       0.0307
     14  CG        24.1600   29.3390   37.5520 C.3    11  ARG11       0.0489
     15  CD        23.4420   30.6840   37.4970 C.3    11  ARG11       0.2205
     16  NE        22.4240   30.7050   36.4250 N.pl3  11  ARG11      -0.0865
     17  CZ        21.8650   31.8110   35.9650 C.cat  11  ARG11       0.5346
     18  NH1       22.2770   32.9970   36.4170 N.pl3  11  ARG11       0.1354
     19  NH2       20.9240   31.7370   35.0070 N.pl3  11  ARG11       0.1354
     20  N         25.0810   30.4640   30.4000 N.3    15  GLN15      -0.1231
     21  CA        23.9000   31.0580   31.0590 C.3    15  GLN15       0.1698
     22  C         24.2520   32.1090   32.1390 C.2    15  GLN15       0.2592
     23  O         23.3510   32.7430   32.7370 O.2    15  GLN15      -0.2718
     24  CB        23.0060   29.9660   31.6650 C.3    15  GLN15       0.0381
     25  CG        22.5510   28.9170   30.6540 C.3    15  GLN15       0.0905
     26  CD        21.8700   27.7050   31.2660 C.2    15  GLN15       0.2608
     27  OE1       21.3330   26.8640   30.5320 O.2    15  GLN15      -0.2717
     28  NE2       21.8910   27.5860   32.5880 N.am   15  GLN15      -0.0878
     29  N         25.5430   32.2720   32.4180 N.am   16  ALA16      -0.1966
     30  CA        25.9900   33.1170   33.5510 C.3    16  ALA16       0.1728
     31  C         27.1080   34.1080   33.2220 C.2    16  ALA16       0.2616
     32  O         28.2680   33.7210   32.9500 O.2    16  ALA16      -0.2715
     33  CB        26.4210   32.2430   34.7260 C.3    16  ALA16       0.0334
     34  N         26.7970   35.4040   33.2860 N.am   17  VAL17      -0.1963
     35  CA        27.8020   36.4200   32.9850 C.3    17  VAL17       0.1727
     36  C         29.0360   36.3480   33.8650 C.2    17  VAL17       0.2616
     37  O         30.1650   36.5070   33.3680 O.2    17  VAL17      -0.2715
     38  CB        27.1940   37.8560   32.9900 C.3    17  VAL17       0.0290
     39  CG1       28.2480   38.9170   32.7260 C.3    17  VAL17       0.0023
     40  CG2       26.0620   37.9460   31.9580 C.3    17  VAL17       0.0023
     41  N         28.8590   36.1140   35.1750 N.am   18  SER18      -0.1950
     42  CA        30.0440   36.0040   36.0180 C.3    18  SER18       0.1924
     43  C         30.9450   34.8330   35.6580 C.2    18  SER18       0.2314
     44  O         32.1650   34.9160   35.8460 O.2    18  SER18      -0.2863
     45  CB        29.6780   35.9900   37.5170 C.3    18  SER18       0.2116
     46  OG        28.9570   34.8250   37.8550 O.3    18  SER18      -0.2180
     47  N         29.0260   36.1890   41.1850 N.3    97  PRO97      -0.2102
     48  CA        27.8900   37.0580   40.8590 C.3    97  PRO97       0.1504
     49  C         27.4380   37.8740   42.0680 C.2    97  PRO97       0.2576
     50  O         27.8340   37.5770   43.2060 O.2    97  PRO97      -0.2718
     51  CB        26.8090   36.0540   40.4960 C.3    97  PRO97       0.0282
     52  CG        27.0830   34.8810   41.4030 C.3    97  PRO97       0.0208
     53  CD        28.6090   34.7890   41.4310 C.3    97  PRO97       0.0893
     54  N         26.6090   38.8990   41.8060 N.am   98  LEU98      -0.1966
     55  CA        25.7490   39.4770   42.8470 C.3    98  LEU98       0.1728
     56  C         24.3950   38.7490   42.7880 C.2    98  LEU98       0.2616
     57  O         23.7250   38.7620   41.7540 O.2    98  LEU98      -0.2715
     58  CB        25.6280   41.0040   42.6380 C.3    98  LEU98       0.0311
     59  CG        24.7520   41.7420   43.6810 C.3    98  LEU98       0.0022
     60  CD1       25.2710   43.1860   43.8280 C.3    98  LEU98       0.0001
     61  CD2       23.2800   41.7370   43.2830 C.3    98  LEU98       0.0001
     62  N         24.0630   38.0350   43.8740 N.am   99  TRP99      -0.1960
     63  CA        22.7850   37.3660   44.0360 C.3    99  TRP99       0.1771
     64  C         22.1840   37.8880   45.3050 C.2    99  TRP99       0.2620
     65  O         22.8260   37.8170   46.3780 O.2    99  TRP99      -0.2715
     66  CB        22.9600   35.8610   44.1610 C.3    99  TRP99       0.0590
     67  CG        23.4030   35.1010   42.9100 C.ar   99  TRP99       0.0006
     68  CD1       23.3720   35.5070   41.5690 C.ar   99  TRP99       0.0946
     69  CD2       23.8490   33.6870   42.8740 C.ar   99  TRP99       0.0152
     70  NE1       23.7880   34.4690   40.7390 N.ar   99  TRP99      -0.2442
     71  CE2       24.1070   33.3690   41.4690 C.ar   99  TRP99       0.0810
     72  CE3       24.0860   32.7280   43.8480 C.ar   99  TRP99       0.0012
     73  CZ2       24.5940   32.1120   41.0780 C.ar   99  TRP99       0.0191
     74  CZ3       24.5690   31.4680   43.4470 C.ar   99  TRP99       0.0001
     75  CH2       24.8180   31.1850   42.0960 C.ar   99  TRP99       0.0015
     76  N         20.9520   38.4020   45.2270 N.am  100  ASN100     -0.1958
     77  CA        20.2650   38.9180   46.4320 C.3   100  ASN100      0.1819
     78  C         21.1430   39.9170   47.1790 C.2   100  ASN100      0.2621
     79  O         21.3440   39.8000   48.3740 O.2   100  ASN100     -0.2715
     80  CB        19.8240   37.7510   47.3360 C.3   100  ASN100      0.1195
     81  CG        19.0150   36.7350   46.5830 C.2   100  ASN100      0.2630
     82  OD1       18.1910   37.0990   45.7360 O.2   100  ASN100     -0.2716
     83  ND2       19.2560   35.4520   46.8500 N.am  100  ASN100     -0.0877
     84  N         21.6490   40.8950   46.4190 N.am  101  LEU101     -0.1977
     85  CA        22.4550   42.0260   46.9360 C.3   101  LEU101      0.1596
     86  C         23.8670   41.6600   47.3200 C.2   101  LEU101      0.2287
     87  O         24.6790   42.5580   47.5710 O.2   101  LEU101     -0.2864
     88  CB        21.7390   42.7300   48.1380 C.3   101  LEU101      0.0297
     89  CG        20.3440   43.2830   47.8590 C.3   101  LEU101      0.0022
     90  CD1       19.8900   43.9700   49.1650 C.3   101  LEU101      0.0001
     91  CD2       20.3570   44.2430   46.6890 C.3   101  LEU101      0.0001
     92  N         29.7380   40.1410   38.2520 N.3   142  ALA142     -0.1231
     93  CA        28.6630   40.5490   37.3410 C.3   142  ALA142      0.1694
     94  C         27.3950   40.7850   38.1550 C.2   142  ALA142      0.2592
     95  O         27.1260   40.0370   39.1170 O.2   142  ALA142     -0.2718
     96  CB        28.3950   39.4550   36.3090 C.3   142  ALA142      0.0304
     97  N         26.5950   41.7720   37.7430 N.am  143  ARG143     -0.1966
     98  CA        25.3730   42.1060   38.4690 C.3   143  ARG143      0.1729
     99  C         24.3520   42.6560   37.4900 C.2   143  ARG143      0.2617
    100  O         24.7040   43.4690   36.6070 O.2   143  ARG143     -0.2715
    101  CB        25.6480   43.0710   39.6380 C.3   143  ARG143      0.0348
    102  CG        26.4580   44.3050   39.3050 C.3   143  ARG143      0.0492
    103  CD        27.0930   44.8960   40.5470 C.3   143  ARG143      0.2205
    104  NE        27.6700   46.2160   40.2860 N.pl3 143  ARG143     -0.0865
    105  CZ        28.6100   46.8000   41.0350 C.cat 143  ARG143      0.5346
    106  NH1       29.1630   46.1890   42.0800 N.pl3 143  ARG143      0.1354
    107  NH2       29.0340   47.9920   40.7150 N.pl3 143  ARG143      0.1354
    108  N         23.1180   42.2060   37.6480 N.am  144  GLY144     -0.1940
    109  CA        22.0610   42.4650   36.6590 C.3   144  GLY144      0.2014
    110  C         21.7640   43.9410   36.5100 C.2   144  GLY144      0.2639
    111  O         21.6340   44.4840   35.3880 O.2   144  GLY144     -0.2714
    112  N         21.6480   44.5950   37.6580 N.am  145  GLY145     -0.1954
    113  CA        21.3920   46.0420   37.6690 C.3   145  GLY145      0.1869
    114  C         22.6700   46.8530   37.8400 C.2   145  GLY145      0.2309
    115  O         23.7380   46.3160   38.0990 O.2   145  GLY145     -0.2863
    116  N         24.8710   49.1390   40.1150 N.3   147  TYR147     -0.1241
    117  CA        25.0990   49.4450   41.5250 C.3   147  TYR147      0.1605
    118  C         26.1890   50.4820   41.7990 C.2   147  TYR147      0.2264
    119  O         26.4550   50.8230   42.9750 O.2   147  TYR147     -0.2867
    120  CB        25.4150   48.1500   42.3060 C.3   147  TYR147      0.0534
    121  CG        24.1840   47.2700   42.5110 C.ar  147  TYR147     -0.0201
    122  CD1       23.7460   46.3880   41.5130 C.ar  147  TYR147     -0.0009
    123  CD2       23.4620   47.3330   43.7160 C.ar  147  TYR147     -0.0009
    124  CE1       22.6160   45.5880   41.7140 C.ar  147  TYR147      0.0417
    125  CE2       22.3300   46.5480   43.9210 C.ar  147  TYR147      0.0417
    126  CZ        21.9130   45.6790   42.9090 C.ar  147  TYR147      0.1957
    127  OH        20.7840   44.9180   43.1270 O.3   147  TYR147     -0.2866
    128  N         23.3980   44.7510   32.6010 N.3   182  HIS182     -0.1226
    129  CA        22.8960   43.9660   31.4240 C.3   182  HIS182      0.1752
    130  C         21.4470   43.4840   31.5250 C.2   182  HIS182      0.2596
    131  O         20.7770   43.3170   30.4770 O.2   182  HIS182     -0.2718
    132  CB        23.8500   42.8300   31.0780 C.3   182  HIS182      0.0759
    133  CG        24.2140   41.9980   32.2730 C.ar  182  HIS182      0.0818
    134  ND1       23.5880   40.8470   32.5710 N.ar  182  HIS182     -0.2268
    135  CD2       25.1030   42.2420   33.3020 C.ar  182  HIS182      0.1154
    136  CE1       24.0790   40.3610   33.7350 C.ar  182  HIS182      0.1986
    137  NE2       25.0140   41.1950   34.1670 N.ar  182  HIS182     -0.2212
    138  N         20.9110   43.2740   32.7310 N.am  183  ASN183     -0.1974
    139  CA        19.4700   42.9390   32.8580 C.3   183  ASN183      0.1688
    140  C         18.5900   44.1880   32.9390 C.2   183  ASN183      0.2292
    141  O         17.4450   44.2020   32.4610 O.2   183  ASN183     -0.2864
    142  CB        19.1760   42.0190   34.0590 C.3   183  ASN183      0.1181
    143  CG        19.7800   40.6350   33.9090 C.2   183  ASN183      0.2629
    144  OD1       20.0210   40.1460   32.7890 O.2   183  ASN183     -0.2716
    145  ND2       19.9890   39.9690   35.0440 N.am  183  ASN183     -0.0877
@<TRIPOS>BOND
     1    20    21    1
     2   131   130    2
     3    27    26    2
     4    25    26    1
     5    25    24    1
     6    21    24    1
     7    21    22    1
     8   132   129    1
     9   132   133    1
    10    26    28   am
    11   129   130    1
    12   129   128    1
    13   130   138   am
    14    40    38    1
    15    22    29   am
    16    22    23    2
    17   133   134   ar
    18   133   135   ar
    19    29    30    1
    20   141   140    2
    21   134   136   ar
    22    39    38    1
    23   138   139    1
    24   144   143    2
    25   139   140    1
    26   139   142    1
    27    32    31    2
    28    35    38    1
    29    35    34    1
    30    35    36    1
    31    31    34   am
    32    31    30    1
    33   135   137   ar
    34    37    36    2
    35    30    33    1
    36   136   137   ar
    37    36    41   am
    38   143   142    1
    39   143   145   am
    40    19    17    1
    41    41    42    1
    42    11    12    2
    43    11    10    1
    44   111   110    2
    45    43    44    2
    46    43    42    1
    47    17    18    1
    48    17    16    2
    49    42    45    1
    50    96    93    1
    51    13    10    1
    52    13    14    1
    53    10     9    1
    54    16    15    1
    55   110   109    1
    56   110   112   am
    57   100    99    2
    58   109   108    1
    59    93    94    1
    60    93    92    1
    61    99   108   am
    62    99    98    1
    63    15    14    1
    64    45    46    1
    65   112   113    1
    66   113   114    1
    67    97    94   am
    68    97    98    1
    69   114   115    2
    70    94    95    2
    71    98   101    1
    72     8     6   am
    73     4     3    2
    74     7     6    2
    75     6     5    1
    76   102   101    1
    77   102   103    1
    78     5     2    1
    79     3     2    1
    80   116   117    1
    81   104   103    1
    82   104   105    2
    83    51    48    1
    84    51    52    1
    85     2     1    1
    86   107   105    1
    87    70    71   ar
    88    70    68   ar
    89    48    47    1
    90    48    49    1
    91   105   106    1
    92    73    71   ar
    93    73    75   ar
    94    47    53    1
    95    52    53    1
    96    71    69   ar
    97   122   124   ar
    98   122   121   ar
    99   117   118    1
   100   117   120    1
   101    68    67   ar
   102   124   126   ar
   103    57    56    2
   104   118   119    2
   105    54    49   am
   106    54    55    1
   107    49    50    2
   108    75    74   ar
   109   120   121    1
   110   121   123   ar
   111    58    55    1
   112    58    59    1
   113    56    55    1
   114    56    62   am
   115    69    67   ar
   116    69    72   ar
   117   126   127    1
   118   126   125   ar
   119    67    66    1
   120    61    59    1
   121    74    72   ar
   122    59    60    1
   123   123   125   ar
   124    62    63    1
   125    63    66    1
   126    63    64    1
   127    76    64   am
   128    76    77    1
   129    64    65    2
   130    82    81    2
   131    84    85    1
   132    84    78   am
   133    77    78    1
   134    77    80    1
   135    81    83   am
   136    81    80    1
   137    91    89    1
   138    85    86    1
   139    85    88    1
   140    78    79    2
   141    86    87    2
   142    89    88    1
   143    89    90    1
