@<TRIPOS>MOLECULE
tmp/3w78A01.pdb
 108 106 0 0 0
SMALL
GASTEIGER

@<TRIPOS>ATOM
      1  N        -85.3800   32.3490  -21.1970 N.3    59  TRP59      -0.1241
      2  CA       -85.1270   30.9080  -21.3100 C.3    59  TRP59       0.1605
      3  C        -85.8300   30.2760  -22.4780 C.2    59  TRP59       0.2264
      4  O        -85.2540   29.4310  -23.1690 O.2    59  TRP59      -0.2867
      5  CB       -85.4930   30.1780  -20.0220 C.3    59  TRP59       0.0550
      6  CG       -84.5500   30.4420  -18.8660 C.ar   59  TRP59       0.0003
      7  CD1      -83.3090   31.0760  -18.9040 C.ar   59  TRP59       0.0946
      8  CD2      -84.7320   30.0540  -17.4600 C.ar   59  TRP59       0.0152
      9  NE1      -82.7430   31.1200  -17.6570 N.ar   59  TRP59      -0.2442
     10  CE2      -83.5370   30.5230  -16.7470 C.ar   59  TRP59       0.0810
     11  CE3      -85.7280   29.3960  -16.7460 C.ar   59  TRP59       0.0012
     12  CZ2      -83.3690   30.3290  -15.3840 C.ar   59  TRP59       0.0191
     13  CZ3      -85.5480   29.2080  -15.3700 C.ar   59  TRP59       0.0001
     14  CH2      -84.3960   29.6660  -14.7080 C.ar   59  TRP59       0.0015
     15  N        -81.2610   30.4190   -6.2650 N.3   115  ASP115     -0.1239
     16  CA       -81.8500   30.2660   -7.5870 C.3   115  ASP115      0.1674
     17  C        -80.9680   30.8530   -8.6960 C.2   115  ASP115      0.2266
     18  O        -81.1420   30.5230   -9.8650 O.2   115  ASP115     -0.2867
     19  CB       -83.2440   30.8980   -7.6250 C.3   115  ASP115      0.1410
     20  CG       -84.2660   30.1180   -6.8110 C.2   115  ASP115      0.3668
     21  OD1      -83.9450   28.9920   -6.3780 O.co2 115  ASP115     -0.2456
     22  OD2      -85.3980   30.6230   -6.6110 O.co2 115  ASP115     -0.2456
     23  N        -77.7520   27.8960   -8.8670 N.3   118  ALA118     -0.1245
     24  CA       -78.1010   26.5280   -9.2400 C.3   118  ALA118      0.1562
     25  C        -78.6310   26.4940  -10.6780 C.2   118  ALA118      0.2260
     26  O        -79.8400   26.5880  -10.9190 O.2   118  ALA118     -0.2867
     27  CB       -79.1150   25.9570   -8.2650 C.3   118  ALA118      0.0290
     28  N        -78.4400   24.7510  -14.6870 N.3   120  ALA120     -0.1245
     29  CA       -78.1300   23.6250  -15.5750 C.3   120  ALA120      0.1562
     30  C        -76.9750   23.9370  -16.5190 C.2   120  ALA120      0.2260
     31  O        -76.9410   24.9980  -17.1450 O.2   120  ALA120     -0.2867
     32  CB       -79.3580   23.2310  -16.3750 C.3   120  ALA120      0.0290
     33  N        -75.1500   22.1470  -11.9450 N.3   124  PHE124     -0.1241
     34  CA       -75.7000   20.7950  -12.0130 C.3   124  PHE124      0.1605
     35  C        -75.9260   20.3710  -13.4630 C.2   124  PHE124      0.2264
     36  O        -75.9500   21.2080  -14.3650 O.2   124  PHE124     -0.2867
     37  CB       -76.9910   20.6610  -11.1870 C.3   124  PHE124      0.0534
     38  CG       -78.1910   21.3320  -11.7980 C.ar  124  PHE124     -0.0203
     39  CD1      -79.0060   20.6510  -12.6990 C.ar  124  PHE124     -0.0042
     40  CD2      -78.5230   22.6370  -11.4530 C.ar  124  PHE124     -0.0042
     41  CE1      -80.1170   21.2650  -13.2590 C.ar  124  PHE124     -0.0003
     42  CE2      -79.6350   23.2540  -12.0020 C.ar  124  PHE124     -0.0003
     43  CZ       -80.4330   22.5670  -12.9080 C.ar  124  PHE124     -0.0000
     44  N        -78.3300   17.3700  -15.9380 N.3   126  TYR126     -0.1227
     45  CA       -79.4040   16.3890  -15.9540 C.3   126  TYR126      0.1736
     46  C        -78.8460   15.0170  -16.2990 C.2   126  TYR126      0.2596
     47  O        -77.9630   14.8980  -17.1520 O.2   126  TYR126     -0.2718
     48  CB       -80.4890   16.7840  -16.9590 C.3   126  TYR126      0.0548
     49  CG       -81.0860   18.1520  -16.7210 C.ar  126  TYR126     -0.0200
     50  CD1      -82.0040   18.3650  -15.6910 C.ar  126  TYR126     -0.0009
     51  CD2      -80.7380   19.2330  -17.5280 C.ar  126  TYR126     -0.0009
     52  CE1      -82.5530   19.6190  -15.4710 C.ar  126  TYR126      0.0417
     53  CE2      -81.2810   20.4890  -17.3190 C.ar  126  TYR126      0.0417
     54  CZ       -82.1850   20.6790  -16.2900 C.ar  126  TYR126      0.1957
     55  OH       -82.7250   21.9250  -16.0790 O.3   126  TYR126     -0.2866
     56  N        -79.3430   13.9890  -15.6130 N.am  127  THR127     -0.1939
     57  CA       -79.0640   12.5970  -15.9800 C.3   127  THR127      0.2028
     58  C        -80.3860   11.8500  -16.1530 C.2   127  THR127      0.2642
     59  O        -81.4600   12.4290  -15.9650 O.2   127  THR127     -0.2714
     60  CB       -78.1710   11.8610  -14.9450 C.3   127  THR127      0.1808
     61  OG1      -78.8950   11.6450  -13.7250 O.3   127  THR127     -0.2208
     62  CG2      -76.8860   12.6380  -14.6550 C.3   127  THR127      0.0379
     63  N        -80.3050   10.5720  -16.5200 N.am  128  GLU128     -0.1963
     64  CA       -81.4860    9.7080  -16.6000 C.3   128  GLU128      0.1733
     65  C        -82.2310    9.6160  -15.2640 C.2   128  GLU128      0.2616
     66  O        -83.4600    9.5220  -15.2410 O.2   128  GLU128     -0.2715
     67  CB       -81.1020    8.3110  -17.1080 C.3   128  GLU128      0.0429
     68  CG       -81.6320    7.9550  -18.4980 C.3   128  GLU128      0.1163
     69  CD       -81.0020    8.7520  -19.6370 C.2   128  GLU128      0.3649
     70  OE1      -80.5430    8.1230  -20.6160 O.co2 128  GLU128     -0.2457
     71  OE2      -80.9720   10.0030  -19.5720 O.co2 128  GLU128     -0.2457
     72  N        -81.4780    9.6680  -14.1650 N.am  129  ASN129     -0.1958
     73  CA       -82.0280    9.5360  -12.8150 C.3   129  ASN129      0.1819
     74  C        -82.3410   10.8740  -12.1440 C.2   129  ASN129      0.2622
     75  O        -82.7320   10.9120  -10.9740 O.2   129  ASN129     -0.2715
     76  CB       -81.0740    8.7260  -11.9260 C.3   129  ASN129      0.1195
     77  CG       -80.7540    7.3560  -12.4970 C.2   129  ASN129      0.2630
     78  OD1      -79.5900    6.9600  -12.5590 O.2   129  ASN129     -0.2716
     79  ND2      -81.7840    6.6250  -12.9200 N.am  129  ASN129     -0.0877
     80  N        -82.1670   11.9660  -12.8820 N.am  130  GLY130     -0.1940
     81  CA       -82.4090   13.3010  -12.3430 C.3   130  GLY130      0.1998
     82  C        -81.1420   14.1310  -12.2330 C.2   130  GLY130      0.2480
     83  O        -80.0510   13.6450  -12.5490 O.2   130  GLY130     -0.2729
     84  N        -81.2750   15.3910  -11.7780 N.am  131  PRO131     -0.2726
     85  CA       -80.1500   16.3300  -11.7250 C.3   131  PRO131      0.1402
     86  C        -79.0980   15.9670  -10.6740 C.2   131  PRO131      0.2269
     87  O        -79.4440   15.5760   -9.5540 O.2   131  PRO131     -0.2865
     88  CB       -80.8160   17.6690  -11.3690 C.3   131  PRO131      0.0296
     89  CG       -82.2830   17.4650  -11.5710 C.3   131  PRO131      0.0237
     90  CD       -82.5270   16.0120  -11.3180 C.3   131  PRO131      0.0939
     91  N        -79.2540   22.7440   -0.7900 N.3   168  VAL168     -0.1245
     92  CA       -78.8820   23.3400   -2.0740 C.3   168  VAL168      0.1561
     93  C        -77.3750   23.2170   -2.2970 C.2   168  VAL168      0.2260
     94  O        -76.9380   22.8570   -3.3900 O.2   168  VAL168     -0.2867
     95  CB       -79.3380   24.8100   -2.1930 C.3   168  VAL168      0.0252
     96  CG1      -78.7980   25.4420   -3.4680 C.3   168  VAL168      0.0019
     97  CG2      -80.8540   24.8910   -2.1650 C.3   168  VAL168      0.0019
     98  N        -76.7040   19.7280   -3.0720 N.3   171  PHE171     -0.1241
     99  CA       -77.1760   19.4590   -4.4240 C.3   171  PHE171      0.1605
    100  C        -76.1690   19.8350   -5.5170 C.2   171  PHE171      0.2264
    101  O        -75.9690   19.0690   -6.4640 O.2   171  PHE171     -0.2867
    102  CB       -78.5210   20.1490   -4.6860 C.3   171  PHE171      0.0534
    103  CG       -78.9450   20.1040   -6.1260 C.ar  171  PHE171     -0.0203
    104  CD1      -79.4070   18.9200   -6.6920 C.ar  171  PHE171     -0.0042
    105  CD2      -78.8620   21.2430   -6.9240 C.ar  171  PHE171     -0.0042
    106  CE1      -79.7860   18.8740   -8.0250 C.ar  171  PHE171     -0.0003
    107  CE2      -79.2360   21.2030   -8.2580 C.ar  171  PHE171     -0.0003
    108  CZ       -79.7020   20.0190   -8.8080 C.ar  171  PHE171     -0.0000
@<TRIPOS>BOND
     1     4     3    2
     2     3     2    1
     3     2     1    1
     4     2     5    1
     5    70    69   ar
     6     5     6    1
     7    69    71   ar
     8    69    68    1
     9     7     6   ar
    10     7     9   ar
    11     6     8   ar
    12    68    67    1
    13     9    10   ar
    14    51    53   ar
    15    51    49   ar
    16     8    10   ar
    17     8    11   ar
    18    53    54   ar
    19    47    46    2
    20    31    30    2
    21    67    64    1
    22    48    49    1
    23    48    45    1
    24    10    12   ar
    25    11    13   ar
    26    49    50   ar
    27    64    63    1
    28    64    65    1
    29    63    58   am
    30    30    29    1
    31    32    29    1
    32    46    45    1
    33    46    56   am
    34    54    55    1
    35    54    52   ar
    36    58    57    1
    37    58    59    2
    38    57    56    1
    39    57    60    1
    40    45    44    1
    41    50    52   ar
    42    29    28    1
    43    12    14   ar
    44    13    14   ar
    45    65    66    2
    46    65    72   am
    47    60    62    1
    48    60    61    1
    49    36    35    2
    50    72    73    1
    51    35    34    1
    52    41    43   ar
    53    41    39   ar
    54    79    77   am
    55    43    42   ar
    56    80    81    1
    57    80    74   am
    58    73    74    1
    59    73    76    1
    60    39    38   ar
    61    78    77    2
    62    83    82    2
    63    77    76    1
    64    81    82    1
    65    82    84   am
    66    74    75    2
    67    34    33    1
    68    34    37    1
    69    42    40   ar
    70    38    40   ar
    71    38    37    1
    72    84    85    1
    73    84    90    1
    74    85    88    1
    75    85    86    1
    76    89    88    1
    77    89    90    1
    78    26    25    2
    79    25    24    1
    80    86    87    2
    81    18    17    2
    82    24    23    1
    83    24    27    1
    84   108   107   ar
    85   108   106   ar
    86    17    16    1
    87   107   105   ar
    88   106   104   ar
    89    19    16    1
    90    19    20    1
    91    16    15    1
    92   105   103   ar
    93    20    22   ar
    94    20    21   ar
    95   104   103   ar
    96   101   100    2
    97   103   102    1
    98   100    99    1
    99   102    99    1
   100    99    98    1
   101    96    95    1
   102    94    93    2
   103    93    92    1
   104    95    97    1
   105    95    92    1
   106    92    91    1
