@<TRIPOS>MOLECULE
tmp/3w78D01.pdb
 97 97 0 0 0
SMALL
GASTEIGER

@<TRIPOS>ATOM
      1  N       -122.1190    6.4670   26.8140 N.3   102  TRP102     -0.1227
      2  CA      -122.8210    5.5410   27.6880 C.3   102  TRP102      0.1737
      3  C       -122.1770    4.1980   27.6060 C.2   102  TRP102      0.2595
      4  O       -122.1560    3.5820   26.5410 O.2   102  TRP102     -0.2718
      5  CB      -124.2970    5.4300   27.3200 C.3   102  TRP102      0.0564
      6  CG      -125.1190    6.6480   27.6550 C.ar  102  TRP102      0.0003
      7  CD1     -124.7670    7.7200   28.4720 C.ar  102  TRP102      0.0946
      8  CD2     -126.4860    6.9420   27.2120 C.ar  102  TRP102      0.0152
      9  NE1     -125.7850    8.6340   28.5480 N.ar  102  TRP102     -0.2442
     10  CE2     -126.8460    8.2290   27.8190 C.ar  102  TRP102      0.0810
     11  CE3     -127.4120    6.2950   26.4020 C.ar  102  TRP102      0.0012
     12  CZ2     -128.0800    8.8210   27.6060 C.ar  102  TRP102      0.0191
     13  CZ3     -128.6550    6.9040   26.1950 C.ar  102  TRP102      0.0001
     14  CH2     -128.9780    8.1330   26.7860 C.ar  102  TRP102      0.0015
     15  N       -121.6350    3.7440   28.7350 N.am  103  ASN103     -0.1960
     16  CA      -121.0090    2.4280   28.8460 C.3   103  ASN103      0.1819
     17  C       -119.9010    2.2160   27.8080 C.2   103  ASN103      0.2621
     18  O       -119.8910    1.2190   27.0830 O.2   103  ASN103     -0.2715
     19  CB      -122.0720    1.3240   28.7620 C.3   103  ASN103      0.1195
     20  CG      -121.7630    0.1350   29.6500 C.2   103  ASN103      0.2630
     21  OD1     -120.6860    0.0370   30.2440 O.2   103  ASN103     -0.2716
     22  ND2     -122.7180   -0.7820   29.7460 N.am  103  ASN103     -0.0877
     23  N       -118.9840    3.1810   27.7450 N.am  104  PHE104     -0.1974
     24  CA      -117.8020    3.1390   26.8630 C.3   104  PHE104      0.1639
     25  C       -118.1100    3.1970   25.3600 C.2   104  PHE104      0.2290
     26  O       -117.2350    2.9440   24.5310 O.2   104  PHE104     -0.2864
     27  CB      -116.8830    1.9540   27.2110 C.3   104  PHE104      0.0560
     28  CG      -116.4510    1.9300   28.6490 C.ar  104  PHE104     -0.0200
     29  CD1     -115.4060    2.7350   29.0890 C.ar  104  PHE104     -0.0042
     30  CD2     -117.0980    1.1120   29.5680 C.ar  104  PHE104     -0.0042
     31  CE1     -115.0100    2.7200   30.4180 C.ar  104  PHE104     -0.0003
     32  CE2     -116.7090    1.0950   30.8980 C.ar  104  PHE104     -0.0003
     33  CZ      -115.6630    1.8990   31.3220 C.ar  104  PHE104     -0.0000
     34  N       -117.4010   11.1870   30.9900 N.3   147  GLY147     -0.1210
     35  CA      -117.1480   11.3500   32.4210 C.3   147  GLY147      0.1956
     36  C       -115.6720   11.4800   32.7470 C.2   147  GLY147      0.2612
     37  O       -115.2870   12.3190   33.5570 O.2   147  GLY147     -0.2717
     38  N       -114.8480   10.6460   32.1130 N.am  148  GLY148     -0.1942
     39  CA      -113.3940   10.7140   32.2690 C.3   148  GLY148      0.2014
     40  C       -112.6920   11.3540   31.0820 C.2   148  GLY148      0.2639
     41  O       -113.3100   12.0980   30.3170 O.2   148  GLY148     -0.2714
     42  N       -111.3980   11.0700   30.9370 N.am  149  VAL149     -0.1963
     43  CA      -110.6000   11.5760   29.8090 C.3   149  VAL149      0.1727
     44  C       -110.1610   10.4470   28.8670 C.2   149  VAL149      0.2616
     45  O       -109.4560    9.5180   29.2720 O.2   149  VAL149     -0.2715
     46  CB      -109.3870   12.4320   30.2660 C.3   149  VAL149      0.0290
     47  CG1     -109.8410   13.8230   30.6830 C.3   149  VAL149      0.0023
     48  CG2     -108.6120   11.7600   31.3940 C.3   149  VAL149      0.0023
     49  N       -110.5960   10.5370   27.6120 N.am  150  TYR150     -0.1974
     50  CA      -110.4240    9.4520   26.6430 C.3   150  TYR150      0.1639
     51  C       -109.7930    9.9000   25.3210 C.2   150  TYR150      0.2290
     52  O       -109.3230    9.0680   24.5480 O.2   150  TYR150     -0.2864
     53  CB      -111.7710    8.7740   26.3650 C.3   150  TYR150      0.0560
     54  CG      -112.3730    8.0490   27.5530 C.ar  150  TYR150     -0.0198
     55  CD1     -113.0170    8.7510   28.5770 C.ar  150  TYR150     -0.0009
     56  CD2     -112.3180    6.6590   27.6430 C.ar  150  TYR150     -0.0009
     57  CE1     -113.5680    8.0900   29.6640 C.ar  150  TYR150      0.0417
     58  CE2     -112.8720    5.9880   28.7240 C.ar  150  TYR150      0.0417
     59  CZ      -113.4950    6.7060   29.7310 C.ar  150  TYR150      0.1957
     60  OH      -114.0500    6.0440   30.8020 O.3   150  TYR150     -0.2866
     61  N       -106.4430    5.4930   27.6140 N.3   155  TYR155     -0.1241
     62  CA      -107.8920    5.2890   27.6200 C.3   155  TYR155      0.1605
     63  C       -108.5720    5.5130   26.2660 C.2   155  TYR155      0.2264
     64  O       -109.7760    5.2850   26.1340 O.2   155  TYR155     -0.2867
     65  CB      -108.5510    6.1410   28.7120 C.3   155  TYR155      0.0534
     66  CG      -108.1830    5.7060   30.1110 C.ar  155  TYR155     -0.0201
     67  CD1     -108.8860    4.6860   30.7520 C.ar  155  TYR155     -0.0009
     68  CD2     -107.1220    6.3040   30.7900 C.ar  155  TYR155     -0.0009
     69  CE1     -108.5470    4.2790   32.0330 C.ar  155  TYR155      0.0417
     70  CE2     -106.7730    5.9030   32.0720 C.ar  155  TYR155      0.0417
     71  CZ      -107.4870    4.8920   32.6870 C.ar  155  TYR155      0.1957
     72  OH      -107.1420    4.4950   33.9570 O.3   155  TYR155     -0.2866
     73  N       -114.2770   14.8420   31.0180 N.3   184  GLY184     -0.1225
     74  CA      -114.5620   14.9830   32.4500 C.3   184  GLY184      0.1811
     75  C       -113.4280   15.5930   33.2540 C.2   184  GLY184      0.2280
     76  O       -112.2680   15.2490   33.0170 O.2   184  GLY184     -0.2866
     77  N       -115.7770   15.0760   35.6870 N.3   186  ASN186     -0.1225
     78  CA      -116.1880   14.3210   36.8660 C.3   186  ASN186      0.1785
     79  C       -115.0900   14.3730   37.9250 C.2   186  ASN186      0.2597
     80  O       -115.3560   14.2140   39.1160 O.2   186  ASN186     -0.2718
     81  CB      -116.5340   12.8730   36.5090 C.3   186  ASN186      0.1169
     82  CG      -117.8370   12.7530   35.7350 C.2   186  ASN186      0.2627
     83  OD1     -118.3490   13.7310   35.1890 O.2   186  ASN186     -0.2716
     84  ND2     -118.3780   11.5440   35.6820 N.am  186  ASN186     -0.0877
     85  N       -113.8580   14.6030   37.4720 N.am  187  ALA187     -0.1966
     86  CA      -112.7130   14.8140   38.3530 C.3   187  ALA187      0.1728
     87  C       -111.8010   15.9130   37.8000 C.2   187  ALA187      0.2616
     88  O       -111.2050   15.7500   36.7350 O.2   187  ALA187     -0.2715
     89  CB      -111.9370   13.5220   38.5380 C.3   187  ALA187      0.0334
     90  N       -111.7020   17.0400   38.5050 N.am  188  ASN188     -0.1972
     91  CA      -112.4810   17.2960   39.7150 C.3   188  ASN188      0.1688
     92  C       -113.7480   18.0990   39.4110 C.2   188  ASN188      0.2292
     93  O       -113.7430   18.9400   38.5100 O.2   188  ASN188     -0.2864
     94  CB      -111.6220   17.9990   40.7750 C.3   188  ASN188      0.1181
     95  CG      -110.8600   17.0210   41.6600 C.2   188  ASN188      0.2629
     96  OD1     -110.4050   15.9680   41.2060 O.2   188  ASN188     -0.2716
     97  ND2     -110.7150   17.3710   42.9320 N.am  188  ASN188     -0.0877
@<TRIPOS>BOND
     1    26    25    2
     2    52    51    2
     3    51    50    1
     4    25    24    1
     5    64    63    2
     6    13    11   ar
     7    13    14   ar
     8    63    62    1
     9    53    50    1
    10    53    54    1
    11    11     8   ar
    12     4     3    2
    13    50    49    1
    14    14    12   ar
    15     1     2    1
    16    24    27    1
    17    24    23    1
    18    18    17    2
    19    27    28    1
    20     8     6   ar
    21     8    10   ar
    22     5     6    1
    23     5     2    1
    24    54    56   ar
    25    54    55   ar
    26    12    10   ar
    27     3     2    1
    28     3    15   am
    29    49    44   am
    30    61    62    1
    31    62    65    1
    32    56    58   ar
    33     6     7   ar
    34    23    17   am
    35    17    16    1
    36    10     9   ar
    37     7     9   ar
    38    55    57   ar
    39    28    29   ar
    40    28    30   ar
    41    65    66    1
    42    58    59   ar
    43    15    16    1
    44    19    16    1
    45    19    20    1
    46    44    45    2
    47    44    43    1
    48    29    31   ar
    49    30    32   ar
    50    20    22   am
    51    20    21    2
    52    57    59   ar
    53    59    60    1
    54    43    46    1
    55    43    42    1
    56    66    67   ar
    57    66    68   ar
    58    46    47    1
    59    46    48    1
    60    41    40    2
    61    31    33   ar
    62    67    69   ar
    63    68    70   ar
    64    32    33   ar
    65    42    40   am
    66    34    35    1
    67    73    74    1
    68    40    39    1
    69    69    71   ar
    70    70    71   ar
    71    38    39    1
    72    38    36   am
    73    35    36    1
    74    74    75    1
    75    71    72    1
    76    36    37    2
    77    76    75    2
    78    83    82    2
    79    84    82   am
    80    77    78    1
    81    82    81    1
    82    81    78    1
    83    88    87    2
    84    78    79    1
    85    85    79   am
    86    85    86    1
    87    87    86    1
    88    87    90   am
    89    79    80    2
    90    86    89    1
    91    90    91    1
    92    93    92    2
    93    92    91    1
    94    91    94    1
    95    94    95    1
    96    96    95    2
    97    95    97   am
