@<TRIPOS>MOLECULE
tmp/3w7aB03.pdb
 144 143 0 0 0
SMALL
GASTEIGER

@<TRIPOS>ATOM
      1  N         50.1560  -19.4950   12.1580 N.3     9  ASN9       -0.1240
      2  CA        49.7530  -18.1520   12.4690 C.3     9  ASN9        0.1653
      3  C         48.6970  -17.6720   11.4650 C.2     9  ASN9        0.2266
      4  O         48.8560  -17.8830   10.2690 O.2     9  ASN9       -0.2867
      5  CB        50.9650  -17.2320   12.5390 C.3     9  ASN9        0.1155
      6  CG        50.6250  -15.9430   13.2140 C.2     9  ASN9        0.2627
      7  OD1       49.7780  -15.1980   12.7180 O.2     9  ASN9       -0.2716
      8  ND2       51.2340  -15.6790   14.3580 N.am    9  ASN9       -0.0877
      9  N         47.9740  -14.5980   10.5770 N.3    11  ASN11      -0.1240
     10  CA        48.5770  -13.5310    9.7680 C.3    11  ASN11       0.1653
     11  C         49.8150  -14.0290    9.0250 C.2    11  ASN11       0.2266
     12  O         50.4360  -15.0340    9.4040 O.2    11  ASN11      -0.2867
     13  CB        48.9640  -12.3450   10.6540 C.3    11  ASN11       0.1155
     14  CG        47.7530  -11.6380   11.2480 C.2    11  ASN11       0.2627
     15  OD1       46.6060  -11.9200   10.8870 O.2    11  ASN11      -0.2716
     16  ND2       48.0050  -10.7050   12.1620 N.am   11  ASN11      -0.0877
     17  N         51.7260   -9.0210    9.5600 N.3    15  GLY15      -0.1210
     18  CA        51.0660   -8.7390   10.8190 C.3    15  GLY15       0.1956
     19  C         51.3470   -9.7480   11.9180 C.2    15  GLY15       0.2613
     20  O         50.5480   -9.8890   12.8340 O.2    15  GLY15      -0.2717
     21  N         52.4750  -10.4460   11.8190 N.am   16  SER16      -0.1938
     22  CA        52.8880  -11.4640   12.7970 C.3    16  SER16       0.2055
     23  C         54.4070  -11.3640   13.0240 C.2    16  SER16       0.2643
     24  O         55.1790  -11.4420   12.0600 O.2    16  SER16      -0.2714
     25  CB        52.4980  -12.8740   12.3050 C.3    16  SER16       0.2130
     26  OG        53.2670  -13.8760   12.9570 O.3    16  SER16      -0.2179
     27  N         54.8380  -11.1680   14.2770 N.am   17  PHE17      -0.1959
     28  CA        56.2810  -11.1180   14.5760 C.3    17  PHE17       0.1771
     29  C         56.9390  -12.4570   14.2900 C.2    17  PHE17       0.2620
     30  O         58.0710  -12.5120   13.8050 O.2    17  PHE17      -0.2715
     31  CB        56.5390  -10.7500   16.0390 C.3    17  PHE17       0.0574
     32  CG        56.2240   -9.3240   16.3740 C.ar   17  PHE17      -0.0200
     33  CD1       57.2020   -8.3360   16.2490 C.ar   17  PHE17      -0.0042
     34  CD2       54.9630   -8.9630   16.8440 C.ar   17  PHE17      -0.0042
     35  CE1       56.9260   -7.0120   16.5860 C.ar   17  PHE17      -0.0003
     36  CE2       54.6720   -7.6340   17.1610 C.ar   17  PHE17      -0.0003
     37  CZ        55.6600   -6.6570   17.0220 C.ar   17  PHE17      -0.0000
     38  N         56.2510  -13.5500   14.6070 N.am   18  GLY18      -0.1954
     39  CA        56.8730  -14.8680   14.3840 C.3    18  GLY18       0.1869
     40  C         57.0610  -15.1570   12.9000 C.2    18  GLY18       0.2309
     41  O         58.1020  -15.6710   12.4780 O.2    18  GLY18      -0.2863
     42  N         55.1500  -20.3940   15.6110 N.3    99  THR99      -0.1204
     43  CA        53.9370  -20.3230   16.4200 C.3    99  THR99       0.1979
     44  C         53.9450  -19.0430   17.2350 C.2    99  THR99       0.2460
     45  O         55.0230  -18.5360   17.5850 O.2    99  THR99      -0.2732
     46  CB        53.7720  -21.5330   17.4180 C.3    99  THR99       0.1783
     47  OG1       54.7830  -21.4800   18.4180 O.3    99  THR99      -0.2211
     48  CG2       53.8780  -22.8620   16.7210 C.3    99  THR99       0.0376
     49  N         52.7320  -18.4970   17.5140 N.am  100  PRO100     -0.2717
     50  CA        52.5150  -17.4900   18.5350 C.3   100  PRO100      0.1535
     51  C         52.2760  -18.1740   19.8810 C.2   100  PRO100      0.2598
     52  O         51.7740  -19.2910   19.9240 O.2   100  PRO100     -0.2715
     53  CB        51.1950  -16.8050   18.0630 C.3   100  PRO100      0.0310
     54  CG        50.4570  -17.9220   17.3740 C.3   100  PRO100      0.0237
     55  CD        51.5460  -18.6720   16.6490 C.3   100  PRO100      0.0939
     56  N         52.5390  -17.5050   20.9880 N.am  101  MET101     -0.1964
     57  CA        52.0370  -18.0190   22.2620 C.3   101  MET101      0.1736
     58  C         50.6040  -17.4700   22.4680 C.2   101  MET101      0.2616
     59  O         50.3950  -16.2260   22.5050 O.2   101  MET101     -0.2715
     60  CB        52.9270  -17.5820   23.4480 C.3   101  MET101      0.0427
     61  CG        52.2860  -17.9300   24.7970 C.3   101  MET101      0.0599
     62  SD        53.2550  -17.4250   26.2050 S.3   101  MET101     -0.1393
     63  CE        54.4860  -18.7430   26.1430 C.3   101  MET101      0.0692
     64  N         49.6120  -18.3790   22.5230 N.am  102  TRP102     -0.1960
     65  CA        48.2460  -18.0130   22.9630 C.3   102  TRP102      0.1771
     66  C         47.9030  -18.7420   24.2360 C.2   102  TRP102      0.2620
     67  O         47.8590  -19.9910   24.2680 O.2   102  TRP102     -0.2715
     68  CB        47.1920  -18.3560   21.9390 C.3   102  TRP102      0.0590
     69  CG        47.3100  -17.6660   20.6010 C.ar  102  TRP102      0.0006
     70  CD1       48.0230  -16.5060   20.2820 C.ar  102  TRP102      0.0946
     71  CD2       46.6730  -18.0820   19.3500 C.ar  102  TRP102      0.0152
     72  NE1       47.8750  -16.1950   18.9480 N.ar  102  TRP102     -0.2442
     73  CE2       47.0810  -17.0940   18.3300 C.ar  102  TRP102      0.0810
     74  CE3       45.8520  -19.1390   18.9790 C.ar  102  TRP102      0.0012
     75  CZ2       46.6590  -17.1830   16.9960 C.ar  102  TRP102      0.0191
     76  CZ3       45.4210  -19.2190   17.6370 C.ar  102  TRP102      0.0001
     77  CH2       45.8290  -18.2560   16.6650 C.ar  102  TRP102      0.0015
     78  N         47.6820  -17.9890   25.2970 N.am  103  ASN103     -0.1958
     79  CA        47.2980  -18.5940   26.5930 C.3   103  ASN103      0.1819
     80  C         48.2820  -19.6590   27.0520 C.2   103  ASN103      0.2621
     81  O         47.8780  -20.7640   27.4500 O.2   103  ASN103     -0.2715
     82  CB        45.8740  -19.1040   26.4970 C.3   103  ASN103      0.1195
     83  CG        44.9130  -17.9950   26.1250 C.2   103  ASN103      0.2630
     84  OD1       44.8180  -16.9640   26.8200 O.2   103  ASN103     -0.2716
     85  ND2       44.2340  -18.1680   25.0090 N.am  103  ASN103     -0.0877
     86  N         49.5760  -19.3290   26.9100 N.am  104  PHE104     -0.1974
     87  CA        50.7060  -20.1260   27.4230 C.3   104  PHE104      0.1639
     88  C         50.9750  -21.3860   26.6250 C.2   104  PHE104      0.2290
     89  O         51.6660  -22.2710   27.0990 O.2   104  PHE104     -0.2864
     90  CB        50.5450  -20.4440   28.9410 C.3   104  PHE104      0.0560
     91  CG        50.3140  -19.2160   29.7730 C.ar  104  PHE104     -0.0200
     92  CD1       51.3050  -18.2520   29.8900 C.ar  104  PHE104     -0.0042
     93  CD2       49.0760  -18.9630   30.3510 C.ar  104  PHE104     -0.0042
     94  CE1       51.0850  -17.0720   30.6290 C.ar  104  PHE104     -0.0003
     95  CE2       48.8460  -17.8090   31.0920 C.ar  104  PHE104     -0.0003
     96  CZ        49.8530  -16.8570   31.2350 C.ar  104  PHE104     -0.0000
     97  N         56.7530  -16.6510   18.8540 N.3   145  ALA145     -0.1231
     98  CA        56.5650  -15.2320   19.2630 C.3   145  ALA145      0.1694
     99  C         55.6770  -15.1780   20.5060 C.2   145  ALA145      0.2593
    100  O         54.6620  -15.8670   20.5460 O.2   145  ALA145     -0.2718
    101  CB        55.9650  -14.4120   18.1270 C.3   145  ALA145      0.0304
    102  N         56.0860  -14.3980   21.5110 N.am  146  THR146     -0.1939
    103  CA        55.3780  -14.2930   22.7600 C.3   146  THR146      0.2028
    104  C         55.2700  -12.8350   23.2150 C.2   146  THR146      0.2643
    105  O         56.2090  -12.0720   23.0670 O.2   146  THR146     -0.2714
    106  CB        56.0740  -15.0770   23.8990 C.3   146  THR146      0.1808
    107  OG1       57.3300  -14.4560   24.2230 O.3   146  THR146     -0.2208
    108  CG2       56.3350  -16.5910   23.5520 C.3   146  THR146      0.0379
    109  N         54.1540  -12.4600   23.8350 N.am  147  GLY147     -0.1939
    110  CA        53.9990  -11.0740   24.2920 C.3   147  GLY147      0.2014
    111  C         54.9490  -10.7750   25.4250 C.2   147  GLY147      0.2639
    112  O         55.5710   -9.7170   25.4510 O.2   147  GLY147     -0.2714
    113  N         55.0780  -11.7300   26.3440 N.am  148  GLY148     -0.1954
    114  CA        55.9710  -11.6180   27.5170 C.3   148  GLY148      0.1869
    115  C         57.3020  -12.3050   27.2850 C.2   148  GLY148      0.2309
    116  O         57.6680  -12.5830   26.1280 O.2   148  GLY148     -0.2863
    117  N         59.6660  -15.5240   28.3590 N.3   150  TYR150     -0.1241
    118  CA        59.5770  -16.8790   28.9240 C.3   150  TYR150      0.1605
    119  C         60.8230  -17.7090   28.6070 C.2   150  TYR150      0.2264
    120  O         60.9280  -18.8630   29.0360 O.2   150  TYR150     -0.2867
    121  CB        58.3770  -17.6330   28.3370 C.3   150  TYR150      0.0534
    122  CG        57.0630  -16.9230   28.5450 C.ar  150  TYR150     -0.0201
    123  CD1       56.6510  -15.9310   27.6730 C.ar  150  TYR150     -0.0009
    124  CD2       56.2400  -17.2270   29.6450 C.ar  150  TYR150     -0.0009
    125  CE1       55.4690  -15.2570   27.8750 C.ar  150  TYR150      0.0417
    126  CE2       55.0430  -16.5650   29.8430 C.ar  150  TYR150      0.0417
    127  CZ        54.6680  -15.5760   28.9470 C.ar  150  TYR150      0.1957
    128  OH        53.4910  -14.8940   29.1360 O.3   150  TYR150     -0.2866
    129  N         57.5550   -8.1840   23.2080 N.3   185  MET185     -0.1230
    130  CA        56.9270   -7.0800   22.4480 C.3   185  MET185      0.1702
    131  C         55.7970   -6.4370   23.2160 C.2   185  MET185      0.2592
    132  O         55.7110   -5.2170   23.2780 O.2   185  MET185     -0.2718
    133  CB        56.3990   -7.5160   21.0700 C.3   185  MET185      0.0401
    134  CG        57.4850   -7.9870   20.1230 C.3   185  MET185      0.0596
    135  SD        57.8790   -9.7170   20.4730 S.3   185  MET185     -0.1393
    136  CE        56.3260  -10.4670   19.9250 C.3   185  MET185      0.0692
    137  N         54.9260   -7.2540   23.7980 N.am  186  ASN186     -0.1974
    138  CA        53.7850   -6.7010   24.5180 C.3   186  ASN186      0.1688
    139  C         54.1370   -6.0820   25.8530 C.2   186  ASN186      0.2292
    140  O         53.5060   -5.0980   26.2620 O.2   186  ASN186     -0.2864
    141  CB        52.6490   -7.7200   24.6310 C.3   186  ASN186      0.1181
    142  CG        51.9910   -7.9710   23.2920 C.2   186  ASN186      0.2629
    143  OD1       51.8370   -7.0530   22.5040 O.2   186  ASN186     -0.2716
    144  ND2       51.6190   -9.2070   23.0220 N.am  186  ASN186     -0.0877
@<TRIPOS>BOND
     1    11    12    2
     2    11    10    1
     3    17    18    1
     4    10     9    1
     5    10    13    1
     6     4     3    2
     7    13    14    1
     8    18    19    1
     9    15    14    2
    10    14    16   am
    11     3     2    1
    12    21    19   am
    13    21    22    1
    14    19    20    2
    15    24    23    2
    16     1     2    1
    17    25    22    1
    18    25    26    1
    19     2     5    1
    20    41    40    2
    21     5     6    1
    22     7     6    2
    23    22    23    1
    24    40    39    1
    25    23    27   am
    26     6     8   am
    27    30    29    2
    28    27    28    1
    29    29    28    1
    30    29    38   am
    31    39    38    1
    32    28    31    1
    33    42    43    1
    34    31    32    1
    35    33    32   ar
    36    33    35   ar
    37    32    34   ar
    38    43    44    1
    39    43    46    1
    40    35    37   ar
    41    55    54    1
    42    55    49    1
    43    77    75   ar
    44    77    76   ar
    45    48    46    1
    46    34    36   ar
    47    75    73   ar
    48    37    36   ar
    49    44    49   am
    50    44    45    2
    51    54    53    1
    52    46    47    1
    53    49    50    1
    54    76    74   ar
    55    53    50    1
    56   101    98    1
    57    73    72   ar
    58    73    71   ar
    59    50    51    1
    60    97    98    1
    61    72    70   ar
    62    74    71   ar
    63    98    99    1
    64    71    69   ar
    65    51    52    2
    66    51    56   am
    67   136   135    1
    68   134   135    1
    69   134   133    1
    70    70    69   ar
    71    99   100    2
    72    99   102   am
    73    69    68    1
    74    56    57    1
    75   133   130    1
    76   102   103    1
    77    68    65    1
    78    57    58    1
    79    57    60    1
    80   130   129    1
    81   130   131    1
    82    58    59    2
    83    58    64   am
    84   143   142    2
    85    64    65    1
    86   103   104    1
    87   103   106    1
    88    65    66    1
    89   144   142   am
    90   105   104    2
    91   104   109   am
    92   131   132    2
    93   131   137   am
    94   142   141    1
    95    60    61    1
    96   108   106    1
    97   137   138    1
    98   109   110    1
    99   106   107    1
   100    66    67    2
   101    66    78   am
   102   110   111    1
   103   138   141    1
   104   138   139    1
   105    61    62    1
   106    85    83   am
   107    78    79    1
   108   111   112    2
   109   111   113   am
   110   139   140    2
   111    83    82    1
   112    83    84    2
   113   116   115    2
   114    63    62    1
   115   113   114    1
   116    82    79    1
   117    79    80    1
   118    88    89    2
   119    88    87    1
   120    86    80   am
   121    86    87    1
   122    80    81    2
   123   115   114    1
   124    87    90    1
   125   123   125   ar
   126   123   122   ar
   127   125   127   ar
   128   121   122    1
   129   121   118    1
   130   117   118    1
   131   122   124   ar
   132   119   118    1
   133   119   120    2
   134    90    91    1
   135   127   128    1
   136   127   126   ar
   137   124   126   ar
   138    91    92   ar
   139    91    93   ar
   140    92    94   ar
   141    93    95   ar
   142    94    96   ar
   143    95    96   ar
