@<TRIPOS>MOLECULE
tmp/3w7cA00.pdb
 136 126 0 0 0
SMALL
GASTEIGER

@<TRIPOS>ATOM
      1  N         16.7260   19.2510   16.8150 N.3    44  LYS44      -0.1231
      2  CA        15.3780   19.2340   16.3060 C.3    44  LYS44       0.1693
      3  C         15.3810   19.1880   14.7780 C.2    44  LYS44       0.2592
      4  O         16.1140   19.9310   14.1490 O.2    44  LYS44      -0.2718
      5  CB        14.5940   20.4920   16.7750 C.3    44  LYS44       0.0285
      6  CG        13.2450   20.7180   16.0960 C.3    44  LYS44       0.0035
      7  CD        12.2110   19.6970   16.4630 C.3    44  LYS44       0.0206
      8  CE        10.9110   19.8270   15.6030 C.3    44  LYS44       0.1093
      9  NZ         9.7560   18.8590   15.9180 N.3    44  LYS44      -0.1314
     10  N         14.4950   18.3800   14.2150 N.am   45  SER45      -0.1952
     11  CA        14.3260   18.2180   12.7510 C.3    45  SER45       0.1924
     12  C         14.0830   19.6150   12.2250 C.2    45  SER45       0.2314
     13  O         13.2490   20.3480   12.7370 O.2    45  SER45      -0.2863
     14  CB        13.1670   17.3300   12.3870 C.3    45  SER45       0.2116
     15  OG        13.5220   15.9680   12.6350 O.3    45  SER45      -0.2180
     16  N         10.1990   27.8080   11.3860 N.3    51  ARG51      -0.1245
     17  CA         8.7760   27.5630   11.4150 C.3    51  ARG51       0.1563
     18  C          8.2810   27.7550   12.8720 C.2    51  ARG51       0.2260
     19  O          8.9850   27.3720   13.8290 O.2    51  ARG51      -0.2867
     20  CB         8.4510   26.1180   11.0360 C.3    51  ARG51       0.0307
     21  CG         8.5900   25.7760    9.5620 C.3    51  ARG51       0.0489
     22  CD         8.4420   24.2810    9.3290 C.3    51  ARG51       0.2205
     23  NE         7.1270   23.7750    9.6690 N.pl3  51  ARG51      -0.0865
     24  CZ         6.0610   23.8080    8.8760 C.cat  51  ARG51       0.5346
     25  NH1        6.0920   24.3730    7.6360 N.pl3  51  ARG51       0.1354
     26  NH2        4.9300   23.3090    9.3270 N.pl3  51  ARG51       0.1354
     27  N          2.4860   24.2260   14.6070 N.3    54  ASN54      -0.1240
     28  CA         1.0370   24.2070   14.7260 C.3    54  ASN54       0.1653
     29  C          0.5120   24.9700   15.9390 C.2    54  ASN54       0.2266
     30  O          1.2640   25.2980   16.8630 O.2    54  ASN54      -0.2867
     31  CB         0.5600   22.7330   14.7770 C.3    54  ASN54       0.1155
     32  CG         0.6600   22.0040   13.4460 C.2    54  ASN54       0.2627
     33  OD1        0.8700   22.6220   12.3660 O.2    54  ASN54      -0.2716
     34  ND2        0.5040   20.6750   13.4870 N.am   54  ASN54      -0.0877
     35  N          1.2440   14.1300   19.8760 N.3    68  ASN68      -0.1225
     36  CA         1.7010   15.4330   19.4770 C.3    68  ASN68       0.1785
     37  C          1.3630   15.7100   18.0280 C.2    68  ASN68       0.2598
     38  O          1.4690   14.8140   17.1650 O.2    68  ASN68      -0.2718
     39  CB         3.2150   15.6420   19.6870 C.3    68  ASN68       0.1169
     40  CG         4.0450   15.1250   18.5410 C.2    68  ASN68       0.2627
     41  OD1        4.1690   15.7850   17.4730 O.2    68  ASN68      -0.2716
     42  ND2        4.5750   13.9000   18.6840 N.am   68  ASN68      -0.0877
     43  N          1.0520   16.9620   17.7780 N.am   69  SER69      -0.1938
     44  CA         1.0600   17.4470   16.3820 C.3    69  SER69       0.2055
     45  C          1.7780   18.7880   16.3820 C.2    69  SER69       0.2643
     46  O          1.2070   19.8480   16.1440 O.2    69  SER69      -0.2714
     47  CB        -0.3040   17.5300   15.8290 C.3    69  SER69       0.2130
     48  OG        -0.2500   17.9510   14.4360 O.3    69  SER69      -0.2179
     49  N          3.0790   18.7020   16.5800 N.am   70  MET70      -0.1962
     50  CA         3.8450   19.9220   16.7410 C.3    70  MET70       0.1736
     51  C          3.8690   20.7380   15.4450 C.2    70  MET70       0.2617
     52  O          3.9010   21.9830   15.4420 O.2    70  MET70      -0.2715
     53  CB         5.2580   19.6120   17.0960 C.3    70  MET70       0.0427
     54  CG         5.5250   18.8420   18.3430 C.3    70  MET70       0.0599
     55  SD         4.7780   19.5160   19.8440 S.3    70  MET70      -0.1393
     56  CE         5.8320   20.8860   20.1920 C.3    70  MET70       0.0692
     57  N          3.8970   20.0470   14.3200 N.am   71  GLY71      -0.1940
     58  CA         4.0610   20.7500   13.0690 C.3    71  GLY71       0.2014
     59  C          5.3930   21.3110   12.7110 C.2    71  GLY71       0.2638
     60  O          5.4650   22.3900   12.0350 O.2    71  GLY71      -0.2714
     61  N          6.4450   20.6210   13.1070 N.am   72  LEU72      -0.1977
     62  CA         7.8270   21.0130   12.8090 C.3    72  LEU72       0.1596
     63  C          8.1920   22.4490   13.1540 C.2    72  LEU72       0.2287
     64  O          8.8370   23.1660   12.3900 O.2    72  LEU72      -0.2864
     65  CB         8.1210   20.6910   11.3490 C.3    72  LEU72       0.0297
     66  CG         9.4850   20.3600   10.8240 C.3    72  LEU72       0.0022
     67  CD1       10.2340   19.3930   11.6890 C.3    72  LEU72       0.0001
     68  CD2        9.3160   19.7530    9.4280 C.3    72  LEU72       0.0001
     69  N         14.4120   17.6070    8.1350 N.3   100  SER100     -0.1217
     70  CA        13.0950   17.1720    7.7260 C.3   100  SER100      0.1889
     71  C         12.4480   18.1330    6.7300 C.2   100  SER100      0.2288
     72  O         11.3790   18.7340    6.9660 O.2   100  SER100     -0.2866
     73  CB        12.2490   16.9180    8.9910 C.3   100  SER100      0.2089
     74  OG        10.9400   16.5090    8.6340 O.3   100  SER100     -0.2183
     75  N         10.3840   19.5900    3.5910 N.3   102  LEU102     -0.1245
     76  CA         8.9720   19.3340    3.1830 C.3   102  LEU102      0.1561
     77  C          8.8800   18.8850    1.7200 C.2   102  LEU102      0.2260
     78  O          7.7840   18.5700    1.2230 O.2   102  LEU102     -0.2867
     79  CB         8.0360   20.5330    3.4950 C.3   102  LEU102      0.0270
     80  CG         8.0320   20.8380    5.0440 C.3   102  LEU102      0.0019
     81  CD1        6.8660   21.6710    5.5170 C.3   102  LEU102      0.0001
     82  CD2        8.0510   19.6280    5.8540 C.3   102  LEU102      0.0001
     83  N         15.0000   12.6230    8.3700 N.3   128  ASN128     -0.1240
     84  CA        13.6580   12.2090    8.7900 C.3   128  ASN128      0.1653
     85  C         12.7610   11.8640    7.6280 C.2   128  ASN128      0.2266
     86  O         12.3410   12.7640    6.8660 O.2   128  ASN128     -0.2867
     87  CB        12.9960   13.3130    9.5690 C.3   128  ASN128      0.1155
     88  CG        11.6530   12.9030   10.1900 C.2   128  ASN128      0.2627
     89  OD1       11.2680   11.7710   10.2220 O.2   128  ASN128     -0.2716
     90  ND2       11.0310   13.8530   10.7920 N.am  128  ASN128     -0.0877
     91  N          9.8690   10.1780    8.1410 N.3   130  SER130     -0.1202
     92  CA         8.5280   10.0460    8.6470 C.3   130  SER130      0.2020
     93  C          7.9610   11.4100    8.7160 C.2   130  SER130      0.2619
     94  O          7.8100   11.9920    9.8010 O.2   130  SER130     -0.2717
     95  CB         8.4680    9.3820   10.0250 C.3   130  SER130      0.2103
     96  OG         7.1570    9.4550   10.5060 O.3   130  SER130     -0.2182
     97  N          7.9110   12.0410    7.5510 N.am  131  CYS131     -0.1956
     98  CA         7.4320   13.4070    7.3430 C.3   131  CYS131      0.1828
     99  C          6.5270   13.5590    6.1170 C.2   131  CYS131      0.2467
    100  O          6.6130   12.7820    5.1660 O.2   131  CYS131     -0.2730
    101  CB         8.6140   14.3760    7.2420 C.3   131  CYS131      0.0996
    102  SG         9.6660   14.1220    5.7930 S.3   131  CYS131     -0.0797
    103  N          5.6660   14.5730    6.1530 N.am  132  PRO132     -0.2726
    104  CA         4.8130   14.9240    5.0310 C.3   132  PRO132      0.1402
    105  C          5.5470   15.1970    3.7190 C.2   132  PRO132      0.2269
    106  O          6.6110   15.6850    3.7180 O.2   132  PRO132     -0.2865
    107  CB         4.2120   16.2450    5.4580 C.3   132  PRO132      0.0296
    108  CG         4.2930   16.2700    6.9370 C.3   132  PRO132      0.0237
    109  CD         5.1410   15.1300    7.4000 C.3   132  PRO132      0.0939
    110  N          9.8480    6.5380   14.6150 N.3   195  ASN195     -0.1225
    111  CA         9.1030    7.7770   14.8710 C.3   195  ASN195      0.1785
    112  C          7.7520    7.4190   15.5420 C.2   195  ASN195      0.2597
    113  O          7.4540    6.2810   15.7580 O.2   195  ASN195     -0.2718
    114  CB         8.8830    8.5160   13.5380 C.3   195  ASN195      0.1169
    115  CG         8.8840   10.0190   13.7070 C.2   195  ASN195      0.2627
    116  OD1        8.2480   10.5290   14.5110 O.2   195  ASN195     -0.2716
    117  ND2        9.6510   10.6820   12.8990 N.am  195  ASN195     -0.0877
    118  N          6.9650    8.4430   15.8530 N.am  196  SER196     -0.1952
    119  CA         5.7000    8.2580   16.5580 C.3   196  SER196      0.1924
    120  C          4.6660    7.4670   15.7580 C.2   196  SER196      0.2314
    121  O          4.5470    7.6230   14.5430 O.2   196  SER196     -0.2863
    122  CB         5.1160    9.6130   16.9670 C.3   196  SER196      0.2116
    123  OG         5.0620   10.5000   15.8630 O.3   196  SER196     -0.2180
    124  N         -5.4110   19.2680   13.6010 N.3   215  LYS215     -0.1245
    125  CA        -5.9140   18.0660   12.9280 C.3   215  LYS215      0.1561
    126  C         -7.0150   17.3570   13.7730 C.2   215  LYS215      0.2260
    127  O         -7.1220   16.1150   13.8240 O.2   215  LYS215     -0.2867
    128  CB        -4.7140   17.1620   12.4880 C.3   215  LYS215      0.0271
    129  CG        -4.1840   17.2950   11.0270 C.3   215  LYS215      0.0035
    130  CD        -4.4580   18.6230   10.3500 C.3   215  LYS215      0.0206
    131  CE        -3.6860   18.8320    9.0520 C.3   215  LYS215      0.1093
    132  NZ        -2.2900   18.4590    9.3710 N.3   215  LYS215     -0.1314
    133  N          0.6700   12.1050   16.5780 N.3   220  GLY220     -0.1225
    134  CA         1.5210   10.9460   16.7310 C.3   220  GLY220      0.1811
    135  C          1.7020   10.5350   18.1920 C.2   220  GLY220      0.2280
    136  O          1.8990   11.3560   19.0780 O.2   220  GLY220     -0.2866
@<TRIPOS>BOND
     1    78    77    2
     2    77    76    1
     3    76    79    1
     4    76    75    1
     5    79    80    1
     6   106   105    2
     7   105   104    1
     8   104   107    1
     9   104   103    1
    10    80    81    1
    11    80    82    1
    12   100    99    2
    13   107   108    1
    14   102   101    1
    15    99   103   am
    16    99    98    1
    17   103   109    1
    18    71    72    2
    19    71    70    1
    20    86    85    2
    21   108   109    1
    22   101    98    1
    23    98    97    1
    24    97    93   am
    25    85    84    1
    26    25    24    1
    27    70    69    1
    28    70    73    1
    29    91    92    1
    30    83    84    1
    31    74    73    1
    32    92    93    1
    33    92    95    1
    34    93    94    2
    35    84    87    1
    36    24    26    1
    37    24    23    2
    38   131   132    1
    39   131   130    1
    40    22    21    1
    41    22    23    1
    42    68    66    1
    43    21    20    1
    44    87    88    1
    45    95    96    1
    46    88    89    2
    47    88    90   am
    48   130   129    1
    49    66    65    1
    50    66    67    1
    51   129   128    1
    52    20    17    1
    53    65    62    1
    54    16    17    1
    55    17    18    1
    56    60    59    2
    57    12    13    2
    58    12    11    1
    59    33    32    2
    60    14    15    1
    61    14    11    1
    62    64    63    2
    63   128   125    1
    64    59    58    1
    65    59    61   am
    66    11    10    1
    67    62    61    1
    68    62    63    1
    69    18    19    2
    70   117   115   am
    71   125   124    1
    72   125   126    1
    73    58    57    1
    74    32    34   am
    75    32    31    1
    76   114   115    1
    77   114   111    1
    78   115   116    2
    79   126   127    2
    80     4     3    2
    81    10     3   am
    82    57    51   am
    83    48    47    1
    84   121   120    2
    85    27    28    1
    86   110   111    1
    87    28    31    1
    88    28    29    1
    89     3     2    1
    90   111   112    1
    91    52    51    2
    92    51    50    1
    93   112   113    2
    94   112   118   am
    95     8     9    1
    96     8     7    1
    97   120   119    1
    98    47    44    1
    99   118   119    1
   100   123   122    1
   101    29    30    2
   102     6     7    1
   103     6     5    1
   104    46    45    2
   105     2     5    1
   106     2     1    1
   107    45    44    1
   108    45    49   am
   109    44    43    1
   110   119   122    1
   111   133   134    1
   112    49    50    1
   113   134   135    1
   114    50    53    1
   115    53    54    1
   116    38    37    2
   117    41    40    2
   118    43    37   am
   119    37    36    1
   120   135   136    2
   121    54    55    1
   122    40    42   am
   123    40    39    1
   124    36    39    1
   125    36    35    1
   126    55    56    1
