@<TRIPOS>MOLECULE
tmp/3w7fA01.pdb
 222 210 0 0 0
SMALL
GASTEIGER

@<TRIPOS>ATOM
      1  N         55.9660   -5.8380   13.6950 N.3    18  HIS18      -0.1226
      2  CA        56.1130   -5.6030   15.1260 C.3    18  HIS18       0.1752
      3  C         57.1180   -6.4040   15.9330 C.2    18  HIS18       0.2597
      4  O         57.4120   -6.0540   17.0670 O.2    18  HIS18      -0.2718
      5  CB        54.7470   -5.7590   15.8050 C.3    18  HIS18       0.0759
      6  CG        53.6760   -4.9130   15.1960 C.ar   18  HIS18       0.0818
      7  ND1       53.4520   -3.6050   15.5680 N.ar   18  HIS18      -0.2268
      8  CD2       52.7610   -5.1950   14.2400 C.ar   18  HIS18       0.1154
      9  CE1       52.4450   -3.1210   14.8700 C.ar   18  HIS18       0.1986
     10  NE2       52.0080   -4.0660   14.0590 N.ar   18  HIS18      -0.2212
     11  N         57.6150   -7.4850   15.3910 N.am   19  SER19      -0.1938
     12  CA        58.5370   -8.2960   16.1560 C.3    19  SER19       0.2055
     13  C         59.9030   -8.2480   15.5230 C.2    19  SER19       0.2643
     14  O         60.3220   -9.1500   14.7930 O.2    19  SER19      -0.2714
     15  CB        58.0360   -9.7510   16.2820 C.3    19  SER19       0.2130
     16  OG        58.8150  -10.4600   17.2260 O.3    19  SER19      -0.2179
     17  N         60.5950   -7.1650   15.8350 N.am   20  LYS20      -0.1963
     18  CA        61.9310   -6.9780   15.3400 C.3    20  LYS20       0.1728
     19  C         62.8290   -8.0860   15.9280 C.2    20  LYS20       0.2617
     20  O         63.7580   -8.5490   15.2800 O.2    20  LYS20      -0.2715
     21  CB        62.4170   -5.5640   15.7030 C.3    20  LYS20       0.0311
     22  CG        61.6640   -4.4030   14.9430 C.3    20  LYS20       0.0038
     23  CD        60.1810   -4.2290   15.4060 C.3    20  LYS20       0.0206
     24  CE        59.5840   -2.8570   15.0100 C.3    20  LYS20       0.1093
     25  NZ        58.2620   -2.5400   15.6610 N.3    20  LYS20      -0.1314
     26  N         62.5320   -8.5430   17.1400 N.am   21  SER21      -0.1936
     27  CA        63.3480   -9.6080   17.7140 C.3    21  SER21       0.2055
     28  C         63.0590  -11.0460   17.2430 C.2    21  SER21       0.2643
     29  O         63.9930  -11.7900   16.9810 O.2    21  SER21      -0.2714
     30  CB        63.2470   -9.5940   19.2270 C.3    21  SER21       0.2130
     31  OG        63.4760   -8.2830   19.7110 O.3    21  SER21      -0.2179
     32  N         61.7930  -11.4190   17.0820 N.am   22  PHE22      -0.1973
     33  CA        61.4600  -12.8010   16.7620 C.3    22  PHE22       0.1639
     34  C         60.9970  -13.2000   15.3950 C.2    22  PHE22       0.2290
     35  O         60.9360  -14.3980   15.1140 O.2    22  PHE22      -0.2864
     36  CB        60.4490  -13.3120   17.7860 C.3    22  PHE22       0.0560
     37  CG        60.8900  -13.0990   19.2120 C.ar   22  PHE22      -0.0200
     38  CD1       61.9860  -13.7910   19.7190 C.ar   22  PHE22      -0.0042
     39  CD2       60.2160  -12.2070   20.0410 C.ar   22  PHE22      -0.0042
     40  CE1       62.4210  -13.6110   21.0520 C.ar   22  PHE22      -0.0003
     41  CE2       60.6350  -12.0070   21.3950 C.ar   22  PHE22      -0.0003
     42  CZ        61.7520  -12.7250   21.8950 C.ar   22  PHE22      -0.0000
     43  N         61.4070  -17.1640   14.0970 N.3    26  PHE26      -0.1241
     44  CA        60.3060  -18.0690   13.7940 C.3    26  PHE26       0.1605
     45  C         60.0590  -18.3660   12.3480 C.2    26  PHE26       0.2264
     46  O         59.3630  -19.3160   12.0100 O.2    26  PHE26      -0.2867
     47  CB        59.0280  -17.5680   14.4530 C.3    26  PHE26       0.0534
     48  CG        59.0090  -17.7760   15.9390 C.ar   26  PHE26      -0.0203
     49  CD1       58.8610  -19.0400   16.4670 C.ar   26  PHE26      -0.0042
     50  CD2       59.1640  -16.7180   16.7950 C.ar   26  PHE26      -0.0042
     51  CE1       58.8600  -19.2720   17.8490 C.ar   26  PHE26      -0.0003
     52  CE2       59.1690  -16.9200   18.1860 C.ar   26  PHE26      -0.0003
     53  CZ        59.0100  -18.2350   18.7060 C.ar   26  PHE26      -0.0000
     54  N         50.6250  -14.9730   16.6070 N.3    41  TYR41      -0.1241
     55  CA        51.2800  -13.7070   16.8680 C.3    41  TYR41       0.1605
     56  C         50.3790  -12.5810   16.4950 C.2    41  TYR41       0.2264
     57  O         50.2050  -11.6470   17.2840 O.2    41  TYR41      -0.2867
     58  CB        52.5640  -13.5260   16.0300 C.3    41  TYR41       0.0534
     59  CG        53.2560  -12.2370   16.3670 C.ar   41  TYR41      -0.0201
     60  CD1       52.9220  -11.0360   15.7140 C.ar   41  TYR41      -0.0009
     61  CD2       54.1840  -12.1860   17.4220 C.ar   41  TYR41      -0.0009
     62  CE1       53.5080   -9.7870   16.1290 C.ar   41  TYR41       0.0417
     63  CE2       54.7630  -10.9920   17.8180 C.ar   41  TYR41       0.0417
     64  CZ        54.4120   -9.8110   17.1590 C.ar   41  TYR41       0.1957
     65  OH        55.0110   -8.6680   17.5280 O.3    41  TYR41      -0.2866
     66  N         49.1080   -9.8510   19.0460 N.3    45  ARG45      -0.1245
     67  CA        49.5170   -8.4920   18.7170 C.3    45  ARG45       0.1563
     68  C         48.3480   -7.5240   18.6130 C.2    45  ARG45       0.2260
     69  O         48.4670   -6.3580   19.0160 O.2    45  ARG45      -0.2867
     70  CB        50.2600   -8.4610   17.3970 C.3    45  ARG45       0.0307
     71  CG        50.5800   -7.0030   16.9150 C.3    45  ARG45       0.0489
     72  CD        51.1700   -6.0550   18.0300 C.3    45  ARG45       0.2205
     73  NE        52.5140   -6.5140   18.3590 N.pl3  45  ARG45      -0.0865
     74  CZ        53.2330   -6.1660   19.4270 C.cat  45  ARG45       0.5346
     75  NH1       52.7790   -5.3080   20.3790 N.pl3  45  ARG45       0.1354
     76  NH2       54.4510   -6.7140   19.5270 N.pl3  45  ARG45       0.1354
     77  N         50.7210  -12.1880   30.4750 N.3   133  VAL133     -0.1231
     78  CA        51.0240  -11.6500   29.1620 C.3   133  VAL133      0.1692
     79  C         51.9670  -12.4610   28.3090 C.2   133  VAL133      0.2591
     80  O         51.9980  -12.2350   27.1040 O.2   133  VAL133     -0.2718
     81  CB        51.5550  -10.2090   29.2100 C.3   133  VAL133      0.0266
     82  CG1       50.5160   -9.3290   29.9110 C.3   133  VAL133      0.0020
     83  CG2       52.9600  -10.1810   29.8900 C.3   133  VAL133      0.0020
     84  N         52.6990  -13.4130   28.8810 N.am  134  ALA134     -0.1980
     85  CA        53.6060  -14.1980   28.0540 C.3   134  ALA134      0.1597
     86  C         53.6260  -15.7190   28.3540 C.2   134  ALA134      0.2287
     87  O         53.9250  -16.4840   27.4530 O.2   134  ALA134     -0.2864
     88  CB        55.0580  -13.6050   28.1370 C.3   134  ALA134      0.0319
     89  N         51.0790  -17.1250   26.1140 N.3   137  VAL137     -0.1231
     90  CA        51.4630  -17.2770   24.7140 C.3   137  VAL137      0.1692
     91  C         52.2490  -18.6060   24.6060 C.2   137  VAL137      0.2592
     92  O         52.0810  -19.3280   23.6450 O.2   137  VAL137     -0.2718
     93  CB        52.3500  -16.1110   24.2760 C.3   137  VAL137      0.0266
     94  CG1       52.5440  -16.1510   22.8170 C.3   137  VAL137      0.0020
     95  CG2       51.6670  -14.8180   24.5940 C.3   137  VAL137      0.0020
     96  N         53.1220  -18.9090   25.5840 N.am  138  GLY138     -0.1957
     97  CA        53.8430  -20.1810   25.5900 C.3   138  GLY138      0.1869
     98  C         52.8350  -21.2960   25.5220 C.2   138  GLY138      0.2309
     99  O         52.9030  -22.1640   24.6900 O.2   138  GLY138     -0.2863
    100  N         51.2000  -21.4890   22.1290 N.3   141  LEU141     -0.1231
    101  CA        52.1290  -22.0090   21.1470 C.3   141  LEU141      0.1693
    102  C         52.5120  -23.5020   21.3030 C.2   141  LEU141      0.2592
    103  O         53.0090  -24.0790   20.3400 O.2   141  LEU141     -0.2718
    104  CB        53.4250  -21.1820   21.1300 C.3   141  LEU141      0.0284
    105  CG        53.4240  -19.7610   20.5840 C.3   141  LEU141      0.0019
    106  CD1       54.7740  -19.1310   20.9140 C.3   141  LEU141      0.0001
    107  CD2       53.1990  -19.7560   19.1250 C.3   141  LEU141      0.0001
    108  N         52.2540  -24.1100   22.4680 N.am  142  THR142     -0.1953
    109  CA        52.6590  -25.4950   22.7330 C.3   142  THR142      0.1897
    110  C         52.2470  -26.5590   21.6990 C.2   142  THR142      0.2313
    111  O         53.0890  -27.2890   21.1920 O.2   142  THR142     -0.2863
    112  CB        52.2620  -25.9130   24.1790 C.3   142  THR142      0.1794
    113  OG1       53.0050  -25.1180   25.1210 O.3   142  THR142     -0.2208
    114  CG2       52.6120  -27.3750   24.4300 C.3   142  THR142      0.0378
    115  N         54.5510  -26.2220   18.3820 N.3   145  LEU145     -0.1245
    116  CA        55.9730  -26.4890   18.4490 C.3   145  LEU145      0.1561
    117  C         56.3270  -27.8610   19.0230 C.2   145  LEU145      0.2260
    118  O         57.4840  -28.1810   19.2330 O.2   145  LEU145     -0.2867
    119  CB        56.6260  -25.3910   19.2950 C.3   145  LEU145      0.0270
    120  CG        56.2810  -23.9780   18.8130 C.3   145  LEU145      0.0019
    121  CD1       56.9300  -22.9180   19.6730 C.3   145  LEU145      0.0001
    122  CD2       56.7390  -23.8780   17.3650 C.3   145  LEU145      0.0001
    123  N         57.2420  -24.2410   28.1010 N.3   157  ALA157     -0.1245
    124  CA        56.7150  -23.1700   27.2560 C.3   157  ALA157      0.1562
    125  C         56.3180  -21.9610   28.1090 C.2   157  ALA157      0.2260
    126  O         56.7640  -20.8160   27.8600 O.2   157  ALA157     -0.2867
    127  CB        55.5130  -23.6700   26.5010 C.3   157  ALA157      0.0290
    128  N         59.3360  -20.4060   29.7050 N.3   160  LEU160     -0.1231
    129  CA        60.1420  -19.6690   28.7510 C.3   160  LEU160      0.1693
    130  C         59.5310  -18.2790   28.4710 C.2   160  LEU160      0.2592
    131  O         60.2250  -17.2400   28.5570 O.2   160  LEU160     -0.2718
    132  CB        60.2700  -20.4540   27.4440 C.3   160  LEU160      0.0284
    133  CG        61.0870  -19.6580   26.4100 C.3   160  LEU160      0.0019
    134  CD1       62.5050  -19.3980   26.9510 C.3   160  LEU160      0.0001
    135  CD2       61.1370  -20.4000   25.0890 C.3   160  LEU160      0.0001
    136  N         58.2300  -18.2620   28.1580 N.am  161  GLY161     -0.1957
    137  CA        57.5550  -16.9960   27.8950 C.3   161  GLY161      0.1869
    138  C         57.6490  -16.0750   29.1020 C.2   161  GLY161      0.2309
    139  O         57.9560  -14.9020   28.9380 O.2   161  GLY161     -0.2863
    140  N         61.0060  -14.7040   29.0500 N.3   164  LEU164     -0.1231
    141  CA        61.2760  -13.6500   28.0850 C.3   164  LEU164      0.1693
    142  C         60.5760  -12.3310   28.4640 C.2   164  LEU164      0.2591
    143  O         61.0710  -11.2570   28.1400 O.2   164  LEU164     -0.2718
    144  CB        60.8760  -14.0920   26.6820 C.3   164  LEU164      0.0284
    145  CG        61.4180  -15.4500   26.2120 C.3   164  LEU164      0.0019
    146  CD1       60.5930  -15.8500   24.9880 C.3   164  LEU164      0.0001
    147  CD2       62.8770  -15.3890   25.8730 C.3   164  LEU164      0.0001
    148  N         59.4530  -12.3940   29.1820 N.am  165  GLN165     -0.1979
    149  CA        58.7480  -11.1690   29.5450 C.3   165  GLN165      0.1601
    150  C         59.6100  -10.3840   30.5530 C.2   165  GLN165      0.2287
    151  O         59.6890   -9.1710   30.5280 O.2   165  GLN165     -0.2864
    152  CB        57.3520  -11.5160   30.0990 C.3   165  GLN165      0.0394
    153  CG        56.5700  -10.3500   30.6050 C.3   165  GLN165      0.0908
    154  CD        56.4140   -9.2830   29.5930 C.2   165  GLN165      0.2608
    155  OE1       55.7780   -9.4800   28.5730 O.2   165  GLN165     -0.2717
    156  NE2       57.0010   -8.1340   29.8490 N.am  165  GLN165     -0.0878
    157  N         62.2900   -8.7540   28.6180 N.3   168  ASN168     -0.1240
    158  CA        61.6250   -7.6430   27.9560 C.3   168  ASN168      0.1653
    159  C         61.5420   -6.4460   28.8950 C.2   168  ASN168      0.2266
    160  O         61.8620   -5.3120   28.5290 O.2   168  ASN168     -0.2867
    161  CB        60.2290   -8.1110   27.5380 C.3   168  ASN168      0.1155
    162  CG        59.4470   -7.0590   26.7540 C.2   168  ASN168      0.2627
    163  OD1       58.8720   -6.1100   27.3170 O.2   168  ASN168     -0.2716
    164  ND2       59.4090   -7.2440   25.4430 N.am  168  ASN168     -0.0877
    165  N         64.7360   -4.6940   29.3600 N.3   171  ARG171     -0.1245
    166  CA        65.1910   -3.9170   28.2170 C.3   171  ARG171      0.1563
    167  C         64.4090   -2.6370   28.1720 C.2   171  ARG171      0.2260
    168  O         64.9230   -1.5970   27.8220 O.2   171  ARG171     -0.2867
    169  CB        64.9360   -4.6850   26.8980 C.3   171  ARG171      0.0307
    170  CG        65.3100   -3.9530   25.5800 C.3   171  ARG171      0.0489
    171  CD        64.6420   -4.5990   24.3400 C.3   171  ARG171      0.2205
    172  NE        63.1830   -4.4070   24.3570 N.pl3 171  ARG171     -0.0865
    173  CZ        62.3000   -5.0570   23.5880 C.cat 171  ARG171      0.5346
    174  NH1       62.7050   -5.9590   22.7130 N.pl3 171  ARG171      0.1354
    175  NH2       60.9950   -4.8130   23.7190 N.pl3 171  ARG171      0.1354
    176  N         60.3120  -30.0840   22.7910 N.3   233  PHE233     -0.1241
    177  CA        59.8180  -29.5280   21.5530 C.3   233  PHE233      0.1605
    178  C         60.1340  -30.4230   20.3630 C.2   233  PHE233      0.2264
    179  O         60.8990  -31.3880   20.4800 O.2   233  PHE233     -0.2867
    180  CB        60.3600  -28.0810   21.3920 C.3   233  PHE233      0.0534
    181  CG        59.8200  -27.1350   22.4550 C.ar  233  PHE233     -0.0203
    182  CD1       58.4590  -26.8060   22.4750 C.ar  233  PHE233     -0.0042
    183  CD2       60.6140  -26.6930   23.4950 C.ar  233  PHE233     -0.0042
    184  CE1       57.9010  -26.0650   23.5190 C.ar  233  PHE233     -0.0003
    185  CE2       60.0500  -25.9470   24.5490 C.ar  233  PHE233     -0.0003
    186  CZ        58.6840  -25.6430   24.5480 C.ar  233  PHE233     -0.0000
    187  N         63.4240  -22.3430   18.7590 N.3   241  ILE241     -0.1245
    188  CA        63.0650  -21.9440   20.1090 C.3   241  ILE241      0.1561
    189  C         64.3190  -21.4860   20.8460 C.2   241  ILE241      0.2260
    190  O         64.2930  -20.5250   21.6080 O.2   241  ILE241     -0.2867
    191  CB        62.4060  -23.1130   20.8720 C.3   241  ILE241      0.0252
    192  CG1       61.0230  -23.3810   20.2730 C.3   241  ILE241      0.0019
    193  CG2       62.3800  -22.8200   22.3590 C.3   241  ILE241      0.0019
    194  CD1       60.2500  -24.4740   20.9190 C.3   241  ILE241      0.0001
    195  N         65.2940  -18.1010   19.5440 N.3   244  ALA244     -0.1245
    196  CA        64.4370  -17.0540   20.1250 C.3   244  ALA244      0.1562
    197  C         64.9480  -16.6390   21.4890 C.2   244  ALA244      0.2260
    198  O         65.1450  -15.4530   21.7720 O.2   244  ALA244     -0.2867
    199  CB        62.9660  -17.5410   20.2690 C.3   244  ALA244      0.0290
    200  N         67.1750  -13.0160   23.1140 N.3   248  TYR248     -0.1241
    201  CA        66.7940  -12.2590   24.2800 C.3   248  TYR248      0.1605
    202  C         67.8860  -12.3020   25.3650 C.2   248  TYR248      0.2264
    203  O         68.0110  -11.3470   26.1300 O.2   248  TYR248     -0.2867
    204  CB        65.4230  -12.7530   24.7980 C.3   248  TYR248      0.0534
    205  CG        64.2990  -11.7700   24.5090 C.ar  248  TYR248     -0.0201
    206  CD1       63.2850  -11.5600   25.4330 C.ar  248  TYR248     -0.0009
    207  CD2       64.2850  -11.0050   23.3310 C.ar  248  TYR248     -0.0009
    208  CE1       62.2790  -10.6160   25.2150 C.ar  248  TYR248      0.0417
    209  CE2       63.2650  -10.0430   23.0850 C.ar  248  TYR248      0.0417
    210  CZ        62.2630   -9.8710   24.0470 C.ar  248  TYR248      0.1957
    211  OH        61.1900   -9.0310   23.8350 O.3   248  TYR248     -0.2866
    212  N         66.6750    2.1080   23.3430 N.3   265  ARG265     -0.1245
    213  CA        66.1090    0.7490   23.3200 C.3   265  ARG265      0.1563
    214  C         67.1250   -0.1410   22.6330 C.2   265  ARG265      0.2260
    215  O         67.2480   -0.1150   21.4410 O.2   265  ARG265     -0.2867
    216  CB        64.8010    0.7560   22.5300 C.3   265  ARG265      0.0307
    217  CG        64.0600   -0.5920   22.4080 C.3   265  ARG265      0.0489
    218  CD        62.7360   -0.3400   21.6650 C.3   265  ARG265      0.2205
    219  NE        61.8620   -1.5010   21.4920 N.pl3 265  ARG265     -0.0865
    220  CZ        62.0800   -2.5000   20.6350 C.cat 265  ARG265      0.5346
    221  NH1       63.1700   -2.5070   19.8590 N.pl3 265  ARG265      0.1354
    222  NH2       61.1750   -3.4710   20.5120 N.pl3 265  ARG265      0.1354
@<TRIPOS>BOND
     1    46    45    2
     2    45    44    1
     3     1     2    1
     4    44    43    1
     5    44    47    1
     6    10     8   ar
     7    10     9   ar
     8     8     6   ar
     9    47    48    1
    10    14    13    2
    11     9     7   ar
    12    22    23    1
    13    22    21    1
    14    24    23    1
    15    24    25    1
    16    35    34    2
    17     2     5    1
    18     2     3    1
    19     6     7   ar
    20     6     5    1
    21    20    19    2
    22    18    21    1
    23    18    17    1
    24    18    19    1
    25    11     3   am
    26    11    12    1
    27    34    33    1
    28    13    17   am
    29    13    12    1
    30    60    62   ar
    31    60    59   ar
    32    19    26   am
    33     3     4    2
    34    48    49   ar
    35    48    50   ar
    36    58    59    1
    37    58    55    1
    38    62    64   ar
    39    12    15    1
    40    15    16    1
    41    59    61   ar
    42    49    51   ar
    43    56    55    1
    44    56    57    2
    45    54    55    1
    46    33    32    1
    47    33    36    1
    48    50    52   ar
    49    71    70    1
    50    71    72    1
    51    29    28    2
    52    32    28   am
    53    26    27    1
    54    64    65    1
    55    64    63   ar
    56    28    27    1
    57   122   120    1
    58    70    67    1
    59    61    63   ar
    60    27    30    1
    61    36    37    1
    62    51    53   ar
    63    72    73    1
    64    52    53   ar
    65    73    74    2
    66   115   116    1
    67   116   117    1
    68   116   119    1
    69    68    67    1
    70    68    69    2
    71    67    66    1
    72   187   188    1
    73   120   119    1
    74   120   121    1
    75   117   118    2
    76   107   105    1
    77    37    38   ar
    78    37    39   ar
    79    30    31    1
    80    74    76    1
    81    74    75    1
    82   195   196    1
    83    38    40   ar
    84   221   220    1
    85    39    41   ar
    86   188   189    1
    87   188   191    1
    88   196   199    1
    89   196   197    1
    90   192   191    1
    91   192   194    1
    92   103   102    2
    93   178   179    2
    94   178   177    1
    95   222   220    1
    96   105   106    1
    97   105   104    1
    98   220   219    2
    99   189   190    2
   100   191   193    1
   101    40    42   ar
   102   104   101    1
   103   101   102    1
   104   101   100    1
   105   111   110    2
   106   102   108   am
   107   180   177    1
   108   180   181    1
   109    41    42   ar
   110   215   214    2
   111   197   198    2
   112   219   218    1
   113   177   176    1
   114   218   217    1
   115   110   109    1
   116   217   216    1
   117   181   182   ar
   118   181   183   ar
   119   108   109    1
   120   182   184   ar
   121   216   213    1
   122   214   213    1
   123   174   173    1
   124   109   112    1
   125    94    93    1
   126   209   207   ar
   127   209   210   ar
   128   200   201    1
   129   213   212    1
   130   207   205   ar
   131   183   185   ar
   132   184   186   ar
   133   173   175    1
   134   173   172    2
   135    92    91    2
   136   211   210    1
   137   210   208   ar
   138   112   114    1
   139   112   113    1
   140    93    95    1
   141    93    90    1
   142   201   204    1
   143   201   202    1
   144   171   172    1
   145   171   170    1
   146   205   204    1
   147   205   206   ar
   148   186   185   ar
   149    91    90    1
   150    91    96   am
   151    99    98    2
   152    90    89    1
   153   146   145    1
   154   135   133    1
   155   208   206   ar
   156   202   203    2
   157   164   162   am
   158    98    97    1
   159   170   169    1
   160    96    97    1
   161   147   145    1
   162   145   144    1
   163   133   134    1
   164   133   132    1
   165   127   124    1
   166   144   141    1
   167   162   163    2
   168   162   161    1
   169   169   166    1
   170    80    79    2
   171   124   123    1
   172   124   125    1
   173   132   129    1
   174    87    86    2
   175   161   158    1
   176   168   167    2
   177   126   125    2
   178   137   136    1
   179   137   138    1
   180   158   157    1
   181   158   159    1
   182    85    88    1
   183    85    86    1
   184    85    84    1
   185   141   142    1
   186   141   140    1
   187   143   142    2
   188   136   130   am
   189   167   166    1
   190   166   165    1
   191    79    84   am
   192    79    78    1
   193   142   148   am
   194   130   131    2
   195   130   129    1
   196   160   159    2
   197   155   154    2
   198   129   128    1
   199   139   138    2
   200    78    81    1
   201    78    77    1
   202   148   149    1
   203    81    83    1
   204    81    82    1
   205   149   152    1
   206   149   150    1
   207   154   156   am
   208   154   153    1
   209   152   153    1
   210   151   150    2
