@<TRIPOS>MOLECULE
tmp/3w7fA00.pdb
 226 211 0 0 0
SMALL
GASTEIGER

@<TRIPOS>ATOM
      1  N         53.5930   -9.6590   11.8960 N.3    15  MET15      -0.1245
      2  CA        54.7030  -10.0930   12.7320 C.3    15  MET15       0.1570
      3  C         56.0160   -9.4400   12.2280 C.2    15  MET15       0.2261
      4  O         56.8380   -9.0030   13.0290 O.2    15  MET15      -0.2867
      5  CB        54.8260  -11.6290   12.7350 C.3    15  MET15       0.0387
      6  CG        55.8400  -12.1830   13.7610 C.3    15  MET15       0.0595
      7  SD        55.7760  -14.0030   13.9930 S.3    15  MET15      -0.1393
      8  CE        56.6620  -14.1320   15.5050 C.3    15  MET15       0.0692
      9  N         55.9660   -5.8380   13.6950 N.3    18  HIS18      -0.1241
     10  CA        56.1130   -5.6030   15.1260 C.3    18  HIS18       0.1621
     11  C         57.1180   -6.4040   15.9330 C.2    18  HIS18       0.2264
     12  O         57.4120   -6.0540   17.0670 O.2    18  HIS18      -0.2867
     13  CB        54.7470   -5.7590   15.8050 C.3    18  HIS18       0.0745
     14  CG        53.6760   -4.9130   15.1960 C.ar   18  HIS18       0.0817
     15  ND1       53.4520   -3.6050   15.5680 N.ar   18  HIS18      -0.2268
     16  CD2       52.7610   -5.1950   14.2400 C.ar   18  HIS18       0.1154
     17  CE1       52.4450   -3.1210   14.8700 C.ar   18  HIS18       0.1986
     18  NE2       52.0080   -4.0660   14.0590 N.ar   18  HIS18      -0.2212
     19  N         61.7930  -11.4190   17.0820 N.3    22  PHE22      -0.1241
     20  CA        61.4600  -12.8010   16.7620 C.3    22  PHE22       0.1605
     21  C         60.9970  -13.2000   15.3950 C.2    22  PHE22       0.2264
     22  O         60.9360  -14.3980   15.1140 O.2    22  PHE22      -0.2867
     23  CB        60.4490  -13.3120   17.7860 C.3    22  PHE22       0.0534
     24  CG        60.8900  -13.0990   19.2120 C.ar   22  PHE22      -0.0203
     25  CD1       61.9860  -13.7910   19.7190 C.ar   22  PHE22      -0.0042
     26  CD2       60.2160  -12.2070   20.0410 C.ar   22  PHE22      -0.0042
     27  CE1       62.4210  -13.6110   21.0520 C.ar   22  PHE22      -0.0003
     28  CE2       60.6350  -12.0070   21.3950 C.ar   22  PHE22      -0.0003
     29  CZ        61.7520  -12.7250   21.8950 C.ar   22  PHE22      -0.0000
     30  N         61.4070  -17.1640   14.0970 N.3    26  PHE26      -0.1241
     31  CA        60.3060  -18.0690   13.7940 C.3    26  PHE26       0.1605
     32  C         60.0590  -18.3660   12.3480 C.2    26  PHE26       0.2264
     33  O         59.3630  -19.3160   12.0100 O.2    26  PHE26      -0.2867
     34  CB        59.0280  -17.5680   14.4530 C.3    26  PHE26       0.0534
     35  CG        59.0090  -17.7760   15.9390 C.ar   26  PHE26      -0.0203
     36  CD1       58.8610  -19.0400   16.4670 C.ar   26  PHE26      -0.0042
     37  CD2       59.1640  -16.7180   16.7950 C.ar   26  PHE26      -0.0042
     38  CE1       58.8600  -19.2720   17.8490 C.ar   26  PHE26      -0.0003
     39  CE2       59.1690  -16.9200   18.1860 C.ar   26  PHE26      -0.0003
     40  CZ        59.0100  -18.2350   18.7060 C.ar   26  PHE26      -0.0000
     41  N         52.1880  -19.9770   13.7710 N.3    37  VAL37      -0.1245
     42  CA        52.8160  -18.9980   14.6860 C.3    37  VAL37       0.1561
     43  C         52.4800  -17.5680   14.2510 C.2    37  VAL37       0.2260
     44  O         52.1530  -16.7370   15.1200 O.2    37  VAL37      -0.2867
     45  CB        54.3630  -19.1550   14.7160 C.3    37  VAL37       0.0252
     46  CG1       55.0050  -18.0120   15.4070 C.3    37  VAL37       0.0019
     47  CG2       54.7340  -20.4140   15.4210 C.3    37  VAL37       0.0019
     48  N         49.0230  -16.9770   15.3950 N.3    40  ILE40      -0.1231
     49  CA        48.9680  -16.7380   16.8100 C.3    40  ILE40       0.1692
     50  C         49.5200  -15.3790   17.2070 C.2    40  ILE40       0.2592
     51  O         48.9380  -14.7120   18.0420 O.2    40  ILE40      -0.2718
     52  CB        49.6700  -17.8590   17.5830 C.3    40  ILE40       0.0266
     53  CG1       48.8560  -19.1490   17.3950 C.3    40  ILE40       0.0019
     54  CG2       49.7220  -17.4960   19.0990 C.3    40  ILE40       0.0020
     55  CD1       49.5420  -20.5120   17.7190 C.3    40  ILE40       0.0001
     56  N         50.6250  -14.9730   16.6070 N.am   41  TYR41      -0.1976
     57  CA        51.2800  -13.7070   16.8680 C.3    41  TYR41       0.1639
     58  C         50.3790  -12.5810   16.4950 C.2    41  TYR41       0.2290
     59  O         50.2050  -11.6470   17.2840 O.2    41  TYR41      -0.2864
     60  CB        52.5640  -13.5260   16.0300 C.3    41  TYR41       0.0560
     61  CG        53.2560  -12.2370   16.3670 C.ar   41  TYR41      -0.0198
     62  CD1       52.9220  -11.0360   15.7140 C.ar   41  TYR41      -0.0009
     63  CD2       54.1840  -12.1860   17.4220 C.ar   41  TYR41      -0.0009
     64  CE1       53.5080   -9.7870   16.1290 C.ar   41  TYR41       0.0417
     65  CE2       54.7630  -10.9920   17.8180 C.ar   41  TYR41       0.0417
     66  CZ        54.4120   -9.8110   17.1590 C.ar   41  TYR41       0.1957
     67  OH        55.0110   -8.6680   17.5280 O.3    41  TYR41      -0.2866
     68  N         47.6610  -12.2690   19.0540 N.3    44  CYS44      -0.1221
     69  CA        48.1810  -11.7180   20.2990 C.3    44  CYS44       0.1808
     70  C         48.5330  -10.2370   20.1950 C.2    44  CYS44       0.2601
     71  O         48.2950   -9.4960   21.1600 O.2    44  CYS44      -0.2717
     72  CB        49.4240  -12.5050   20.7720 C.3    44  CYS44       0.0970
     73  SG        49.0230  -14.1830   21.3250 S.3    44  CYS44      -0.0800
     74  N         49.1080   -9.8510   19.0460 N.am   45  ARG45      -0.1979
     75  CA        49.5170   -8.4920   18.7170 C.3    45  ARG45       0.1597
     76  C         48.3480   -7.5240   18.6130 C.2    45  ARG45       0.2287
     77  O         48.4670   -6.3580   19.0160 O.2    45  ARG45      -0.2864
     78  CB        50.2600   -8.4610   17.3970 C.3    45  ARG45       0.0334
     79  CG        50.5800   -7.0030   16.9150 C.3    45  ARG45       0.0492
     80  CD        51.1700   -6.0550   18.0300 C.3    45  ARG45       0.2205
     81  NE        52.5140   -6.5140   18.3590 N.pl3  45  ARG45      -0.0865
     82  CZ        53.2330   -6.1660   19.4270 C.cat  45  ARG45       0.5346
     83  NH1       52.7790   -5.3080   20.3790 N.pl3  45  ARG45       0.1354
     84  NH2       54.4510   -6.7140   19.5270 N.pl3  45  ARG45       0.1354
     85  N         47.1190   -7.1000   22.2220 N.3    48  ASP48      -0.1225
     86  CA        47.9610   -6.2130   22.9760 C.3    48  ASP48       0.1805
     87  C         47.8610   -4.7380   22.5150 C.2    48  ASP48       0.2597
     88  O         47.9330   -3.8230   23.3270 O.2    48  ASP48      -0.2718
     89  CB        49.4110   -6.6700   22.8950 C.3    48  ASP48       0.1424
     90  CG        50.2970   -5.8150   23.7250 C.2    48  ASP48       0.3668
     91  OD1       50.2750   -5.9420   24.9620 O.co2  48  ASP48      -0.2456
     92  OD2       50.9840   -4.9740   23.1280 O.co2  48  ASP48      -0.2456
     93  N         47.7100   -4.5130   21.2160 N.am   49  ASP49      -0.1974
     94  CA        47.5600   -3.1590   20.6730 C.3    49  ASP49       0.1709
     95  C         46.1140   -2.6520   20.7820 C.2    49  ASP49       0.2293
     96  O         45.9160   -1.4440   20.7830 O.2    49  ASP49      -0.2864
     97  CB        47.9580   -3.1110   19.1850 C.3    49  ASP49       0.1436
     98  CG        49.4740   -3.3080   18.9690 C.2    49  ASP49       0.3671
     99  OD1       50.2350   -3.4010   19.9670 O.co2  49  ASP49      -0.2456
    100  OD2       49.8870   -3.3590   17.7940 O.co2  49  ASP49      -0.2456
    101  N         46.5070   -0.4160   24.0550 N.3    52  ASP52      -0.1239
    102  CA        47.7880    0.3220   24.0560 C.3    52  ASP52       0.1674
    103  C         47.9300    1.2640   22.8570 C.2    52  ASP52       0.2266
    104  O         48.3130    2.4190   22.9790 O.2    52  ASP52      -0.2867
    105  CB        49.0130   -0.6250   23.9880 C.3    52  ASP52       0.1410
    106  CG        48.9430   -1.7970   24.9850 C.2    52  ASP52       0.3668
    107  OD1       50.0320   -2.3690   25.3370 O.co2  52  ASP52      -0.2456
    108  OD2       47.7940   -2.1540   25.3890 O.co2  52  ASP52      -0.2456
    109  N         45.1920  -13.9180   28.5900 N.3   107  LEU107     -0.1245
    110  CA        45.9680  -12.8450   28.0240 C.3   107  LEU107      0.1561
    111  C         45.0830  -11.5720   27.8860 C.2   107  LEU107      0.2260
    112  O         45.5170  -10.4610   28.2230 O.2   107  LEU107     -0.2867
    113  CB        46.5210  -13.2790   26.6550 C.3   107  LEU107      0.0270
    114  CG        47.1560  -12.2230   25.7600 C.3   107  LEU107      0.0019
    115  CD1       48.3790  -11.6600   26.4540 C.3   107  LEU107      0.0001
    116  CD2       47.5300  -12.7940   24.4160 C.3   107  LEU107      0.0001
    117  N         45.7270   -7.9430   29.5910 N.3   111  VAL111     -0.1245
    118  CA        45.9180   -6.7550   28.7810 C.3   111  VAL111      0.1561
    119  C         44.8560   -5.7350   29.2500 C.2   111  VAL111      0.2260
    120  O         45.1460   -4.5630   29.4510 O.2   111  VAL111     -0.2867
    121  CB        45.7800   -7.1050   27.2620 C.3   111  VAL111      0.0252
    122  CG1       45.6580   -5.8190   26.3990 C.3   111  VAL111      0.0019
    123  CG2       46.9890   -7.9180   26.8260 C.3   111  VAL111      0.0019
    124  N         50.7210  -12.1880   30.4750 N.3   133  VAL133     -0.1231
    125  CA        51.0240  -11.6500   29.1620 C.3   133  VAL133      0.1692
    126  C         51.9670  -12.4610   28.3090 C.2   133  VAL133      0.2591
    127  O         51.9980  -12.2350   27.1040 O.2   133  VAL133     -0.2718
    128  CB        51.5550  -10.2090   29.2100 C.3   133  VAL133      0.0266
    129  CG1       50.5160   -9.3290   29.9110 C.3   133  VAL133      0.0020
    130  CG2       52.9600  -10.1810   29.8900 C.3   133  VAL133      0.0020
    131  N         52.6990  -13.4130   28.8810 N.am  134  ALA134     -0.1980
    132  CA        53.6060  -14.1980   28.0540 C.3   134  ALA134      0.1597
    133  C         53.6260  -15.7190   28.3540 C.2   134  ALA134      0.2287
    134  O         53.9250  -16.4840   27.4530 O.2   134  ALA134     -0.2864
    135  CB        55.0580  -13.6050   28.1370 C.3   134  ALA134      0.0319
    136  N         51.0790  -17.1250   26.1140 N.3   137  VAL137     -0.1245
    137  CA        51.4630  -17.2770   24.7140 C.3   137  VAL137      0.1561
    138  C         52.2490  -18.6060   24.6060 C.2   137  VAL137      0.2260
    139  O         52.0810  -19.3280   23.6450 O.2   137  VAL137     -0.2867
    140  CB        52.3500  -16.1110   24.2760 C.3   137  VAL137      0.0252
    141  CG1       52.5440  -16.1510   22.8170 C.3   137  VAL137      0.0019
    142  CG2       51.6670  -14.8180   24.5940 C.3   137  VAL137      0.0019
    143  N         51.2000  -21.4890   22.1290 N.3   141  LEU141     -0.1245
    144  CA        52.1290  -22.0090   21.1470 C.3   141  LEU141      0.1561
    145  C         52.5120  -23.5020   21.3030 C.2   141  LEU141      0.2260
    146  O         53.0090  -24.0790   20.3400 O.2   141  LEU141     -0.2867
    147  CB        53.4250  -21.1820   21.1300 C.3   141  LEU141      0.0270
    148  CG        53.4240  -19.7610   20.5840 C.3   141  LEU141      0.0019
    149  CD1       54.7740  -19.1310   20.9140 C.3   141  LEU141      0.0001
    150  CD2       53.1990  -19.7560   19.1250 C.3   141  LEU141      0.0001
    151  N         59.4530  -12.3940   29.1820 N.3   165  GLN165     -0.1245
    152  CA        58.7480  -11.1690   29.5450 C.3   165  GLN165      0.1566
    153  C         59.6100  -10.3840   30.5530 C.2   165  GLN165      0.2260
    154  O         59.6890   -9.1710   30.5280 O.2   165  GLN165     -0.2867
    155  CB        57.3520  -11.5160   30.0990 C.3   165  GLN165      0.0367
    156  CG        56.5700  -10.3500   30.6050 C.3   165  GLN165      0.0905
    157  CD        56.4140   -9.2830   29.5930 C.2   165  GLN165      0.2608
    158  OE1       55.7780   -9.4800   28.5730 O.2   165  GLN165     -0.2717
    159  NE2       57.0010   -8.1340   29.8490 N.am  165  GLN165     -0.0878
    160  N         62.2900   -8.7540   28.6180 N.3   168  ASN168     -0.1240
    161  CA        61.6250   -7.6430   27.9560 C.3   168  ASN168      0.1653
    162  C         61.5420   -6.4460   28.8950 C.2   168  ASN168      0.2266
    163  O         61.8620   -5.3120   28.5290 O.2   168  ASN168     -0.2867
    164  CB        60.2290   -8.1110   27.5380 C.3   168  ASN168      0.1155
    165  CG        59.4470   -7.0590   26.7540 C.2   168  ASN168      0.2627
    166  OD1       58.8720   -6.1100   27.3170 O.2   168  ASN168     -0.2716
    167  ND2       59.4090   -7.2440   25.4430 N.am  168  ASN168     -0.0877
    168  N         64.7360   -4.6940   29.3600 N.3   171  ARG171     -0.1231
    169  CA        65.1910   -3.9170   28.2170 C.3   171  ARG171      0.1694
    170  C         64.4090   -2.6370   28.1720 C.2   171  ARG171      0.2592
    171  O         64.9230   -1.5970   27.8220 O.2   171  ARG171     -0.2718
    172  CB        64.9360   -4.6850   26.8980 C.3   171  ARG171      0.0321
    173  CG        65.3100   -3.9530   25.5800 C.3   171  ARG171      0.0489
    174  CD        64.6420   -4.5990   24.3400 C.3   171  ARG171      0.2205
    175  NE        63.1830   -4.4070   24.3570 N.pl3 171  ARG171     -0.0865
    176  CZ        62.3000   -5.0570   23.5880 C.cat 171  ARG171      0.5346
    177  NH1       62.7050   -5.9590   22.7130 N.pl3 171  ARG171      0.1354
    178  NH2       60.9950   -4.8130   23.7190 N.pl3 171  ARG171      0.1354
    179  N         63.1500   -2.6950   28.5500 N.am  172  ASP172     -0.1974
    180  CA        62.3030   -1.5270   28.4120 C.3   172  ASP172      0.1709
    181  C         62.1010   -0.6270   29.6280 C.2   172  ASP172      0.2293
    182  O         61.2070    0.2470   29.5990 O.2   172  ASP172     -0.2864
    183  CB        60.9360   -1.9930   27.9140 C.3   172  ASP172      0.1436
    184  CG        61.0020   -2.7740   26.5990 C.2   172  ASP172      0.3671
    185  OD1       61.9310   -2.5270   25.7770 O.co2 172  ASP172     -0.2456
    186  OD2       60.1030   -3.6280   26.3780 O.co2 172  ASP172     -0.2456
    187  N         61.6940    3.1780   28.5920 N.3   175  GLU175     -0.1231
    188  CA        60.5500    3.5680   27.7950 C.3   175  GLU175      0.1699
    189  C         59.2870    3.2470   28.5610 C.2   175  GLU175      0.2592
    190  O         58.3040    3.9240   28.4120 O.2   175  GLU175     -0.2718
    191  CB        60.5780    2.9340   26.4020 C.3   175  GLU175      0.0402
    192  CG        60.0820    1.5050   26.2540 C.3   175  GLU175      0.1161
    193  CD        59.8940    1.1400   24.7810 C.2   175  GLU175      0.3649
    194  OE1       60.9240    1.0280   24.0470 O.co2 175  GLU175     -0.2457
    195  OE2       58.7160    0.9920   24.3610 O.co2 175  GLU175     -0.2457
    196  N         59.3240    2.2300   29.4130 N.am  176  ASP176     -0.1974
    197  CA        58.1610    1.9190   30.2370 C.3   176  ASP176      0.1709
    198  C         57.9850    3.0140   31.3040 C.2   176  ASP176      0.2293
    199  O         56.8780    3.2090   31.8410 O.2   176  ASP176     -0.2864
    200  CB        58.3190    0.5780   30.9460 C.3   176  ASP176      0.1436
    201  CG        58.1460   -0.6200   30.0120 C.2   176  ASP176      0.3671
    202  OD1       58.2750   -1.7670   30.5100 O.co2 176  ASP176     -0.2456
    203  OD2       57.8880   -0.4220   28.8070 O.co2 176  ASP176     -0.2456
    204  N         67.1750  -13.0160   23.1140 N.3   248  TYR248     -0.1241
    205  CA        66.7940  -12.2590   24.2800 C.3   248  TYR248      0.1605
    206  C         67.8860  -12.3020   25.3650 C.2   248  TYR248      0.2264
    207  O         68.0110  -11.3470   26.1300 O.2   248  TYR248     -0.2867
    208  CB        65.4230  -12.7530   24.7980 C.3   248  TYR248      0.0534
    209  CG        64.2990  -11.7700   24.5090 C.ar  248  TYR248     -0.0201
    210  CD1       63.2850  -11.5600   25.4330 C.ar  248  TYR248     -0.0009
    211  CD2       64.2850  -11.0050   23.3310 C.ar  248  TYR248     -0.0009
    212  CE1       62.2790  -10.6160   25.2150 C.ar  248  TYR248      0.0417
    213  CE2       63.2650  -10.0430   23.0850 C.ar  248  TYR248      0.0417
    214  CZ        62.2630   -9.8710   24.0470 C.ar  248  TYR248      0.1957
    215  OH        61.1900   -9.0310   23.8350 O.3   248  TYR248     -0.2866
    216  N         66.6750    2.1080   23.3430 N.3   265  ARG265     -0.1245
    217  CA        66.1090    0.7490   23.3200 C.3   265  ARG265      0.1563
    218  C         67.1250   -0.1410   22.6330 C.2   265  ARG265      0.2260
    219  O         67.2480   -0.1150   21.4410 O.2   265  ARG265     -0.2867
    220  CB        64.8010    0.7560   22.5300 C.3   265  ARG265      0.0307
    221  CG        64.0600   -0.5920   22.4080 C.3   265  ARG265      0.0489
    222  CD        62.7360   -0.3400   21.6650 C.3   265  ARG265      0.2205
    223  NE        61.8620   -1.5010   21.4920 N.pl3 265  ARG265     -0.0865
    224  CZ        62.0800   -2.5000   20.6350 C.cat 265  ARG265      0.5346
    225  NH1       63.1700   -2.5070   19.8590 N.pl3 265  ARG265      0.1354
    226  NH2       61.1750   -3.4710   20.5120 N.pl3 265  ARG265      0.1354
@<TRIPOS>BOND
     1     1     2    1
     2    33    32    2
     3     3     2    1
     4     3     4    2
     5    32    31    1
     6     2     5    1
     7     5     6    1
     8     9    10    1
     9     6     7    1
    10    41    42    1
    11    31    30    1
    12    31    34    1
    13     7     8    1
    14    18    16   ar
    15    18    17   ar
    16    16    14   ar
    17    43    42    1
    18    43    44    2
    19    34    35    1
    20    42    45    1
    21    45    46    1
    22    45    47    1
    23    17    15   ar
    24    22    21    2
    25    10    13    1
    26    10    11    1
    27    14    15   ar
    28    14    13    1
    29    48    49    1
    30    21    20    1
    31    62    64   ar
    32    62    61   ar
    33    11    12    2
    34    35    36   ar
    35    35    37   ar
    36    60    61    1
    37    60    57    1
    38    64    66   ar
    39    61    63   ar
    40    36    38   ar
    41    58    57    1
    42    58    59    2
    43    56    57    1
    44    56    50   am
    45    20    19    1
    46    20    23    1
    47    37    39   ar
    48    49    50    1
    49    49    52    1
    50    79    78    1
    51    79    80    1
    52    66    67    1
    53    66    65   ar
    54    50    51    2
    55    53    52    1
    56    53    55    1
    57    78    75    1
    58    63    65   ar
    59    52    54    1
    60    23    24    1
    61   100    98   ar
    62    38    40   ar
    63    80    81    1
    64    39    40   ar
    65    81    82    2
    66    76    75    1
    67    76    77    2
    68    75    74    1
    69    98    97    1
    70    98    99   ar
    71    74    70   am
    72    68    69    1
    73   150   148    1
    74    97    94    1
    75    24    25   ar
    76    24    26   ar
    77    82    84    1
    78    82    83    1
    79    25    27   ar
    80   225   224    1
    81    26    28   ar
    82    70    69    1
    83    70    71    2
    84    69    72    1
    85   146   145    2
    86   226   224    1
    87   148   149    1
    88   148   147    1
    89   224   223    2
    90    94    95    1
    91    94    93    1
    92    72    73    1
    93    95    96    2
    94    27    29   ar
    95   147   144    1
    96   144   145    1
    97   144   143    1
    98    93    87   am
    99    28    29   ar
   100   219   218    2
   101   223   222    1
   102   222   221    1
   103    85    86    1
   104   221   220    1
   105    87    86    1
   106    87    88    2
   107   220   217    1
   108   218   217    1
   109   177   176    1
   110   141   140    1
   111   103   104    2
   112   103   102    1
   113    89    86    1
   114    89    90    1
   115   213   211   ar
   116   213   214   ar
   117   204   205    1
   118    92    90   ar
   119   217   216    1
   120   211   209   ar
   121   176   178    1
   122   176   175    2
   123   139   138    2
   124    90    91   ar
   125   215   214    1
   126   105   102    1
   127   105   106    1
   128   194   193   ar
   129   214   212   ar
   130   101   102    1
   131   140   142    1
   132   140   137    1
   133   205   208    1
   134   205   206    1
   135   174   175    1
   136   174   173    1
   137   195   193   ar
   138   116   114    1
   139   209   208    1
   140   209   210   ar
   141   138   137    1
   142   137   136    1
   143   193   192    1
   144   106   107   ar
   145   106   108   ar
   146   212   210   ar
   147   206   207    2
   148   167   165   am
   149   173   172    1
   150   114   115    1
   151   114   113    1
   152   185   184   ar
   153   192   191    1
   154   186   184   ar
   155   122   121    1
   156   191   188    1
   157   184   183    1
   158   113   110    1
   159   165   166    2
   160   165   164    1
   161   123   121    1
   162   172   169    1
   163   127   126    2
   164   121   118    1
   165   134   133    2
   166   164   161    1
   167   188   189    1
   168   188   187    1
   169   171   170    2
   170   111   110    1
   171   111   112    2
   172   183   180    1
   173   161   160    1
   174   161   162    1
   175   110   109    1
   176   132   135    1
   177   132   133    1
   178   132   131    1
   179   170   169    1
   180   170   179   am
   181   169   168    1
   182   126   131   am
   183   126   125    1
   184   180   179    1
   185   180   181    1
   186   190   189    2
   187   163   162    2
   188   189   196   am
   189   158   157    2
   190   118   119    1
   191   118   117    1
   192   203   201   ar
   193   125   128    1
   194   125   124    1
   195   151   152    1
   196   128   130    1
   197   128   129    1
   198   119   120    2
   199   196   197    1
   200   152   155    1
   201   152   153    1
   202   157   159   am
   203   157   156    1
   204   182   181    2
   205   201   202   ar
   206   201   200    1
   207   155   156    1
   208   197   200    1
   209   197   198    1
   210   154   153    2
   211   198   199    2
