@<TRIPOS>MOLECULE
tmp/3w7gB00.pdb
 138 128 0 0 0
SMALL
GASTEIGER

@<TRIPOS>ATOM
      1  N        -15.8290  -16.8570   15.8160 N.3    44  LYS44      -0.1227
      2  CA       -14.3920  -16.8200   15.4260 C.3    44  LYS44       0.1736
      3  C        -14.3190  -16.7260   13.9240 C.2    44  LYS44       0.2596
      4  O        -15.0870  -17.4430   13.2660 O.2    44  LYS44      -0.2718
      5  CB       -13.7300  -18.1460   15.8400 C.3    44  LYS44       0.0541
      6  CG       -12.2970  -18.3450   15.4130 C.2    44  LYS44      -0.0272
      7  CD       -11.1400  -17.3730   15.8950 C.2    44  LYS44      -0.0103
      8  CE        -9.7960  -17.4190   15.1050 C.3    44  LYS44       0.1350
      9  NZ        -8.6290  -16.3650   15.3950 N.3    44  LYS44      -0.1262
     10  N        -13.4440  -15.9020   13.4230 N.am   45  SER45      -0.1952
     11  CA       -13.2200  -15.8870   11.9600 C.3    45  SER45       0.1924
     12  C        -12.9700  -17.2560   11.4400 C.2    45  SER45       0.2314
     13  O        -12.1180  -17.9950   11.9510 O.2    45  SER45      -0.2863
     14  CB       -12.1220  -14.9750   11.5690 C.3    45  SER45       0.2116
     15  OG       -12.4500  -13.6160   11.9050 O.3    45  SER45      -0.2180
     16  N         -1.4550  -21.9410   14.6240 N.3    54  ASN54      -0.1240
     17  CA        -0.0230  -21.9410   14.8360 C.3    54  ASN54       0.1653
     18  C          0.3600  -22.6830   16.0940 C.2    54  ASN54       0.2266
     19  O         -0.4630  -22.9030   16.9260 O.2    54  ASN54      -0.2867
     20  CB         0.5130  -20.5060   14.9090 C.3    54  ASN54       0.1155
     21  CG         0.5210  -19.8280   13.5910 C.2    54  ASN54       0.2627
     22  OD1        0.5400  -20.4580   12.5910 O.2    54  ASN54      -0.2716
     23  ND2        0.4930  -18.5240   13.6080 N.am   54  ASN54      -0.0877
     24  N         -0.6470  -11.7120   19.8980 N.3    68  ASN68      -0.1225
     25  CA        -1.1890  -13.0110   19.4160 C.3    68  ASN68       0.1785
     26  C         -0.7310  -13.2020   17.9960 C.2    68  ASN68       0.2598
     27  O         -0.7320  -12.3130   17.1460 O.2    68  ASN68      -0.2718
     28  CB        -2.7050  -13.1530   19.4960 C.3    68  ASN68       0.1169
     29  CG        -3.4030  -12.6230   18.3280 C.2    68  ASN68       0.2627
     30  OD1       -3.5650  -13.2870   17.3240 O.2    68  ASN68      -0.2716
     31  ND2       -3.9730  -11.4490   18.4870 N.am   68  ASN68      -0.0877
     32  N         -0.3790  -14.4750   17.7190 N.am   69  SER69      -0.1938
     33  CA        -0.2590  -14.9420   16.3590 C.3    69  SER69       0.2055
     34  C         -0.9690  -16.2920   16.2900 C.2    69  SER69       0.2643
     35  O         -0.2890  -17.3450   16.2050 O.2    69  SER69      -0.2714
     36  CB         1.2210  -15.0840   16.0470 C.3    69  SER69       0.2130
     37  OG         1.3870  -15.5660   14.7470 O.3    69  SER69      -0.2179
     38  N         -2.2750  -16.2600   16.4010 N.am   70  MET70      -0.1962
     39  CA        -3.0130  -17.5130   16.5230 C.3    70  MET70       0.1736
     40  C         -2.9220  -18.3850   15.3050 C.2    70  MET70       0.2617
     41  O         -2.9390  -19.6020   15.4720 O.2    70  MET70      -0.2715
     42  CB        -4.4610  -17.2220   16.8550 C.3    70  MET70       0.0427
     43  CG        -4.7930  -16.3870   18.0710 C.3    70  MET70       0.0599
     44  SD        -4.1400  -17.0250   19.5930 S.3    70  MET70      -0.1393
     45  CE        -5.1710  -18.3510   19.8910 C.3    70  MET70       0.0692
     46  N         -2.8560  -17.7980   14.1510 N.am   71  GLY71      -0.1940
     47  CA        -2.8750  -18.5880   12.9040 C.3    71  GLY71       0.2014
     48  C         -4.2450  -18.9990   12.4480 C.2    71  GLY71       0.2638
     49  O         -4.3780  -19.9870   11.7120 O.2    71  GLY71      -0.2714
     50  N         -5.2860  -18.2280   12.7500 N.am   72  LEU72      -0.1977
     51  CA        -6.6490  -18.5050   12.3540 C.3    72  LEU72       0.1596
     52  C         -7.1290  -19.8960   12.7100 C.2    72  LEU72       0.2287
     53  O         -7.7590  -20.5870   11.8630 O.2    72  LEU72      -0.2864
     54  CB        -6.8240  -18.0580   10.8710 C.3    72  LEU72       0.0297
     55  CG        -8.1440  -17.9070   10.1590 C.3    72  LEU72       0.0022
     56  CD1       -9.0070  -16.9460   10.9780 C.3    72  LEU72       0.0001
     57  CD2       -7.7730  -17.3080    8.7830 C.3    72  LEU72       0.0001
     58  N        -13.1290  -15.1550    7.2160 N.3   100  SER100     -0.1217
     59  CA       -11.8350  -14.7450    6.8680 C.3   100  SER100      0.1889
     60  C        -11.1840  -15.7500    5.9620 C.2   100  SER100      0.2288
     61  O        -10.1960  -16.3610    6.3090 O.2   100  SER100     -0.2866
     62  CB       -11.0580  -14.5650    8.1880 C.3   100  SER100      0.2089
     63  OG        -9.9150  -13.8590    7.9490 O.3   100  SER100     -0.2183
     64  N        -13.7240  -10.3170    7.6280 N.3   128  ASN128     -0.1240
     65  CA       -12.4120   -9.9150    8.1230 C.3   128  ASN128      0.1653
     66  C        -11.4200   -9.7000    6.9760 C.2   128  ASN128      0.2266
     67  O        -11.1390  -10.5850    6.2920 O.2   128  ASN128     -0.2867
     68  CB       -11.8910  -10.9830    9.0940 C.3   128  ASN128      0.1155
     69  CG       -10.5450  -10.6380    9.6940 C.2   128  ASN128      0.2627
     70  OD1      -10.1480   -9.5910    9.6080 O.2   128  ASN128     -0.2716
     71  ND2       -9.9390  -11.5720   10.3610 N.am  128  ASN128     -0.0877
     72  N         -8.1770   -9.0060    7.2040 N.3   130  SER130     -0.1202
     73  CA        -6.7950   -9.4230    7.6310 C.3   130  SER130      0.2020
     74  C         -6.4780  -10.9240    7.3700 C.2   130  SER130      0.2619
     75  O         -7.3550  -11.6760    7.3150 O.2   130  SER130     -0.2717
     76  CB        -6.6440   -9.1910    9.1290 C.3   130  SER130      0.2103
     77  OG        -6.7140   -7.8170    9.5000 O.3   130  SER130     -0.2182
     78  N         -5.2440  -11.3460    7.1570 N.am  131  CYS131     -0.1956
     79  CA        -4.7710  -12.4870    6.3330 C.3   131  CYS131      0.1828
     80  C         -3.5070  -13.0330    7.0420 C.2   131  CYS131      0.2467
     81  O         -2.6860  -12.2210    7.5600 O.2   131  CYS131     -0.2730
     82  CB        -4.3720  -12.0050    4.8510 C.3   131  CYS131      0.0996
     83  SG        -5.1300  -12.9620    3.5190 S.3   131  CYS131     -0.0797
     84  N         -3.2360  -14.3780    6.9950 N.am  132  PRO132     -0.2715
     85  CA        -1.7990  -14.7050    7.2700 C.3   132  PRO132      0.1536
     86  C         -0.8820  -14.0210    6.2330 C.2   132  PRO132      0.2598
     87  O         -1.3210  -13.7510    5.0920 O.2   132  PRO132     -0.2715
     88  CB        -1.7070  -16.2700    7.1340 C.3   132  PRO132      0.0310
     89  CG        -3.1010  -16.7580    7.4360 C.3   132  PRO132      0.0237
     90  CD        -4.0830  -15.6110    7.0190 C.3   132  PRO132      0.0939
     91  N          0.3630  -13.7450    6.6520 N.am  133  ASN133     -0.1973
     92  CA         1.3490  -13.1420    5.7430 C.3   133  ASN133      0.1688
     93  C          1.5700  -14.0200    4.5290 C.2   133  ASN133      0.2292
     94  O          1.8430  -15.2280    4.6870 O.2   133  ASN133     -0.2864
     95  CB         2.7330  -12.9540    6.4180 C.3   133  ASN133      0.1181
     96  CG         3.7210  -12.1930    5.5360 C.2   133  ASN133      0.2629
     97  OD1        3.4380  -11.0630    5.1510 O.2   133  ASN133     -0.2716
     98  ND2        4.8830  -12.7920    5.2250 N.am  133  ASN133     -0.0877
     99  N         -1.3100   -7.3870    3.6000 N.3   139  GLN139     -0.1245
    100  CA        -2.6330   -7.7970    3.9680 C.3   139  GLN139      0.1566
    101  C         -3.6080   -7.1090    3.0840 C.2   139  GLN139      0.2260
    102  O         -3.4090   -6.0040    2.7150 O.2   139  GLN139     -0.2867
    103  CB        -2.9830   -7.3100    5.3510 C.3   139  GLN139      0.0367
    104  CG        -1.9000   -7.5890    6.3210 C.3   139  GLN139      0.0905
    105  CD        -2.1450   -8.9580    6.7550 C.2   139  GLN139      0.2608
    106  OE1       -1.4640   -9.9600    6.3060 O.2   139  GLN139     -0.2717
    107  NE2       -3.1820   -9.0690    7.5620 N.am  139  GLN139     -0.0878
    108  N         -8.9900   -4.1780   14.1150 N.3   195  ASN195     -0.1225
    109  CA        -8.2250   -5.3780   14.4250 C.3   195  ASN195      0.1785
    110  C         -6.9310   -5.0080   15.1540 C.2   195  ASN195      0.2597
    111  O         -6.6770   -3.8290   15.4520 O.2   195  ASN195     -0.2718
    112  CB        -7.9970   -6.1220   13.0810 C.3   195  ASN195      0.1169
    113  CG        -7.9510   -7.6450   13.2480 C.2   195  ASN195      0.2627
    114  OD1       -7.3070   -8.1810   14.1420 O.2   195  ASN195     -0.2716
    115  ND2       -8.6920   -8.3610   12.4420 N.am  195  ASN195     -0.0877
    116  N         -6.1660   -6.0060   15.5080 N.am  196  SER196     -0.1952
    117  CA        -4.9470   -5.8220   16.2830 C.3   196  SER196      0.1924
    118  C         -3.9860   -4.9060   15.5160 C.2   196  SER196      0.2314
    119  O         -4.0000   -4.8320   14.2560 O.2   196  SER196     -0.2863
    120  CB        -4.4060   -7.2070   16.7290 C.3   196  SER196      0.2116
    121  OG        -4.2170   -8.0360   15.6880 O.3   196  SER196     -0.2180
    122  N         -0.7300   -4.5550   14.0130 N.3   198  GLY198     -0.1225
    123  CA         0.0080   -5.6660   13.4600 C.3   198  GLY198      0.1811
    124  C          1.4780   -5.7140   13.8190 C.2   198  GLY198      0.2280
    125  O          2.1730   -4.6950   13.9660 O.2   198  GLY198     -0.2866
    126  N          6.2360  -16.8870   14.1160 N.3   215  LYS215     -0.1245
    127  CA         6.7250  -15.6210   13.5480 C.3   215  LYS215      0.1561
    128  C          7.8460  -14.9540   14.3170 C.2   215  LYS215      0.2260
    129  O          7.9090  -13.7330   14.4090 O.2   215  LYS215     -0.2867
    130  CB         5.5320  -14.6410   13.3120 C.3   215  LYS215      0.0271
    131  CG         4.4530  -15.1430   12.3890 C.3   215  LYS215      0.0035
    132  CD         3.2740  -14.1210   12.2990 C.3   215  LYS215      0.0206
    133  CE         3.6180  -12.6480   12.1040 C.3   215  LYS215      0.1093
    134  NZ         2.3920  -11.9660   11.6930 N.3   215  LYS215     -0.1314
    135  N          0.0390   -9.6110   16.6370 N.3   220  GLY220     -0.1225
    136  CA        -0.8150   -8.4560   16.7380 C.3   220  GLY220      0.1811
    137  C         -1.0390   -8.0770   18.1760 C.2   220  GLY220      0.2280
    138  O         -1.2510   -8.9170   19.0620 O.2   220  GLY220     -0.2866
@<TRIPOS>BOND
     1   102   101    2
     2   101   100    1
     3    83    82    1
     4    99   100    1
     5   100   103    1
     6    93    94    2
     7    93    92    1
     8    82    79    1
     9    87    86    2
    10    97    96    2
    11    98    96   am
    12   103   104    1
    13    96    95    1
    14    92    95    1
    15    92    91    1
    16    60    61    2
    17    60    59    1
    18    86    91   am
    19    86    85    1
    20    67    66    2
    21   106   105    2
    22   104   105    1
    23    79    80    1
    24    79    78    1
    25   105   107   am
    26    59    58    1
    27    59    62    1
    28    66    65    1
    29    84    90    1
    30    84    80   am
    31    84    85    1
    32    90    89    1
    33    80    81    2
    34    88    85    1
    35    88    89    1
    36    78    74   am
    37    72    73    1
    38    75    74    2
    39    74    73    1
    40    64    65    1
    41    73    76    1
    42    63    62    1
    43    65    68    1
    44    57    55    1
    45    68    69    1
    46    76    77    1
    47    70    69    2
    48    69    71   am
    49    55    54    1
    50    55    56    1
    51    54    51    1
    52    12    13    2
    53    12    11    1
    54    14    15    1
    55    14    11    1
    56   134   133    1
    57    49    48    2
    58    53    52    2
    59    11    10    1
    60   133   132    1
    61   132   131    1
    62    51    52    1
    63    51    50    1
    64   131   130    1
    65   115   113   am
    66    48    50   am
    67    48    47    1
    68    22    21    2
    69    47    46    1
    70   112   113    1
    71   112   109    1
    72   113   114    2
    73     4     3    2
    74   130   127    1
    75    10     3   am
    76   123   124    1
    77   123   122    1
    78   127   126    1
    79   127   128    1
    80    21    23   am
    81    21    20    1
    82   124   125    2
    83     3     2    1
    84   108   109    1
    85    46    40   am
    86   119   118    2
    87   128   129    2
    88   109   110    1
    89    16    17    1
    90    37    36    1
    91    17    20    1
    92    17    18    1
    93     8     9    1
    94     8     7    1
    95   110   111    2
    96   110   116   am
    97    40    41    2
    98    40    39    1
    99     6     5    1
   100     6     7    2
   101     2     1    1
   102     2     5    1
   103   116   117    1
   104   118   117    1
   105   121   120    1
   106    36    33    1
   107    18    19    2
   108    35    34    2
   109   117   120    1
   110    34    33    1
   111    34    38   am
   112    33    32    1
   113    38    39    1
   114    39    42    1
   115   135   136    1
   116   136   137    1
   117    42    43    1
   118    27    26    2
   119    30    29    2
   120    32    26   am
   121    26    25    1
   122    43    44    1
   123   137   138    2
   124    29    31   am
   125    29    28    1
   126    25    28    1
   127    25    24    1
   128    44    45    1
