@<TRIPOS>MOLECULE
tmp/3w7iB01.pdb
 143 132 0 0 0
SMALL
GASTEIGER

@<TRIPOS>ATOM
      1  N        -15.7150  -16.7510   16.0500 N.3    44  LYS44      -0.1231
      2  CA       -14.3260  -16.7640   15.6250 C.3    44  LYS44       0.1693
      3  C        -14.2600  -16.6570   14.1420 C.2    44  LYS44       0.2592
      4  O        -15.0450  -17.3530   13.4840 O.2    44  LYS44      -0.2718
      5  CB       -13.7180  -18.1040   15.9990 C.3    44  LYS44       0.0285
      6  CG       -12.2760  -18.3160   15.5990 C.3    44  LYS44       0.0035
      7  CD       -11.2150  -17.3140   16.0360 C.3    44  LYS44       0.0206
      8  CE        -9.9400  -17.3710   15.2590 C.3    44  LYS44       0.1093
      9  NZ        -8.8920  -16.3770   15.6290 N.3    44  LYS44      -0.1314
     10  N        -13.3550  -15.8630   13.5930 N.am   45  SER45      -0.1952
     11  CA       -13.1920  -15.8030   12.1170 C.3    45  SER45       0.1924
     12  C        -12.9360  -17.2200   11.5780 C.2    45  SER45       0.2314
     13  O        -12.1050  -17.9090   12.1100 O.2    45  SER45      -0.2863
     14  CB       -12.0700  -14.9150   11.7270 C.3    45  SER45       0.2116
     15  OG       -12.4300  -13.5680   11.9960 O.3    45  SER45      -0.2180
     16  N         -9.0390  -25.3400   10.9990 N.3    51  ARG51      -0.1245
     17  CA        -7.6330  -25.1030   11.1960 C.3    51  ARG51       0.1563
     18  C         -7.2230  -25.2400   12.6700 C.2    51  ARG51       0.2260
     19  O         -7.8910  -24.8280   13.5220 O.2    51  ARG51      -0.2867
     20  CB        -7.2310  -23.6840   10.7620 C.3    51  ARG51       0.0307
     21  CG        -7.3480  -23.3620    9.2960 C.3    51  ARG51       0.0489
     22  CD        -7.1470  -21.8790    9.0910 C.3    51  ARG51       0.2205
     23  NE        -5.8800  -21.3340    9.5410 N.pl3  51  ARG51      -0.0865
     24  CZ        -4.8270  -21.2260    8.7690 C.cat  51  ARG51       0.5346
     25  NH1       -4.8970  -21.6330    7.5170 N.pl3  51  ARG51       0.1354
     26  NH2       -3.7270  -20.6940    9.2140 N.pl3  51  ARG51       0.1354
     27  N         -1.5040  -21.8430   14.6480 N.3    54  ASN54      -0.1240
     28  CA        -0.0820  -21.8000   14.9280 C.3    54  ASN54       0.1653
     29  C          0.3420  -22.5380   16.1760 C.2    54  ASN54       0.2266
     30  O         -0.4790  -22.8100   17.0250 O.2    54  ASN54      -0.2867
     31  CB         0.3820  -20.3490   15.0010 C.3    54  ASN54       0.1155
     32  CG         0.3340  -19.6570   13.6680 C.2    54  ASN54       0.2627
     33  OD1        0.2670  -20.2710   12.6590 O.2    54  ASN54      -0.2716
     34  ND2        0.3740  -18.3830   13.6880 N.am   54  ASN54      -0.0877
     35  N         -0.6990  -11.6300   20.0810 N.3    68  ASN68      -0.1225
     36  CA        -1.1580  -12.9650   19.5040 C.3    68  ASN68       0.1785
     37  C         -0.7080  -13.1940   18.1130 C.2    68  ASN68       0.2598
     38  O         -0.6920  -12.2990   17.2730 O.2    68  ASN68      -0.2718
     39  CB        -2.6740  -13.1320   19.6040 C.3    68  ASN68       0.1169
     40  CG        -3.4270  -12.6440   18.4380 C.2    68  ASN68       0.2627
     41  OD1       -3.5610  -13.3010   17.4240 O.2    68  ASN68      -0.2716
     42  ND2       -3.9270  -11.4300   18.5630 N.am   68  ASN68      -0.0877
     43  N         -0.4360  -14.4990   17.8270 N.am   69  SER69      -0.1938
     44  CA        -0.3470  -14.9640   16.4860 C.3    69  SER69       0.2055
     45  C         -1.0600  -16.2870   16.5050 C.2    69  SER69       0.2643
     46  O         -0.4310  -17.3350   16.2790 O.2    69  SER69      -0.2714
     47  CB         1.1240  -15.1540   16.1260 C.3    69  SER69       0.2130
     48  OG         1.2340  -15.5830   14.7580 O.3    69  SER69      -0.2179
     49  N         -2.3810  -16.2240   16.6510 N.am   70  MET70      -0.1962
     50  CA        -3.1650  -17.4360   16.7750 C.3    70  MET70       0.1736
     51  C         -3.0700  -18.2890   15.4870 C.2    70  MET70       0.2617
     52  O         -2.9720  -19.5250   15.5930 O.2    70  MET70      -0.2715
     53  CB        -4.5980  -17.1490   17.1080 C.3    70  MET70       0.0427
     54  CG        -4.9090  -16.2890   18.2990 C.3    70  MET70       0.0599
     55  SD        -4.2730  -17.0150   19.7980 S.3    70  MET70      -0.1393
     56  CE        -5.2680  -18.3790   20.0280 C.3    70  MET70       0.0692
     57  N         -3.0770  -17.6720   14.3520 N.am   71  GLY71      -0.1940
     58  CA        -3.0870  -18.3870   13.0550 C.3    71  GLY71       0.2014
     59  C         -4.4380  -18.8930   12.6310 C.2    71  GLY71       0.2638
     60  O         -4.5180  -19.9280   11.9380 O.2    71  GLY71      -0.2714
     61  N         -5.5200  -18.2290   13.0210 N.am   72  LEU72      -0.1977
     62  CA        -6.8390  -18.5700   12.5840 C.3    72  LEU72       0.1596
     63  C         -7.2410  -20.0190   12.8920 C.2    72  LEU72       0.2287
     64  O         -7.8840  -20.6880   12.0540 O.2    72  LEU72      -0.2864
     65  CB        -6.9040  -18.1800   11.0970 C.3    72  LEU72       0.0297
     66  CG        -8.1000  -17.7440   10.3390 C.3    72  LEU72       0.0022
     67  CD1       -9.0940  -16.8400   11.0740 C.3    72  LEU72       0.0001
     68  CD2       -7.6060  -17.2030    8.9670 C.3    72  LEU72       0.0001
     69  N         -8.9440  -17.2490    3.0370 N.3   102  LEU102     -0.1245
     70  CA        -7.5680  -16.9680    2.6600 C.3   102  LEU102      0.1561
     71  C         -7.4860  -16.4710    1.1810 C.2   102  LEU102      0.2260
     72  O         -6.4230  -16.0740    0.7540 O.2   102  LEU102     -0.2867
     73  CB        -6.7430  -18.2150    2.8360 C.3   102  LEU102      0.0270
     74  CG        -6.7630  -18.8250    4.2600 C.3   102  LEU102      0.0019
     75  CD1       -5.9390  -20.1100    4.3460 C.3   102  LEU102      0.0001
     76  CD2       -6.2400  -17.8050    5.2020 C.3   102  LEU102      0.0001
     77  N        -13.8190  -10.2750    7.6440 N.3   128  ASN128     -0.1240
     78  CA       -12.5500   -9.8550    8.1980 C.3   128  ASN128      0.1653
     79  C        -11.5960   -9.5120    7.0740 C.2   128  ASN128      0.2266
     80  O        -11.1730  -10.3780    6.4120 O.2   128  ASN128     -0.2867
     81  CB       -11.9360  -10.9980    8.9930 C.3   128  ASN128      0.1155
     82  CG       -10.6940  -10.6050    9.7740 C.2   128  ASN128      0.2627
     83  OD1      -10.1910   -9.5580    9.6560 O.2   128  ASN128     -0.2716
     84  ND2      -10.2140  -11.5280   10.5640 N.am  128  ASN128     -0.0877
     85  N         -8.7050   -8.1500    7.5730 N.3   130  SER130     -0.1202
     86  CA        -7.4590   -7.9290    8.2420 C.3   130  SER130      0.2020
     87  C         -6.5750   -9.1530    8.1660 C.2   130  SER130      0.2619
     88  O         -5.5660   -9.1830    8.7820 O.2   130  SER130     -0.2717
     89  CB        -7.6520   -7.4760    9.7170 C.3   130  SER130      0.2103
     90  OG        -8.9290   -6.8300   10.0090 O.3   130  SER130     -0.2182
     91  N         -6.9990  -10.1390    7.4070 N.am  131  CYS131     -0.1956
     92  CA        -6.4580  -11.4530    7.3540 C.3   131  CYS131      0.1828
     93  C         -5.2290  -11.4870    6.4690 C.2   131  CYS131      0.2464
     94  O         -5.2580  -10.8490    5.4150 O.2   131  CYS131     -0.2730
     95  CB        -7.5640  -12.3700    6.7610 C.3   131  CYS131      0.0996
     96  SG        -7.3890  -14.1690    6.7560 S.3   131  CYS131     -0.0797
     97  N         -4.1900  -12.3920    6.8390 N.am  132  PRO132     -0.2772
     98  CA        -2.8220  -11.8680    7.0150 C.3   132  PRO132      0.1083
     99  C         -1.7880  -11.6880    5.8850 C.3   132  PRO132      0.2017
    100  O         -1.1810  -10.6270    5.9260 O.3   132  PRO132     -0.2186
    101  CB        -2.1950  -12.9290    7.8440 C.3   132  PRO132      0.0243
    102  CG        -2.5670  -14.1510    7.0960 C.3   132  PRO132      0.0233
    103  CD        -4.0230  -13.9350    6.9440 C.3   132  PRO132      0.0935
    104  N         -1.3940   -7.2610    3.6460 N.3   139  GLN139     -0.1245
    105  CA        -2.6940   -7.8170    3.9650 C.3   139  GLN139      0.1566
    106  C         -3.7130   -7.0430    3.1480 C.2   139  GLN139      0.2260
    107  O         -3.3860   -6.0180    2.6510 O.2   139  GLN139     -0.2867
    108  CB        -3.0240   -7.7680    5.4560 C.3   139  GLN139      0.0367
    109  CG        -3.4180   -6.4090    5.9750 C.3   139  GLN139      0.0905
    110  CD        -3.9210   -6.4340    7.4120 C.2   139  GLN139      0.2608
    111  OE1       -3.1810   -6.6680    8.3180 O.2   139  GLN139     -0.2717
    112  NE2       -5.2000   -6.1800    7.5980 N.am  139  GLN139     -0.0878
    113  N         -9.0070   -4.1260   14.2100 N.3   195  ASN195     -0.1225
    114  CA        -8.2440   -5.3370   14.4890 C.3   195  ASN195      0.1785
    115  C         -6.9720   -4.9970   15.2650 C.2   195  ASN195      0.2597
    116  O         -6.6530   -3.8350   15.5280 O.2   195  ASN195     -0.2718
    117  CB        -7.9580   -6.1010   13.1780 C.3   195  ASN195      0.1169
    118  CG        -7.9910   -7.5900   13.3640 C.2   195  ASN195      0.2627
    119  OD1       -7.2940   -8.1100   14.1790 O.2   195  ASN195     -0.2716
    120  ND2       -8.8000   -8.2800   12.5770 N.am  195  ASN195     -0.0877
    121  N         -6.2830   -5.9880   15.6830 N.am  196  SER196     -0.1952
    122  CA        -5.0030   -5.7750   16.3880 C.3   196  SER196      0.1924
    123  C         -4.0220   -4.9430   15.6050 C.2   196  SER196      0.2314
    124  O         -4.0220   -4.9360   14.3870 O.2   196  SER196     -0.2863
    125  CB        -4.4740   -7.1660   16.8520 C.3   196  SER196      0.2116
    126  OG        -4.2750   -7.9820   15.8050 O.3   196  SER196     -0.2180
    127  N         -0.7330   -4.5530   14.0240 N.3   198  GLY198     -0.1225
    128  CA         0.0170   -5.6690   13.4780 C.3   198  GLY198      0.1811
    129  C          1.4850   -5.7010   13.8680 C.2   198  GLY198      0.2280
    130  O          2.1820   -4.6620   14.0030 O.2   198  GLY198     -0.2866
    131  N          6.2520  -16.9060   14.1590 N.3   215  LYS215     -0.1245
    132  CA         6.7300  -15.6570   13.5710 C.3   215  LYS215      0.1561
    133  C          7.8560  -14.9630   14.3090 C.2   215  LYS215      0.2260
    134  O          7.8830  -13.7510   14.3790 O.2   215  LYS215     -0.2867
    135  CB         5.5350  -14.7230   13.2880 C.3   215  LYS215      0.0271
    136  CG         4.5150  -15.2660   12.3270 C.3   215  LYS215      0.0035
    137  CD         3.4610  -14.2160   11.8690 C.3   215  LYS215      0.0206
    138  CE         3.9080  -12.7010   11.8220 C.3   215  LYS215      0.1093
    139  NZ         2.7220  -11.9450   11.6250 N.3   215  LYS215     -0.1314
    140  N          0.0130   -9.5910   16.6270 N.3   220  GLY220     -0.1225
    141  CA        -0.9000   -8.4460   16.7660 C.3   220  GLY220      0.1811
    142  C         -1.0900   -8.0600   18.2190 C.2   220  GLY220      0.2280
    143  O         -1.2210   -8.8740   19.1230 O.2   220  GLY220     -0.2866
@<TRIPOS>BOND
     1    72    71    2
     2    71    70    1
     3   107   106    2
     4    70    73    1
     5    70    69    1
     6    73    74    1
     7   106   105    1
     8   104   105    1
     9   105   108    1
    10    74    75    1
    11    74    76    1
    12    94    93    2
    13   108   109    1
    14    99   100    1
    15    99    98    1
    16   109   110    1
    17    80    79    2
    18    93    97   am
    19    93    92    1
    20    96    95    1
    21    95    92    1
    22    97   103    1
    23    97    98    1
    24   103   102    1
    25    98   101    1
    26    79    78    1
    27   102   101    1
    28    92    91    1
    29    91    87   am
    30   110   112   am
    31   110   111    2
    32    25    24    1
    33    85    86    1
    34    77    78    1
    35    87    86    1
    36    87    88    2
    37    78    81    1
    38    86    89    1
    39    24    26    1
    40    24    23    2
    41    68    66    1
    42    81    82    1
    43    22    21    1
    44    22    23    1
    45    21    20    1
    46    83    82    2
    47    89    90    1
    48    82    84   am
    49    66    67    1
    50    66    65    1
    51    20    17    1
    52    16    17    1
    53    65    62    1
    54    17    18    1
    55    12    13    2
    56    12    11    1
    57   139   138    1
    58    14    15    1
    59    14    11    1
    60   138   137    1
    61   137   136    1
    62    60    59    2
    63    64    63    2
    64    11    10    1
    65   136   135    1
    66   120   118   am
    67    62    63    1
    68    62    61    1
    69    59    61   am
    70    59    58    1
    71    33    32    2
    72    18    19    2
    73    58    57    1
    74   117   118    1
    75   117   114    1
    76   135   132    1
    77   118   119    2
    78   128   129    1
    79   128   127    1
    80     4     3    2
    81   132   131    1
    82   132   133    1
    83    10     3   am
    84    32    34   am
    85    32    31    1
    86   129   130    2
    87     3     2    1
    88   113   114    1
    89   133   134    2
    90    57    51   am
    91   124   123    2
    92   114   115    1
    93    27    28    1
    94    48    47    1
    95    28    31    1
    96    28    29    1
    97     8     9    1
    98     8     7    1
    99   115   116    2
   100   115   121   am
   101    51    52    2
   102    51    50    1
   103     6     5    1
   104     6     7    1
   105   123   122    1
   106     2     5    1
   107     2     1    1
   108   121   122    1
   109   126   125    1
   110    47    44    1
   111    29    30    2
   112    46    45    2
   113   122   125    1
   114    44    45    1
   115    44    43    1
   116    45    49   am
   117   140   141    1
   118    49    50    1
   119   141   142    1
   120    50    53    1
   121    53    54    1
   122    38    37    2
   123    41    40    2
   124    43    37   am
   125    37    36    1
   126   142   143    2
   127    54    55    1
   128    40    42   am
   129    40    39    1
   130    36    39    1
   131    36    35    1
   132    55    56    1
