@<TRIPOS>MOLECULE
tmp/3w7jB00.pdb
 150 139 0 0 0
SMALL
GASTEIGER

@<TRIPOS>ATOM
      1  N         14.1300  -10.4630  -17.7260 N.3    20  ALA20      -0.1245
      2  CA        13.9530  -11.7470  -17.0900 C.3    20  ALA20       0.1562
      3  C         12.6540  -12.3680  -17.4880 C.2    20  ALA20       0.2260
      4  O         11.6140  -11.7120  -17.6610 O.2    20  ALA20      -0.2867
      5  CB        14.0280  -11.6350  -15.5810 C.3    20  ALA20       0.0290
      6  N         15.7710  -16.7650  -15.9790 N.3    44  LYS44      -0.1231
      7  CA        14.3730  -16.7530  -15.5560 C.3    44  LYS44       0.1696
      8  C         14.3010  -16.6730  -14.0430 C.2    44  LYS44       0.2592
      9  O         15.0580  -17.3850  -13.3610 O.2    44  LYS44      -0.2718
     10  CB        13.7340  -18.0850  -15.9640 C.3    44  LYS44       0.0331
     11  CG        12.3510  -18.3100  -15.4230 C.3    44  LYS44       0.0295
     12  CD        11.1680  -17.3900  -15.9310 C.2    44  LYS44      -0.0067
     13  CE         9.9180  -17.3530  -15.1200 C.2    44  LYS44       0.1012
     14  NZ         8.7890  -16.4050  -15.5920 N.pl3  44  LYS44      -0.1270
     15  N         13.4170  -15.8760  -13.5060 N.am   45  SER45      -0.1952
     16  CA        13.2870  -15.8240  -12.0420 C.3    45  SER45       0.1924
     17  C         13.0380  -17.2300  -11.5540 C.2    45  SER45       0.2314
     18  O         12.1540  -17.9290  -12.0810 O.2    45  SER45      -0.2863
     19  CB        12.1260  -14.9730  -11.6130 C.3    45  SER45       0.2116
     20  OG        12.3880  -13.5880  -11.9270 O.3    45  SER45      -0.2180
     21  N          9.0280  -25.3390  -10.8510 N.3    51  ARG51      -0.1245
     22  CA         7.5940  -25.0700  -10.9540 C.3    51  ARG51       0.1563
     23  C          7.1540  -25.2440  -12.4370 C.2    51  ARG51       0.2260
     24  O          7.8570  -24.8440  -13.3420 O.2    51  ARG51      -0.2867
     25  CB         7.2490  -23.6220  -10.5710 C.3    51  ARG51       0.0307
     26  CG         7.4390  -23.2330   -9.1620 C.3    51  ARG51       0.0489
     27  CD         7.2270  -21.7390   -8.9590 C.3    51  ARG51       0.2205
     28  NE         5.9510  -21.2600   -9.3590 N.pl3  51  ARG51      -0.0865
     29  CZ         4.8680  -21.2140   -8.5910 C.cat  51  ARG51       0.5346
     30  NH1        4.8950  -21.6560   -7.3290 N.pl3  51  ARG51       0.1354
     31  NH2        3.7980  -20.6290   -9.0370 N.pl3  51  ARG51       0.1354
     32  N          1.4970  -21.8490  -14.6440 N.3    54  ASN54      -0.1240
     33  CA         0.0690  -21.8960  -14.8690 C.3    54  ASN54       0.1653
     34  C         -0.3040  -22.5930  -16.1430 C.2    54  ASN54       0.2266
     35  O          0.5600  -22.8410  -17.0000 O.2    54  ASN54      -0.2867
     36  CB        -0.4600  -20.4300  -14.9340 C.3    54  ASN54       0.1155
     37  CG        -0.4150  -19.7610  -13.6560 C.2    54  ASN54       0.2627
     38  OD1       -0.4560  -20.4020  -12.5850 O.2    54  ASN54      -0.2716
     39  ND2       -0.4680  -18.4360  -13.6880 N.am   54  ASN54      -0.0877
     40  N          0.7120  -11.6620  -19.9870 N.3    68  ASN68      -0.1225
     41  CA         1.2100  -12.9880  -19.5260 C.3    68  ASN68       0.1785
     42  C          0.7750  -13.2240  -18.1080 C.2    68  ASN68       0.2598
     43  O          0.7590  -12.3290  -17.2820 O.2    68  ASN68      -0.2718
     44  CB         2.7090  -13.1320  -19.6160 C.3    68  ASN68       0.1169
     45  CG         3.4250  -12.6180  -18.4350 C.2    68  ASN68       0.2627
     46  OD1        3.6240  -13.3100  -17.4230 O.2    68  ASN68      -0.2716
     47  ND2        3.9640  -11.3980  -18.5720 N.am   68  ASN68      -0.0877
     48  N          0.4150  -14.4920  -17.8270 N.am   69  SER69      -0.1938
     49  CA         0.2780  -14.9750  -16.4540 C.3    69  SER69       0.2055
     50  C          1.0570  -16.2820  -16.4410 C.2    69  SER69       0.2643
     51  O          0.4110  -17.3400  -16.2870 O.2    69  SER69      -0.2714
     52  CB        -1.1730  -15.1700  -16.1250 C.3    69  SER69       0.2130
     53  OG        -1.2370  -15.6170  -14.7720 O.3    69  SER69      -0.2179
     54  N          2.3820  -16.1980  -16.5840 N.am   70  MET70      -0.1962
     55  CA         3.1290  -17.4270  -16.7050 C.3    70  MET70       0.1736
     56  C          3.0080  -18.2540  -15.4260 C.2    70  MET70       0.2617
     57  O          3.0310  -19.5010  -15.5140 O.2    70  MET70      -0.2715
     58  CB         4.5630  -17.1840  -16.9900 C.3    70  MET70       0.0427
     59  CG         4.9310  -16.4060  -18.2710 C.3    70  MET70       0.0599
     60  SD         4.1870  -17.0510  -19.7410 S.3    70  MET70      -0.1393
     61  CE         5.2340  -18.3820  -20.0110 C.3    70  MET70       0.0692
     62  N          2.9710  -17.6470  -14.2960 N.am   71  GLY71      -0.1940
     63  CA         2.9610  -18.3790  -12.9900 C.3    71  GLY71       0.2014
     64  C          4.3280  -18.8480  -12.5330 C.2    71  GLY71       0.2638
     65  O          4.4230  -19.8870  -11.8520 O.2    71  GLY71      -0.2714
     66  N          5.3930  -18.1600  -12.8700 N.am   72  LEU72      -0.1977
     67  CA         6.7310  -18.5080  -12.4680 C.3    72  LEU72       0.1596
     68  C          7.1540  -19.9700  -12.7810 C.2    72  LEU72       0.2287
     69  O          7.7950  -20.6240  -11.9480 O.2    72  LEU72      -0.2864
     70  CB         6.9170  -18.0930  -10.9740 C.3    72  LEU72       0.0297
     71  CG         8.2180  -17.9590  -10.2560 C.3    72  LEU72       0.0022
     72  CD1        9.1810  -17.1040  -11.0680 C.3    72  LEU72       0.0001
     73  CD2        7.9710  -17.4010   -8.8570 C.3    72  LEU72       0.0001
     74  N         13.1650  -15.2070   -7.3460 N.3   100  SER100     -0.1217
     75  CA        11.8480  -14.7730   -6.9930 C.3   100  SER100      0.1889
     76  C         11.1850  -15.7830   -6.0640 C.2   100  SER100      0.2288
     77  O         10.2490  -16.3860   -6.3960 O.2   100  SER100     -0.2866
     78  CB        11.0120  -14.5810   -8.2570 C.3   100  SER100      0.2089
     79  OG         9.8210  -14.0900   -7.9740 O.3   100  SER100     -0.2183
     80  N         13.7570  -10.2630   -7.6830 N.3   128  ASN128     -0.1240
     81  CA        12.4220   -9.8370   -8.1680 C.3   128  ASN128      0.1653
     82  C         11.4540   -9.5790   -7.0090 C.2   128  ASN128      0.2266
     83  O         11.0780  -10.5460   -6.3520 O.2   128  ASN128     -0.2867
     84  CB        11.9090  -10.9070   -9.1060 C.3   128  ASN128      0.1155
     85  CG        10.5890  -10.5990   -9.7370 C.2   128  ASN128      0.2627
     86  OD1       10.0530   -9.5380   -9.6160 O.2   128  ASN128     -0.2716
     87  ND2       10.0990  -11.5540  -10.5560 N.am  128  ASN128     -0.0877
     88  N          8.3140   -8.6470   -7.3700 N.3   130  SER130     -0.1202
     89  CA         6.9370   -9.2330   -7.6780 C.3   130  SER130      0.2020
     90  C          6.7120  -10.7520   -7.3170 C.2   130  SER130      0.2619
     91  O          7.6850  -11.5390   -7.1320 O.2   130  SER130     -0.2717
     92  CB         6.6670   -8.9640   -9.1550 C.3   130  SER130      0.2103
     93  OG         6.9390   -7.5420   -9.4800 O.3   130  SER130     -0.2182
     94  N          5.4710  -11.1950   -7.2230 N.am  131  CYS131     -0.1956
     95  CA         5.1110  -12.4610   -6.5610 C.3   131  CYS131      0.1828
     96  C          3.6690  -12.9270   -6.9680 C.2   131  CYS131      0.2467
     97  O          2.8260  -12.0780   -7.3670 O.2   131  CYS131     -0.2730
     98  CB         5.2220  -12.2580   -5.0220 C.3   131  CYS131      0.0996
     99  SG         5.1510  -10.4940   -4.4870 S.3   131  CYS131     -0.0797
    100  N          3.3450  -14.2450   -6.8330 N.am  132  PRO132     -0.2715
    101  CA         1.9460  -14.7370   -7.0480 C.3   132  PRO132      0.1536
    102  C          0.9880  -14.0020   -6.1380 C.2   132  PRO132      0.2598
    103  O          1.4050  -13.6450   -5.0030 O.2   132  PRO132     -0.2715
    104  CB         1.9570  -16.2040   -6.5500 C.3   132  PRO132      0.0310
    105  CG         3.2400  -16.3780   -5.7880 C.3   132  PRO132      0.0237
    106  CD         4.2060  -15.2780   -6.2080 C.3   132  PRO132      0.0939
    107  N         -0.2630  -13.7950   -6.5960 N.am  133  ASN133     -0.1973
    108  CA        -1.2850  -13.1640   -5.7380 C.3   133  ASN133      0.1688
    109  C         -1.4980  -14.0420   -4.5120 C.2   133  ASN133      0.2292
    110  O         -1.5300  -15.2860   -4.6390 O.2   133  ASN133     -0.2864
    111  CB        -2.6520  -13.0110   -6.4380 C.3   133  ASN133      0.1181
    112  CG        -3.6580  -12.2800   -5.5660 C.2   133  ASN133      0.2629
    113  OD1       -3.3780  -11.1660   -5.1290 O.2   133  ASN133     -0.2716
    114  ND2       -4.7950  -12.9080   -5.2540 N.am  133  ASN133     -0.0877
    115  N         14.4460   -5.8940   -9.1140 N.3   165  LYS165     -0.1245
    116  CA        13.4410   -5.7430  -10.1750 C.3   165  LYS165      0.1561
    117  C         12.1230   -5.2130   -9.5440 C.2   165  LYS165      0.2260
    118  O         11.4950   -5.8420   -8.7000 O.2   165  LYS165     -0.2867
    119  CB        13.2340   -7.0590  -10.8610 C.3   165  LYS165      0.0271
    120  CG        12.2360   -7.0200  -12.0590 C.3   165  LYS165      0.0035
    121  CD        12.7550   -6.2820  -13.2550 C.3   165  LYS165      0.0206
    122  CE        11.8340   -6.4450  -14.4980 C.3   165  LYS165      0.1093
    123  NZ        11.8690   -7.8460  -15.0030 N.3   165  LYS165     -0.1314
    124  N          8.9970   -4.1320  -14.1680 N.3   195  ASN195     -0.1225
    125  CA         8.2690   -5.3600  -14.4820 C.3   195  ASN195      0.1785
    126  C          6.9970   -5.0330  -15.2660 C.2   195  ASN195      0.2597
    127  O          6.6640   -3.8500  -15.5000 O.2   195  ASN195     -0.2718
    128  CB         8.0090   -6.1000  -13.1840 C.3   195  ASN195      0.1169
    129  CG         8.0150   -7.6260  -13.3730 C.2   195  ASN195      0.2627
    130  OD1        7.3330   -8.1650  -14.2510 O.2   195  ASN195     -0.2716
    131  ND2        8.6880   -8.3310  -12.4850 N.am  195  ASN195     -0.0877
    132  N          6.2500   -6.0310  -15.6720 N.am  196  SER196     -0.1952
    133  CA         5.0230   -5.8160  -16.3880 C.3   196  SER196      0.1924
    134  C          4.0090   -4.9790  -15.6140 C.2   196  SER196      0.2314
    135  O          4.0210   -4.9420  -14.3640 O.2   196  SER196     -0.2863
    136  CB         4.4720   -7.1820  -16.8990 C.3   196  SER196      0.2116
    137  OG         4.3110   -8.0200  -15.8470 O.3   196  SER196     -0.2180
    138  N         -6.2370  -16.8350  -14.1590 N.3   215  LYS215     -0.1245
    139  CA        -6.6430  -15.5730  -13.5510 C.3   215  LYS215      0.1561
    140  C         -7.7800  -14.9340  -14.3320 C.2   215  LYS215      0.2260
    141  O         -7.8690  -13.7120  -14.4410 O.2   215  LYS215     -0.2867
    142  CB        -5.4460  -14.6350  -13.3990 C.3   215  LYS215      0.0271
    143  CG        -4.3920  -15.0460  -12.4380 C.3   215  LYS215      0.0035
    144  CD        -3.2430  -14.0460  -12.4200 C.3   215  LYS215      0.0206
    145  CE        -3.5250  -12.5200  -12.5680 C.3   215  LYS215      0.1093
    146  NZ        -4.0580  -11.8950  -11.3750 N.3   215  LYS215     -0.1314
    147  N          0.0120   -9.6280  -16.6780 N.3   220  GLY220     -0.1225
    148  CA         0.9320   -8.4960  -16.7560 C.3   220  GLY220      0.1811
    149  C          1.1110   -8.0790  -18.2030 C.2   220  GLY220      0.2280
    150  O          1.2700   -8.8760  -19.1160 O.2   220  GLY220     -0.2866
@<TRIPOS>BOND
     1    61    60    1
     2    40    41    1
     3    60    59    1
     4    44    41    1
     5    44    45    1
     6    41    42    1
     7   150   149    2
     8    47    45   am
     9    45    46    2
    10    59    58    1
    11   149   148    1
    12    42    48   am
    13    42    43    2
    14    48    49    1
    15     1     2    1
    16     4     3    2
    17     3     2    1
    18     2     5    1
    19    35    34    2
    20    58    55    1
    21   136   133    1
    22   136   137    1
    23   148   147    1
    24    55    54    1
    25    55    56    1
    26    54    50   am
    27    49    50    1
    28    49    52    1
    29    50    51    2
    30   133   132    1
    31   133   134    1
    32    34    33    1
    33    52    53    1
    34     6     7    1
    35    10     7    1
    36    10    11    1
    37    12    11    1
    38    12    13    2
    39   132   126   am
    40   134   135    2
    41    14    13    1
    42     7     8    1
    43    57    56    2
    44   127   126    2
    45    56    62   am
    46   126   125    1
    47   123   122    1
    48    36    33    1
    49    36    37    1
    50    33    32    1
    51   122   121    1
    52   125   124    1
    53   125   128    1
    54   141   140    2
    55   140   139    1
    56    62    63    1
    57   130   129    2
    58   138   139    1
    59     8    15   am
    60     8     9    2
    61    39    37   am
    62    37    38    2
    63   139   142    1
    64    15    16    1
    65   142   143    1
    66   129   128    1
    67   129   131   am
    68    24    23    2
    69   121   120    1
    70    63    64    1
    71    66    64   am
    72    66    67    1
    73    68    67    1
    74    68    69    2
    75   145   144    1
    76   145   146    1
    77    64    65    2
    78    67    70    1
    79   143   144    1
    80    23    22    1
    81    18    17    2
    82   120   119    1
    83    16    19    1
    84    16    17    1
    85    20    19    1
    86    72    71    1
    87    70    71    1
    88    22    21    1
    89    22    25    1
    90   119   116    1
    91    25    26    1
    92    87    85   am
    93    71    73    1
    94   116   117    1
    95   116   115    1
    96    85    86    2
    97    85    84    1
    98   117   118    2
    99    93    92    1
   100    28    27    1
   101    28    29    2
   102    26    27    1
   103    92    89    1
   104    84    81    1
   105    31    29    1
   106    29    30    1
   107    78    79    1
   108    78    75    1
   109    81    80    1
   110    81    82    1
   111    89    88    1
   112    89    90    1
   113    97    96    2
   114    74    75    1
   115    90    94   am
   116    90    91    2
   117    94    95    1
   118   101   100    1
   119   101   104    1
   120   101   102    1
   121    82    83    2
   122    75    76    1
   123    96   100   am
   124    96    95    1
   125   100   106    1
   126   107   102   am
   127   107   108    1
   128    95    98    1
   129   104   105    1
   130   111   108    1
   131   111   112    1
   132    77    76    2
   133   106   105    1
   134   102   103    2
   135   108   109    1
   136   112   114   am
   137   112   113    2
   138    98    99    1
   139   110   109    2
