@<TRIPOS>MOLECULE
tmp/3w7mB00.pdb
 156 146 0 0 0
SMALL
GASTEIGER

@<TRIPOS>ATOM
      1  N         48.3800  -10.6890  -17.8280 N.3    20  ALA20      -0.1245
      2  CA        48.1710  -11.9140  -17.0980 C.3    20  ALA20       0.1562
      3  C         46.7550  -12.4030  -17.4590 C.2    20  ALA20       0.2260
      4  O         45.8090  -11.6080  -17.6020 O.2    20  ALA20      -0.2867
      5  CB        48.3450  -11.6880  -15.6130 C.3    20  ALA20       0.0290
      6  N         50.0150  -17.0780  -16.1870 N.3    44  LYS44      -0.1231
      7  CA        48.6280  -17.0530  -15.6980 C.3    44  LYS44       0.1693
      8  C         48.5910  -16.9130  -14.1590 C.2    44  LYS44       0.2592
      9  O         49.4070  -17.5260  -13.4570 O.2    44  LYS44      -0.2718
     10  CB        47.9170  -18.3370  -16.1160 C.3    44  LYS44       0.0285
     11  CG        46.5770  -18.5620  -15.4510 C.3    44  LYS44       0.0035
     12  CD        45.4810  -17.7170  -16.0420 C.3    44  LYS44       0.0206
     13  CE        44.3330  -17.6170  -15.0570 C.3    44  LYS44       0.1093
     14  NZ        43.1810  -16.7980  -15.5310 N.3    44  LYS44      -0.1314
     15  N         47.6580  -16.1120  -13.6360 N.am   45  SER45      -0.1952
     16  CA        47.5070  -15.9760  -12.1710 C.3    45  SER45       0.1924
     17  C         47.2690  -17.3780  -11.6230 C.2    45  SER45       0.2314
     18  O         46.4300  -18.0920  -12.1390 O.2    45  SER45      -0.2863
     19  CB        46.3130  -15.0830  -11.7650 C.3    45  SER45       0.2116
     20  OG        46.5720  -13.7160  -11.9280 O.3    45  SER45      -0.2180
     21  N         43.1920  -25.7620  -10.8880 N.3    51  ARG51      -0.1245
     22  CA        41.7700  -25.4450  -10.9380 C.3    51  ARG51       0.1563
     23  C         41.3210  -25.5590  -12.3930 C.2    51  ARG51       0.2260
     24  O         41.9780  -25.0370  -13.2700 O.2    51  ARG51      -0.2867
     25  CB        41.4800  -23.9970  -10.5320 C.3    51  ARG51       0.0307
     26  CG        41.6600  -23.6280   -9.0860 C.3    51  ARG51       0.0489
     27  CD        41.6340  -22.1030   -8.9090 C.3    51  ARG51       0.2205
     28  NE        40.3690  -21.5470   -9.3720 N.pl3  51  ARG51      -0.0865
     29  CZ        39.2220  -21.6440   -8.7000 C.cat  51  ARG51       0.5346
     30  NH1       39.1890  -22.2580   -7.5160 N.pl3  51  ARG51       0.1354
     31  NH2       38.1070  -21.1180   -9.1890 N.pl3  51  ARG51       0.1354
     32  N         35.6260  -21.9510  -14.4690 N.3    54  ASN54      -0.1240
     33  CA        34.2030  -21.9870  -14.6960 C.3    54  ASN54       0.1653
     34  C         33.8450  -22.7550  -15.9640 C.2    54  ASN54       0.2266
     35  O         34.7010  -22.9300  -16.8300 O.2    54  ASN54      -0.2867
     36  CB        33.6820  -20.5430  -14.7940 C.3    54  ASN54       0.1155
     37  CG        33.7700  -19.7980  -13.4710 C.2    54  ASN54       0.2627
     38  OD1       33.8290  -20.4110  -12.3980 O.2    54  ASN54      -0.2716
     39  ND2       33.7820  -18.4600  -13.5460 N.am   54  ASN54      -0.0877
     40  N         34.8710  -11.7800  -20.0410 N.3    68  ASN68      -0.1225
     41  CA        35.3320  -13.0430  -19.5100 C.3    68  ASN68       0.1785
     42  C         34.9600  -13.2650  -18.0860 C.2    68  ASN68       0.2598
     43  O         34.8940  -12.3360  -17.2780 O.2    68  ASN68      -0.2718
     44  CB        36.8600  -13.1710  -19.6320 C.3    68  ASN68       0.1169
     45  CG        37.5840  -12.6960  -18.3920 C.2    68  ASN68       0.2627
     46  OD1       37.6530  -13.3900  -17.3950 O.2    68  ASN68      -0.2716
     47  ND2       38.1500  -11.5270  -18.4640 N.am   68  ASN68      -0.0877
     48  N         34.7840  -14.5470  -17.7950 N.am   69  SER69      -0.1938
     49  CA        34.6320  -15.0440  -16.4550 C.3    69  SER69       0.2055
     50  C         35.2180  -16.4410  -16.4710 C.2    69  SER69       0.2643
     51  O         34.5000  -17.4480  -16.4620 O.2    69  SER69      -0.2714
     52  CB        33.1640  -15.0620  -16.0610 C.3    69  SER69       0.2130
     53  OG        33.0160  -15.7200  -14.8160 O.3    69  SER69      -0.2179
     54  N         36.5450  -16.4810  -16.5010 N.am   70  MET70      -0.1962
     55  CA        37.2790  -17.7230  -16.6420 C.3    70  MET70       0.1736
     56  C         37.2420  -18.5590  -15.3550 C.2    70  MET70       0.2617
     57  O         37.2910  -19.7890  -15.4130 O.2    70  MET70      -0.2715
     58  CB        38.7370  -17.4460  -16.9820 C.3    70  MET70       0.0427
     59  CG        38.9730  -16.4730  -18.1180 C.3    70  MET70       0.0599
     60  SD        38.3560  -17.0960  -19.6730 S.3    70  MET70      -0.1393
     61  CE        39.5080  -18.4230  -20.0330 C.3    70  MET70       0.0692
     62  N         37.2350  -17.8870  -14.2040 N.am   71  GLY71      -0.1940
     63  CA        37.2500  -18.5690  -12.9120 C.3    71  GLY71       0.2014
     64  C         38.5880  -19.1340  -12.5000 C.2    71  GLY71       0.2638
     65  O         38.6380  -20.1120  -11.7610 O.2    71  GLY71      -0.2714
     66  N         39.6710  -18.5270  -13.0060 N.am   72  LEU72      -0.1977
     67  CA        41.0520  -18.7940  -12.5710 C.3    72  LEU72       0.1596
     68  C         41.5110  -20.2570  -12.7880 C.2    72  LEU72       0.2287
     69  O         42.1550  -20.8810  -11.9080 O.2    72  LEU72      -0.2864
     70  CB        41.2010  -18.3330  -11.1320 C.3    72  LEU72       0.0297
     71  CG        42.5680  -18.0530  -10.5150 C.3    72  LEU72       0.0022
     72  CD1       43.4640  -17.0650  -11.2620 C.3    72  LEU72       0.0001
     73  CD2       42.2950  -17.5590   -9.0930 C.3    72  LEU72       0.0001
     74  N         47.4160  -15.3760   -7.5630 N.3   100  SER100     -0.1217
     75  CA        46.1210  -14.9170   -7.1400 C.3   100  SER100      0.1889
     76  C         45.3800  -15.9530   -6.2780 C.2   100  SER100      0.2288
     77  O         44.3040  -16.3950   -6.5760 O.2   100  SER100     -0.2866
     78  CB        45.3220  -14.5600   -8.3750 C.3   100  SER100      0.2089
     79  OG        44.0180  -14.2680   -8.0520 O.3   100  SER100     -0.2183
     80  N         43.3600  -17.4720   -3.0820 N.3   102  LEU102     -0.1245
     81  CA        42.0750  -17.0390   -2.6230 C.3   102  LEU102      0.1561
     82  C         42.0060  -16.6360   -1.1540 C.2   102  LEU102      0.2260
     83  O         40.9610  -16.3180   -0.6590 O.2   102  LEU102     -0.2867
     84  CB        41.0070  -18.0490   -3.0020 C.3   102  LEU102      0.0270
     85  CG        41.1020  -18.5040   -4.4480 C.3   102  LEU102      0.0019
     86  CD1       40.3600  -19.7870   -4.6540 C.3   102  LEU102      0.0001
     87  CD2       40.6090  -17.4980   -5.4340 C.3   102  LEU102      0.0001
     88  N         48.0280  -10.3860   -7.6130 N.3   128  ASN128     -0.1240
     89  CA        46.7390  -10.0330   -8.1540 C.3   128  ASN128      0.1653
     90  C         45.7370   -9.7090   -7.0600 C.2   128  ASN128      0.2266
     91  O         45.1830  -10.6120   -6.4740 O.2   128  ASN128     -0.2867
     92  CB        46.1970  -11.1530   -9.0350 C.3   128  ASN128      0.1155
     93  CG        44.9400  -10.7440   -9.7970 C.2   128  ASN128      0.2627
     94  OD1       44.3780   -9.6780   -9.5710 O.2   128  ASN128     -0.2716
     95  ND2       44.4800  -11.6160  -10.6840 N.am  128  ASN128     -0.0877
     96  N         42.8410   -8.3330   -7.4720 N.3   130  SER130     -0.1202
     97  CA        41.6350   -8.0370   -8.1990 C.3   130  SER130      0.2020
     98  C         40.6090   -9.1240   -8.4220 C.2   130  SER130      0.2619
     99  O         39.7930   -8.9360   -9.2900 O.2   130  SER130     -0.2717
    100  CB        41.8920   -7.2550   -9.5080 C.3   130  SER130      0.2103
    101  OG        43.2200   -6.8540   -9.6980 O.3   130  SER130     -0.2182
    102  N         40.4910  -10.1630   -7.5940 N.am  131  CYS131     -0.1956
    103  CA        41.4480  -11.1310   -7.0400 C.3   131  CYS131      0.1828
    104  C         40.8600  -12.5320   -7.0690 C.2   131  CYS131      0.2467
    105  O         41.4610  -13.4280   -7.6090 O.2   131  CYS131     -0.2730
    106  CB        41.7850  -10.8210   -5.6020 C.3   131  CYS131      0.0996
    107  SG        42.6000  -12.1360   -4.6970 S.3   131  CYS131     -0.0797
    108  N         39.7360  -12.7550   -6.2440 N.am  132  PRO132     -0.2715
    109  CA        38.6010  -13.4750   -6.8130 C.3   132  PRO132      0.1536
    110  C         37.3350  -12.5720   -6.8050 C.2   132  PRO132      0.2598
    111  O         37.2230  -11.6510   -7.5970 O.2   132  PRO132     -0.2715
    112  CB        38.4310  -14.6510   -5.8440 C.3   132  PRO132      0.0310
    113  CG        38.9680  -14.1690   -4.5150 C.3   132  PRO132      0.0237
    114  CD        39.3960  -12.7480   -4.7300 C.3   132  PRO132      0.0939
    115  N         36.3730  -12.8660   -5.9400 N.am  133  ASN133     -0.1973
    116  CA        35.3530  -11.9220   -5.4890 C.3   133  ASN133      0.1688
    117  C         34.7260  -12.3420   -4.1620 C.2   133  ASN133      0.2292
    118  O         33.8010  -13.1560   -4.1540 O.2   133  ASN133     -0.2864
    119  CB        34.2900  -11.6970   -6.5530 C.3   133  ASN133      0.1181
    120  CG        33.4500  -12.9200   -6.8200 C.2   133  ASN133      0.2629
    121  OD1       32.2320  -12.8390   -6.8600 O.2   133  ASN133     -0.2716
    122  ND2       34.0950  -14.0600   -6.9930 N.am  133  ASN133     -0.0877
    123  N         43.1410   -4.1910  -14.0710 N.3   195  ASN195     -0.1225
    124  CA        42.4780   -5.4400  -14.3750 C.3   195  ASN195      0.1785
    125  C         41.1370   -5.1790  -15.1200 C.2   195  ASN195      0.2597
    126  O         40.7020   -4.0370  -15.2750 O.2   195  ASN195     -0.2718
    127  CB        42.2230   -6.2200  -13.0590 C.3   195  ASN195      0.1169
    128  CG        42.2140   -7.7170  -13.2590 C.2   195  ASN195      0.2627
    129  OD1       41.5120   -8.2350  -14.1230 O.2   195  ASN195     -0.2716
    130  ND2       42.9890   -8.4240  -12.4470 N.am  195  ASN195     -0.0877
    131  N         40.4630   -6.2110  -15.5720 N.am  196  SER196     -0.1952
    132  CA        39.2030   -5.9950  -16.2920 C.3   196  SER196      0.1924
    133  C         38.1830   -5.1320  -15.5290 C.2   196  SER196      0.2314
    134  O         38.1520   -5.1190  -14.3280 O.2   196  SER196     -0.2863
    135  CB        38.5710   -7.3250  -16.7000 C.3   196  SER196      0.2116
    136  OG        38.5090   -8.2160  -15.6280 O.3   196  SER196     -0.2180
    137  N         28.8880  -18.7790  -17.0570 N.3   214  PRO214     -0.2102
    138  CA        28.9600  -18.4140  -15.6360 C.3   214  PRO214      0.1504
    139  C         28.2400  -17.0910  -15.2240 C.2   214  PRO214      0.2575
    140  O         28.0760  -16.1520  -16.0420 O.2   214  PRO214     -0.2718
    141  CB        30.4540  -18.2370  -15.4090 C.3   214  PRO214      0.0282
    142  CG        31.0980  -18.9770  -16.5240 C.3   214  PRO214      0.0208
    143  CD        30.2170  -18.7250  -17.6770 C.3   214  PRO214      0.0893
    144  N         27.8020  -17.0520  -13.9690 N.am  215  LYS215     -0.1980
    145  CA        27.3090  -15.8180  -13.3170 C.3   215  LYS215      0.1596
    146  C         26.2250  -15.0820  -14.1160 C.2   215  LYS215      0.2287
    147  O         26.2030  -13.8390  -14.1580 O.2   215  LYS215     -0.2864
    148  CB        28.4540  -14.8580  -13.0810 C.3   215  LYS215      0.0298
    149  CG        29.5960  -15.3780  -12.2300 C.3   215  LYS215      0.0038
    150  CD        30.7130  -14.3420  -12.2020 C.3   215  LYS215      0.0206
    151  CE        30.2960  -13.0900  -11.4210 C.3   215  LYS215      0.1093
    152  NZ        31.2040  -11.9270  -11.6290 N.3   215  LYS215     -0.1314
    153  N         34.1130   -9.7920  -16.5840 N.3   220  GLY220     -0.1225
    154  CA        35.0840   -8.7030  -16.7230 C.3   220  GLY220      0.1811
    155  C         35.2830   -8.2260  -18.1750 C.2   220  GLY220      0.2280
    156  O         35.5040   -9.0390  -19.1050 O.2   220  GLY220     -0.2866
@<TRIPOS>BOND
     1    40    41    1
     2    61    60    1
     3    60    59    1
     4    44    41    1
     5    44    45    1
     6    41    42    1
     7   156   155    2
     8    47    45   am
     9    45    46    2
    10   155   154    1
    11    59    58    1
    12    42    48   am
    13    42    43    2
    14     1     2    1
    15    48    49    1
    16   143   137    1
    17   143   142    1
    18     4     3    2
    19     3     2    1
    20     2     5    1
    21   137   138    1
    22    58    55    1
    23    35    34    2
    24   154   153    1
    25   135   132    1
    26   135   136    1
    27    55    54    1
    28    55    56    1
    29   142   141    1
    30    54    50   am
    31    50    51    2
    32    50    49    1
    33    49    52    1
    34   132   131    1
    35   132   133    1
    36     6     7    1
    37    10     7    1
    38    10    11    1
    39    52    53    1
    40   140   139    2
    41    12    11    1
    42    12    13    1
    43    34    33    1
    44     7     8    1
    45   138   141    1
    46   138   139    1
    47   131   125   am
    48    14    13    1
    49   133   134    2
    50    57    56    2
    51    56    62   am
    52   126   125    2
    53   139   144   am
    54   125   124    1
    55    36    33    1
    56    36    37    1
    57    33    32    1
    58   124   123    1
    59   124   127    1
    60    62    63    1
    61     8    15   am
    62     8     9    2
    63   147   146    2
    64   129   128    2
    65   146   145    1
    66   144   145    1
    67    15    16    1
    68    39    37   am
    69    37    38    2
    70   145   148    1
    71    24    23    2
    72   128   127    1
    73   128   130   am
    74   148   149    1
    75    66    67    1
    76    66    64   am
    77    63    64    1
    78    68    67    1
    79    68    69    2
    80    67    70    1
    81    64    65    2
    82    23    22    1
    83   149   150    1
    84   150   151    1
    85    16    19    1
    86    16    17    1
    87    18    17    2
    88    20    19    1
    89   152   151    1
    90    72    71    1
    91    70    71    1
    92    22    21    1
    93    22    25    1
    94    95    93   am
    95    25    26    1
    96    71    73    1
    97    93    94    2
    98    93    92    1
    99   101   100    1
   100   100    97    1
   101    28    27    1
   102    28    29    2
   103    99    98    2
   104    31    29    1
   105    26    27    1
   106    92    89    1
   107    29    30    1
   108    98    97    1
   109    98   102   am
   110    78    79    1
   111    78    75    1
   112    97    96    1
   113    89    88    1
   114    89    90    1
   115   105   104    2
   116   111   110    2
   117   102   103    1
   118    74    75    1
   119    75    76    1
   120   104   103    1
   121   104   108   am
   122    90    91    2
   123   103   106    1
   124   122   120   am
   125   121   120    2
   126   120   119    1
   127   109   110    1
   128   109   108    1
   129   109   112    1
   130   110   115   am
   131    77    76    2
   132   119   116    1
   133   108   114    1
   134   115   116    1
   135   112   113    1
   136   106   107    1
   137   116   117    1
   138    87    85    1
   139   114   113    1
   140    86    85    1
   141    85    84    1
   142   117   118    2
   143    80    81    1
   144    84    81    1
   145    81    82    1
   146    82    83    2
