@<TRIPOS>MOLECULE
tmp/3w7nA00.pdb
 143 134 0 0 0
SMALL
GASTEIGER

@<TRIPOS>ATOM
      1  N         16.5100   19.5670   16.7690 N.3    44  LYS44      -0.1231
      2  CA        15.1320   19.5380   16.3030 C.3    44  LYS44       0.1693
      3  C         15.1770   19.4690   14.7930 C.2    44  LYS44       0.2592
      4  O         16.0400   20.0810   14.1920 O.2    44  LYS44      -0.2718
      5  CB        14.4120   20.8130   16.7550 C.3    44  LYS44       0.0285
      6  CG        13.0110   21.0990   16.1800 C.3    44  LYS44       0.0035
      7  CD        12.0490   19.9070   16.1470 C.3    44  LYS44       0.0206
      8  CE        10.8050   20.1930   15.2990 C.3    44  LYS44       0.1093
      9  NZ         9.6330   19.3510   15.7310 N.3    44  LYS44      -0.1314
     10  N         14.2610   18.7070   14.1880 N.am   45  SER45      -0.1952
     11  CA        14.1400   18.6140   12.7270 C.3    45  SER45       0.1924
     12  C         13.8300   20.0090   12.1620 C.2    45  SER45       0.2314
     13  O         12.8570   20.6400   12.5330 O.2    45  SER45      -0.2863
     14  CB        13.0570   17.6170   12.2950 C.3    45  SER45       0.2116
     15  OG        13.4710   16.2770   12.4030 O.3    45  SER45      -0.2180
     16  N         10.0110   28.2350   11.3300 N.3    51  ARG51      -0.1245
     17  CA         8.5760   27.9850   11.4140 C.3    51  ARG51       0.1563
     18  C          8.0640   28.1730   12.8380 C.2    51  ARG51       0.2260
     19  O          8.7500   27.8540   13.8040 O.2    51  ARG51      -0.2867
     20  CB         8.2210   26.5640   10.9600 C.3    51  ARG51       0.0307
     21  CG         8.5320   26.2510    9.5180 C.3    51  ARG51       0.0489
     22  CD         8.4440   24.7600    9.2640 C.3    51  ARG51       0.2205
     23  NE         7.1580   24.1890    9.6660 N.pl3  51  ARG51      -0.0865
     24  CZ         6.0700   24.2210    8.9110 C.cat  51  ARG51       0.5346
     25  NH1        6.1150   24.7830    7.7130 N.pl3  51  ARG51       0.1354
     26  NH2        4.9480   23.7000    9.3460 N.pl3  51  ARG51       0.1354
     27  N          2.2400   24.6490   14.4470 N.3    54  ASN54      -0.1240
     28  CA         0.8100   24.6250   14.6920 C.3    54  ASN54       0.1653
     29  C          0.4480   25.4330   15.9440 C.2    54  ASN54       0.2266
     30  O          1.3230   25.6990   16.7890 O.2    54  ASN54      -0.2867
     31  CB         0.3590   23.1680   14.8830 C.3    54  ASN54       0.1155
     32  CG         0.3820   22.3850   13.5960 C.2    54  ASN54       0.2627
     33  OD1        0.3940   22.9760   12.5140 O.2    54  ASN54      -0.2716
     34  ND2        0.3930   21.0600   13.6950 N.am   54  ASN54      -0.0877
     35  N          1.1790   14.3500   19.9140 N.3    68  ASN68      -0.1225
     36  CA         1.6670   15.6640   19.4780 C.3    68  ASN68       0.1785
     37  C          1.3020   15.9640   18.0630 C.2    68  ASN68       0.2598
     38  O          1.3670   15.0750   17.1690 O.2    68  ASN68      -0.2718
     39  CB         3.2160   15.8170   19.6720 C.3    68  ASN68       0.1169
     40  CG         4.0380   15.2750   18.4850 C.2    68  ASN68       0.2627
     41  OD1        4.1470   15.8970   17.3890 O.2    68  ASN68      -0.2716
     42  ND2        4.6120   14.1270   18.6890 N.am   68  ASN68      -0.0877
     43  N          0.9630   17.2210   17.8150 N.am   69  SER69      -0.1938
     44  CA         1.0130   17.6900   16.4150 C.3    69  SER69       0.2055
     45  C          1.6570   19.0760   16.3080 C.2    69  SER69       0.2643
     46  O          0.9890   20.1060   16.1230 O.2    69  SER69      -0.2714
     47  CB        -0.3290   17.6180   15.7020 C.3    69  SER69       0.2130
     48  OG        -0.2060   18.3750   14.4960 O.3    69  SER69      -0.2179
     49  N          2.9810   19.0730   16.4930 N.am   70  MET70      -0.1962
     50  CA         3.7580   20.3130   16.6060 C.3    70  MET70       0.1736
     51  C          3.7890   21.1240   15.2750 C.2    70  MET70       0.2617
     52  O          3.9570   22.3390   15.2910 O.2    70  MET70      -0.2715
     53  CB         5.1780   19.9680   17.0070 C.3    70  MET70       0.0427
     54  CG         5.3250   19.1120   18.2370 C.3    70  MET70       0.0599
     55  SD         4.6370   19.8880   19.7000 S.3    70  MET70      -0.1393
     56  CE         5.9400   20.9930   20.2250 C.3    70  MET70       0.0692
     57  N          3.6160   20.4480   14.1350 N.am   71  GLY71      -0.1940
     58  CA         3.8560   21.0600   12.8390 C.3    71  GLY71       0.2014
     59  C          5.2480   21.6290   12.5730 C.2    71  GLY71       0.2638
     60  O          5.3660   22.6440   11.9060 O.2    71  GLY71      -0.2714
     61  N          6.2950   21.0110   13.1320 N.am   72  LEU72      -0.1977
     62  CA         7.6810   21.3550   12.7700 C.3    72  LEU72       0.1596
     63  C          8.0870   22.8170   13.0720 C.2    72  LEU72       0.2287
     64  O          8.6570   23.5050   12.2160 O.2    72  LEU72      -0.2864
     65  CB         7.8490   21.1120   11.2770 C.3    72  LEU72       0.0297
     66  CG         9.0910   20.4000   10.8110 C.3    72  LEU72       0.0022
     67  CD1        9.5900   19.4050   11.8350 C.3    72  LEU72       0.0001
     68  CD2        8.7330   19.7110    9.4960 C.3    72  LEU72       0.0001
     69  N         14.3260   17.9820    8.1230 N.3   100  SER100     -0.1217
     70  CA        13.0650   17.4680    7.6850 C.3   100  SER100      0.1889
     71  C         12.3800   18.4110    6.7310 C.2   100  SER100      0.2288
     72  O         11.2290   18.8050    6.9640 O.2   100  SER100     -0.2866
     73  CB        12.1660   17.1520    8.8810 C.3   100  SER100      0.2089
     74  OG        10.8580   16.8160    8.4230 O.3   100  SER100     -0.2183
     75  N         10.4370   20.0280    3.5280 N.3   102  LEU102     -0.1245
     76  CA         9.0430   19.7590    3.1200 C.3   102  LEU102      0.1561
     77  C          8.9020   19.2900    1.6670 C.2   102  LEU102      0.2260
     78  O          7.8120   19.0110    1.1950 O.2   102  LEU102     -0.2867
     79  CB         8.1500   21.0000    3.3420 C.3   102  LEU102      0.0270
     80  CG         7.9730   21.5980    4.7570 C.3   102  LEU102      0.0019
     81  CD1        6.7240   22.4790    4.8180 C.3   102  LEU102      0.0001
     82  CD2        7.9320   20.5320    5.8520 C.3   102  LEU102      0.0001
     83  N         14.8940   12.9370    8.2380 N.3   128  ASN128     -0.1240
     84  CA        13.5860   12.5190    8.6770 C.3   128  ASN128      0.1653
     85  C         12.6110   12.1830    7.5230 C.2   128  ASN128      0.2266
     86  O         12.1750   13.0670    6.7850 O.2   128  ASN128     -0.2867
     87  CB        13.0240   13.5900    9.6240 C.3   128  ASN128      0.1155
     88  CG        11.7030   13.2030   10.2390 C.2   128  ASN128      0.2627
     89  OD1       11.1090   12.2140    9.8560 O.2   128  ASN128     -0.2716
     90  ND2       11.2230   14.0050   11.1920 N.am  128  ASN128     -0.0877
     91  N          9.7160   10.3450    7.9620 N.3   130  SER130     -0.1202
     92  CA         8.3740   10.1850    8.5120 C.3   130  SER130      0.2020
     93  C          7.8020   11.5850    8.5620 C.2   130  SER130      0.2619
     94  O          7.3420   12.0480    9.6120 O.2   130  SER130     -0.2717
     95  CB         8.3950    9.4910    9.9010 C.3   130  SER130      0.2103
     96  OG         9.7210    9.3680   10.5060 O.3   130  SER130     -0.2182
     97  N          7.8860   12.2590    7.4120 N.am  131  CYS131     -0.1956
     98  CA         7.4250   13.6440    7.2240 C.3   131  CYS131      0.1828
     99  C          6.4540   13.7310    6.0300 C.2   131  CYS131      0.2467
    100  O          6.5060   12.8710    5.1390 O.2   131  CYS131     -0.2730
    101  CB         8.6140   14.6230    7.0560 C.3   131  CYS131      0.0996
    102  SG         9.5800   14.5590    5.5150 S.3   131  CYS131     -0.0797
    103  N          5.5590   14.7550    6.0100 N.am  132  PRO132     -0.2726
    104  CA         4.6370   14.9140    4.8670 C.3   132  PRO132      0.1402
    105  C          5.3280   15.3050    3.5320 C.2   132  PRO132      0.2269
    106  O          6.3750   15.9670    3.5360 O.2   132  PRO132     -0.2865
    107  CB         3.6740   16.0200    5.3420 C.3   132  PRO132      0.0296
    108  CG         4.4480   16.7920    6.3460 C.3   132  PRO132      0.0237
    109  CD         5.3060   15.7720    7.0510 C.3   132  PRO132      0.0939
    110  N          9.5080    6.5490   14.5210 N.3   195  ASN195     -0.1225
    111  CA         8.9180    7.8420   14.7770 C.3   195  ASN195      0.1785
    112  C          7.6040    7.5730   15.4940 C.2   195  ASN195      0.2597
    113  O          7.2640    6.3920   15.7510 O.2   195  ASN195     -0.2718
    114  CB         8.6540    8.5950   13.4560 C.3   195  ASN195      0.1169
    115  CG         8.6710   10.1090   13.6410 C.2   195  ASN195      0.2627
    116  OD1        7.8230   10.6780   14.3310 O.2   195  ASN195     -0.2716
    117  ND2        9.6680   10.7570   13.0780 N.am  195  ASN195     -0.0877
    118  N          6.8470    8.6330   15.8160 N.am  196  SER196     -0.1952
    119  CA         5.5830    8.4400   16.4940 C.3   196  SER196      0.1924
    120  C          4.6050    7.5410   15.7120 C.2   196  SER196      0.2314
    121  O          4.5600    7.5500   14.4750 O.2   196  SER196     -0.2863
    122  CB         4.9740    9.7790   16.8550 C.3   196  SER196      0.2116
    123  OG         5.1390   10.7010   15.8100 O.3   196  SER196     -0.2180
    124  N         -4.5220   21.2780   16.9110 N.3   214  PRO214     -0.2102
    125  CA        -4.4680   21.0270   15.4560 C.3   214  PRO214      0.1504
    126  C         -5.1170   19.6970   15.0300 C.2   214  PRO214      0.2575
    127  O         -5.2170   18.7610   15.8420 O.2   214  PRO214     -0.2718
    128  CB        -2.9540   20.9540   15.1620 C.3   214  PRO214      0.0282
    129  CG        -2.2890   21.5540   16.3510 C.3   214  PRO214      0.0208
    130  CD        -3.1710   21.2690   17.5140 C.3   214  PRO214      0.0893
    131  N         -5.5320   19.6350   13.7520 N.am  215  LYS215     -0.1980
    132  CA        -5.9450   18.3830   13.0900 C.3   215  LYS215      0.1596
    133  C         -7.1060   17.6830   13.7830 C.2   215  LYS215      0.2287
    134  O         -7.1700   16.4520   13.8170 O.2   215  LYS215     -0.2864
    135  CB        -4.7620   17.4180   13.0260 C.3   215  LYS215      0.0298
    136  CG        -3.6260   17.8390   12.0880 C.3   215  LYS215      0.0038
    137  CD        -2.5900   16.7160   11.9940 C.3   215  LYS215      0.0206
    138  CE        -3.2250   15.4850   11.3140 C.3   215  LYS215      0.1093
    139  NZ        -2.4160   14.2430   11.3650 N.3   215  LYS215     -0.1314
    140  N          0.6080   12.3380   16.6390 N.3   220  GLY220     -0.1225
    141  CA         1.4770   11.1650   16.7040 C.3   220  GLY220      0.1811
    142  C          1.5440   10.7490   18.1400 C.2   220  GLY220      0.2280
    143  O          1.5390   11.6170   19.0340 O.2   220  GLY220     -0.2866
@<TRIPOS>BOND
     1    78    77    2
     2    77    76    1
     3    76    79    1
     4    76    75    1
     5    79    80    1
     6   105   106    2
     7   105   104    1
     8    80    81    1
     9    80    82    1
    10   104   107    1
    11   104   103    1
    12   100    99    2
    13   107   108    1
    14   102   101    1
    15   103    99   am
    16   103   109    1
    17    99    98    1
    18   108   109    1
    19    71    72    2
    20    71    70    1
    21    86    85    2
    22   101    98    1
    23    98    97    1
    24    97    93   am
    25    85    84    1
    26    70    69    1
    27    70    73    1
    28    25    24    1
    29    91    92    1
    30    83    84    1
    31    74    73    1
    32    92    93    1
    33    92    95    1
    34    93    94    2
    35    84    87    1
    36    24    26    1
    37    24    23    2
    38    22    21    1
    39    22    23    1
    40    68    66    1
    41    21    20    1
    42    87    88    1
    43    89    88    2
    44    95    96    1
    45    88    90   am
    46    66    65    1
    47    66    67    1
    48    20    17    1
    49    65    62    1
    50   138   139    1
    51   138   137    1
    52    16    17    1
    53    17    18    1
    54    60    59    2
    55   137   136    1
    56   136   135    1
    57    12    13    2
    58    12    11    1
    59    64    63    2
    60    14    15    1
    61    14    11    1
    62    33    32    2
    63    59    58    1
    64    59    61   am
    65    11    10    1
    66    62    63    1
    67    62    61    1
    68    18    19    2
    69    58    57    1
    70   135   132    1
    71   117   115   am
    72   132   131    1
    73   132   133    1
    74   114   115    1
    75   114   111    1
    76    32    34   am
    77    32    31    1
    78   115   116    2
    79   131   126   am
    80   133   134    2
    81    57    51   am
    82    10     3   am
    83     4     3    2
    84    27    28    1
    85   121   120    2
    86    48    47    1
    87   110   111    1
    88    28    31    1
    89    28    29    1
    90   111   112    1
    91     3     2    1
    92   126   125    1
    93   126   127    2
    94   128   125    1
    95   128   129    1
    96    51    52    2
    97    51    50    1
    98     8     9    1
    99     8     7    1
   100   125   124    1
   101   112   113    2
   102   112   118   am
   103    47    44    1
   104   120   119    1
   105   123   122    1
   106   118   119    1
   107    29    30    2
   108    46    45    2
   109     7     6    1
   110     6     5    1
   111     2     5    1
   112     2     1    1
   113    45    44    1
   114    45    49   am
   115   129   130    1
   116    44    43    1
   117    49    50    1
   118   119   122    1
   119    50    53    1
   120   140   141    1
   121   141   142    1
   122   124   130    1
   123    53    54    1
   124    38    37    2
   125    41    40    2
   126    43    37   am
   127    37    36    1
   128   142   143    2
   129    54    55    1
   130    40    42   am
   131    40    39    1
   132    36    39    1
   133    36    35    1
   134    55    56    1
