@<TRIPOS>MOLECULE
tmp/3w7pA01.pdb
 139 130 0 0 0
SMALL
GASTEIGER

@<TRIPOS>ATOM
      1  N         15.6920   16.7570   15.8910 N.3    44  LYS44      -0.1231
      2  CA        14.2670   16.7750   15.4860 C.3    44  LYS44       0.1693
      3  C         14.2070   16.6760   13.9920 C.2    44  LYS44       0.2592
      4  O         14.9570   17.3390   13.2980 O.2    44  LYS44      -0.2718
      5  CB        13.6280   18.0950   15.9110 C.3    44  LYS44       0.0285
      6  CG        12.1950   18.3410   15.4320 C.3    44  LYS44       0.0035
      7  CD        11.1200   17.3790   15.8840 C.3    44  LYS44       0.0206
      8  CE         9.8310   17.4770   15.1190 C.3    44  LYS44       0.1093
      9  NZ         8.8020   16.4360   15.4980 N.3    44  LYS44      -0.1314
     10  N         13.2960   15.8980   13.4340 N.am   45  SER45      -0.1952
     11  CA        13.1280   15.8820   11.9670 C.3    45  SER45       0.1924
     12  C         12.8700   17.2670   11.4460 C.2    45  SER45       0.2314
     13  O         12.0160   17.9630   11.9860 O.2    45  SER45      -0.2863
     14  CB        12.0020   14.9920   11.6000 C.3    45  SER45       0.2116
     15  OG        12.3440   13.6110   11.8390 O.3    45  SER45      -0.2180
     16  N          8.9430   25.4140   10.8490 N.3    51  ARG51      -0.1245
     17  CA         7.4930   25.1160   11.0120 C.3    51  ARG51       0.1563
     18  C          7.0840   25.2610   12.4490 C.2    51  ARG51       0.2260
     19  O          7.7570   24.8600   13.3410 O.2    51  ARG51      -0.2867
     20  CB         7.1020   23.6790   10.6120 C.3    51  ARG51       0.0307
     21  CG         7.2680   23.3470    9.1880 C.3    51  ARG51       0.0489
     22  CD         7.1240   21.8680    8.9390 C.3    51  ARG51       0.2205
     23  NE         5.7970   21.3710    9.3540 N.pl3  51  ARG51      -0.0865
     24  CZ         4.7410   21.2270    8.5680 C.cat  51  ARG51       0.5346
     25  NH1        4.7660   21.5640    7.2850 N.pl3  51  ARG51       0.1354
     26  NH2        3.6370   20.6780    9.0020 N.pl3  51  ARG51       0.1354
     27  N          1.4600   21.8700   14.6220 N.3    54  ASN54      -0.1240
     28  CA         0.0130   21.8960   14.8590 C.3    54  ASN54       0.1653
     29  C         -0.3780   22.5800   16.1370 C.2    54  ASN54       0.2266
     30  O          0.4370   22.8670   17.0300 O.2    54  ASN54      -0.2867
     31  CB        -0.4610   20.4390   14.9180 C.3    54  ASN54       0.1155
     32  CG        -0.3820   19.7450   13.6270 C.2    54  ASN54       0.2627
     33  OD1       -0.3440   20.3590   12.5270 O.2    54  ASN54      -0.2716
     34  ND2       -0.3540   18.4400   13.6980 N.am   54  ASN54      -0.0877
     35  N          0.6720   11.6870   20.0450 N.3    68  ASN68      -0.1225
     36  CA         1.1500   12.9920   19.4870 C.3    68  ASN68       0.1785
     37  C          0.7130   13.2120   18.0650 C.2    68  ASN68       0.2598
     38  O          0.6810   12.3300   17.2230 O.2    68  ASN68      -0.2718
     39  CB         2.6600   13.1960   19.5840 C.3    68  ASN68       0.1169
     40  CG         3.4430   12.7210   18.3960 C.2    68  ASN68       0.2627
     41  OD1        3.5480   13.3430   17.3580 O.2    68  ASN68      -0.2716
     42  ND2        3.9010   11.4440   18.4990 N.am   68  ASN68      -0.0877
     43  N          0.4290   14.5040   17.7770 N.am   69  SER69      -0.1938
     44  CA         0.3200   14.9640   16.4180 C.3    69  SER69       0.2055
     45  C          1.0170   16.2930   16.3100 C.2    69  SER69       0.2643
     46  O          0.4230   17.3150   15.9840 O.2    69  SER69      -0.2714
     47  CB        -1.1220   15.1300   15.9820 C.3    69  SER69       0.2130
     48  OG        -1.1320   15.5820   14.6480 O.3    69  SER69      -0.2179
     49  N          2.3060   16.2700   16.6060 N.am   70  MET70      -0.1962
     50  CA         3.1110   17.5080   16.6780 C.3    70  MET70       0.1736
     51  C          3.0300   18.3670   15.4320 C.2    70  MET70       0.2617
     52  O          2.9340   19.6030   15.5920 O.2    70  MET70      -0.2715
     53  CB         4.5540   17.2430   16.9910 C.3    70  MET70       0.0427
     54  CG         4.9060   16.4120   18.1940 C.3    70  MET70       0.0599
     55  SD         4.2250   17.0470   19.7250 S.3    70  MET70      -0.1393
     56  CE         5.2490   18.4000   20.0340 C.3    70  MET70       0.0692
     57  N          2.9740   17.7590   14.2670 N.am   71  GLY71      -0.1940
     58  CA         2.9970   18.4340   12.9850 C.3    71  GLY71       0.2014
     59  C          4.3250   18.9220   12.5090 C.2    71  GLY71       0.2638
     60  O          4.3870   19.9590   11.8220 O.2    71  GLY71      -0.2714
     61  N          5.3970   18.2440   12.8710 N.am   72  LEU72      -0.1977
     62  CA         6.7250   18.5730   12.4250 C.3    72  LEU72       0.1596
     63  C          7.1790   19.9940   12.7600 C.2    72  LEU72       0.2287
     64  O          7.8280   20.6540   11.9040 O.2    72  LEU72      -0.2864
     65  CB         6.8120   18.3780   10.9140 C.3    72  LEU72       0.0297
     66  CG         7.6630   17.3090   10.3430 C.3    72  LEU72       0.0022
     67  CD1        7.5530   17.2520    8.7900 C.3    72  LEU72       0.0001
     68  CD2        9.1250   17.2470   10.8440 C.3    72  LEU72       0.0001
     69  N         13.6350   10.3430    7.5950 N.3   128  ASN128     -0.1240
     70  CA        12.3300    9.9800    8.1900 C.3   128  ASN128      0.1653
     71  C         11.2890    9.8840    7.0880 C.2   128  ASN128      0.2266
     72  O         10.9250   10.8810    6.4970 O.2   128  ASN128     -0.2867
     73  CB        11.9180   11.0010    9.2030 C.3   128  ASN128      0.1155
     74  CG        10.5510   10.7460    9.8470 C.2   128  ASN128      0.2627
     75  OD1        9.9650    9.7340    9.6610 O.2   128  ASN128     -0.2716
     76  ND2       10.0890   11.6950   10.6150 N.am  128  ASN128     -0.0877
     77  N          8.0640    9.1960    7.5430 N.3   130  SER130     -0.1202
     78  CA         6.6910    9.6400    7.9470 C.3   130  SER130      0.2020
     79  C          6.4270   11.1080    7.6390 C.2   130  SER130      0.2619
     80  O          7.3540   11.9220    7.5810 O.2   130  SER130     -0.2717
     81  CB         6.4920    9.2820    9.4270 C.3   130  SER130      0.2103
     82  OG         6.5930    7.8740    9.6250 O.3   130  SER130     -0.2182
     83  N          5.1830   11.4800    7.3840 N.am  131  CYS131     -0.1956
     84  CA         4.8680   12.8390    6.9420 C.3   131  CYS131      0.1828
     85  C          3.3930   13.1610    7.2210 C.2   131  CYS131      0.2467
     86  O          2.5640   12.2470    7.5020 O.2   131  CYS131     -0.2730
     87  CB         5.1380   12.9430    5.4300 C.3   131  CYS131      0.0996
     88  SG         4.1040   11.7960    4.4550 S.3   131  CYS131     -0.0797
     89  N          3.0340   14.4580    7.1250 N.am  132  PRO132     -0.2715
     90  CA         1.5730   14.7050    7.2470 C.3   132  PRO132      0.1536
     91  C          0.7200   13.9990    6.2110 C.2   132  PRO132      0.2598
     92  O          1.1980   13.7310    5.0810 O.2   132  PRO132     -0.2715
     93  CB         1.4530   16.2270    7.0970 C.3   132  PRO132      0.0310
     94  CG         2.8330   16.8090    7.4560 C.3   132  PRO132      0.0237
     95  CD         3.8250   15.7150    7.0360 C.3   132  PRO132      0.0939
     96  N         -0.5410   13.7230    6.5900 N.am  133  ASN133     -0.1973
     97  CA        -1.4830   13.0890    5.6670 C.3   133  ASN133      0.1688
     98  C         -1.6520   13.9670    4.4470 C.2   133  ASN133      0.2292
     99  O         -1.8490   15.1930    4.5700 O.2   133  ASN133     -0.2864
    100  CB        -2.8590   13.0030    6.3360 C.3   133  ASN133      0.1181
    101  CG        -3.8750   12.3000    5.5060 C.2   133  ASN133      0.2629
    102  OD1       -5.0150   12.8000    5.2240 O.2   133  ASN133     -0.2716
    103  ND2       -3.5280   11.1330    5.1380 N.am  133  ASN133     -0.0877
    104  N          1.0440    7.2120    3.4830 N.3   139  GLN139     -0.1245
    105  CA         2.3710    7.4910    3.9250 C.3   139  GLN139      0.1566
    106  C          3.3880    6.8220    3.0180 C.2   139  GLN139      0.2260
    107  O          3.1750    5.7200    2.5810 O.2   139  GLN139     -0.2867
    108  CB         2.5220    6.8990    5.3340 C.3   139  GLN139      0.0367
    109  CG         1.6350    7.5440    6.3260 C.3   139  GLN139      0.0905
    110  CD         2.1490    8.8970    6.6720 C.2   139  GLN139      0.2608
    111  OE1        3.2470    9.0060    7.2610 O.2   139  GLN139     -0.2717
    112  NE2        1.3660    9.9610    6.3380 N.am  139  GLN139     -0.0878
    113  N          8.9280    4.1520   14.1360 N.3   195  ASN195     -0.1225
    114  CA         8.1490    5.3870   14.4370 C.3   195  ASN195      0.1785
    115  C          6.8740    5.0230   15.2240 C.2   195  ASN195      0.2597
    116  O          6.5480    3.8390   15.4880 O.2   195  ASN195     -0.2718
    117  CB         7.8660    6.1410   13.1270 C.3   195  ASN195      0.1169
    118  CG         7.8860    7.6460   13.3090 C.2   195  ASN195      0.2627
    119  OD1        7.2490    8.1690   14.2010 O.2   195  ASN195     -0.2716
    120  ND2        8.5810    8.3490   12.4120 N.am  195  ASN195     -0.0877
    121  N          6.1070    6.0120   15.5890 N.am  196  SER196     -0.1952
    122  CA         4.9030    5.7750   16.3540 C.3   196  SER196      0.1924
    123  C          3.9250    4.9350   15.6100 C.2   196  SER196      0.2314
    124  O          3.8920    4.8990   14.3650 O.2   196  SER196     -0.2863
    125  CB         4.3670    7.1500   16.8300 C.3   196  SER196      0.2116
    126  OG         4.2390    8.0290   15.8290 O.3   196  SER196     -0.2180
    127  N         -6.2880   16.8310   14.1660 N.3   215  LYS215     -0.1245
    128  CA        -6.7050   15.5890   13.5650 C.3   215  LYS215      0.1561
    129  C         -7.8500   14.9480   14.2890 C.2   215  LYS215      0.2260
    130  O         -7.9230   13.7220   14.3430 O.2   215  LYS215     -0.2867
    131  CB        -5.5660   14.6170   13.3670 C.3   215  LYS215      0.0271
    132  CG        -4.4970   15.1150   12.4310 C.3   215  LYS215      0.0035
    133  CD        -3.3200   14.1270   12.4700 C.3   215  LYS215      0.0206
    134  CE        -3.6980   12.6370   12.2500 C.3   215  LYS215      0.1093
    135  NZ        -2.4180   11.9610   11.9450 N.3   215  LYS215     -0.1314
    136  N         -0.0710    9.6120   16.6800 N.3   220  GLY220     -0.1225
    137  CA         0.8120    8.4660   16.7630 C.3   220  GLY220      0.1811
    138  C          1.0080    8.0660   18.2150 C.2   220  GLY220      0.2280
    139  O          1.1900    8.8580   19.1650 O.2   220  GLY220     -0.2866
@<TRIPOS>BOND
     1   107   106    2
     2   106   105    1
     3   104   105    1
     4   105   108    1
     5    98    99    2
     6    98    97    1
     7    88    87    1
     8    92    91    2
     9   103   101   am
    10   102   101    2
    11   108   109    1
    12    87    84    1
    13   101   100    1
    14    97   100    1
    15    97    96    1
    16    91    96   am
    17    91    90    1
    18   109   110    1
    19   112   110   am
    20    72    71    2
    21   110   111    2
    22    84    85    1
    23    84    83    1
    24    95    89    1
    25    95    94    1
    26    71    70    1
    27    93    90    1
    28    93    94    1
    29    89    85   am
    30    89    90    1
    31    85    86    2
    32    25    24    1
    33    83    79   am
    34    77    78    1
    35    80    79    2
    36    69    70    1
    37    79    78    1
    38    78    81    1
    39    70    73    1
    40    24    26    1
    41    24    23    2
    42    67    66    1
    43    22    21    1
    44    22    23    1
    45    21    20    1
    46    73    74    1
    47    81    82    1
    48    75    74    2
    49    74    76   am
    50    66    68    1
    51    66    65    1
    52    20    17    1
    53    16    17    1
    54    65    62    1
    55    17    18    1
    56    12    11    1
    57    12    13    2
    58    14    15    1
    59    14    11    1
    60    60    59    2
    61    64    63    2
    62   135   134    1
    63    11    10    1
    64   134   133    1
    65   120   118   am
    66    62    63    1
    67    62    61    1
    68   132   133    1
    69   132   131    1
    70    18    19    2
    71    59    61   am
    72    59    58    1
    73    33    32    2
    74    58    57    1
    75   117   118    1
    76   117   114    1
    77     4     3    2
    78   118   119    2
    79   131   128    1
    80    10     3   am
    81   128   127    1
    82   128   129    1
    83    32    34   am
    84    32    31    1
    85     3     2    1
    86   113   114    1
    87    57    51   am
    88   129   130    2
    89   124   123    2
    90   114   115    1
    91    27    28    1
    92    48    47    1
    93    28    31    1
    94    28    29    1
    95     8     9    1
    96     8     7    1
    97   115   116    2
    98   115   121   am
    99     6     7    1
   100     6     5    1
   101    51    52    2
   102    51    50    1
   103     2     1    1
   104     2     5    1
   105   121   122    1
   106   123   122    1
   107   126   125    1
   108    47    44    1
   109    46    45    2
   110    29    30    2
   111    45    44    1
   112    45    49   am
   113   122   125    1
   114    44    43    1
   115    49    50    1
   116    50    53    1
   117   136   137    1
   118   137   138    1
   119    53    54    1
   120    38    37    2
   121    41    40    2
   122    43    37   am
   123    37    36    1
   124    54    55    1
   125   138   139    2
   126    40    42   am
   127    40    39    1
   128    36    39    1
   129    36    35    1
   130    55    56    1
