@<TRIPOS>MOLECULE
tmp/3w7qA00.pdb
 143 133 0 0 0
SMALL
GASTEIGER

@<TRIPOS>ATOM
      1  N         16.7160   19.2570   16.9050 N.3    44  LYS44      -0.1231
      2  CA        15.4010   19.2800   16.3860 C.3    44  LYS44       0.1693
      3  C         15.3940   19.2470   14.8640 C.2    44  LYS44       0.2592
      4  O         16.0880   19.9790   14.2450 O.2    44  LYS44      -0.2718
      5  CB        14.6730   20.5310   16.8260 C.3    44  LYS44       0.0285
      6  CG        13.3310   20.7880   16.1670 C.3    44  LYS44       0.0035
      7  CD        12.2560   19.7990   16.4560 C.3    44  LYS44       0.0206
      8  CE        11.0540   19.9560   15.5250 C.3    44  LYS44       0.1093
      9  NZ         9.9420   18.9940   15.9490 N.3    44  LYS44      -0.1314
     10  N         14.5010   18.4200   14.3000 N.am   45  SER45      -0.1952
     11  CA        14.3420   18.2930   12.8360 C.3    45  SER45       0.1924
     12  C         14.1280   19.6880   12.2830 C.2    45  SER45       0.2314
     13  O         13.2810   20.4110   12.7500 O.2    45  SER45      -0.2863
     14  CB        13.2100   17.3620   12.4150 C.3    45  SER45       0.2116
     15  OG        13.5860   16.0280   12.6920 O.3    45  SER45      -0.2180
     16  N         10.3410   28.0460   11.4800 N.3    51  ARG51      -0.1245
     17  CA         8.9260   27.7330   11.5450 C.3    51  ARG51       0.1563
     18  C          8.4040   27.9020   12.9490 C.2    51  ARG51       0.2260
     19  O          9.0330   27.5050   13.9240 O.2    51  ARG51      -0.2867
     20  CB         8.5820   26.2900   11.1160 C.3    51  ARG51       0.0307
     21  CG         8.8920   25.9540    9.6750 C.3    51  ARG51       0.0489
     22  CD         8.6150   24.5130    9.3260 C.3    51  ARG51       0.2205
     23  NE         7.2680   24.0460    9.6840 N.pl3  51  ARG51      -0.0865
     24  CZ         6.1990   24.1710    8.9070 C.cat  51  ARG51       0.5346
     25  NH1        6.2700   24.7430    7.6850 N.pl3  51  ARG51       0.1354
     26  NH2        5.0580   23.7130    9.3410 N.pl3  51  ARG51       0.1354
     27  N          2.5910   24.3370   14.6060 N.3    54  ASN54      -0.1240
     28  CA         1.1190   24.3110   14.7250 C.3    54  ASN54       0.1653
     29  C          0.6150   25.0590   15.9230 C.2    54  ASN54       0.2266
     30  O          1.3660   25.3200   16.8580 O.2    54  ASN54      -0.2867
     31  CB         0.6640   22.8420   14.7480 C.3    54  ASN54       0.1155
     32  CG         0.7270   22.1720   13.3830 C.2    54  ASN54       0.2627
     33  OD1        0.7660   22.8380   12.3330 O.2    54  ASN54      -0.2716
     34  ND2        0.6140   20.8650   13.3640 N.am   54  ASN54      -0.0877
     35  N          1.3060   14.2410   19.9830 N.3    68  ASN68      -0.1225
     36  CA         1.7590   15.5340   19.4790 C.3    68  ASN68       0.1785
     37  C          1.4190   15.7810   18.0300 C.2    68  ASN68       0.2598
     38  O          1.3950   14.8690   17.1960 O.2    68  ASN68      -0.2718
     39  CB         3.2670   15.7500   19.7330 C.3    68  ASN68       0.1169
     40  CG         4.1340   15.2050   18.6120 C.2    68  ASN68       0.2627
     41  OD1        4.2360   15.8070   17.5460 O.2    68  ASN68      -0.2716
     42  ND2        4.6870   14.0160   18.8020 N.am   68  ASN68      -0.0877
     43  N          1.2080   17.0600   17.6980 N.am   69  SER69      -0.1938
     44  CA         1.1800   17.5050   16.2900 C.3    69  SER69       0.2055
     45  C          1.9100   18.8320   16.2590 C.2    69  SER69       0.2643
     46  O          1.3260   19.8770   16.0080 O.2    69  SER69      -0.2714
     47  CB        -0.2270   17.6860   15.7630 C.3    69  SER69       0.2130
     48  OG        -0.2140   17.9880   14.3830 O.3    69  SER69      -0.2179
     49  N          3.2060   18.7880   16.5390 N.am   70  MET70      -0.1962
     50  CA         3.9800   19.9960   16.6870 C.3    70  MET70       0.1736
     51  C          4.0220   20.8290   15.4050 C.2    70  MET70       0.2617
     52  O          3.9210   22.0090   15.4430 O.2    70  MET70      -0.2715
     53  CB         5.3950   19.7040   17.1230 C.3    70  MET70       0.0427
     54  CG         5.5190   18.8440   18.3370 C.3    70  MET70       0.0599
     55  SD         4.8690   19.6150   19.7970 S.3    70  MET70      -0.1393
     56  CE         6.0510   20.9050   20.0130 C.3    70  MET70       0.0692
     57  N          4.1550   20.1620   14.2810 N.am   71  GLY71      -0.1940
     58  CA         4.2800   20.8450   13.0220 C.3    71  GLY71       0.2014
     59  C          5.6220   21.4490   12.6510 C.2    71  GLY71       0.2638
     60  O          5.6730   22.4330   12.0090 O.2    71  GLY71      -0.2714
     61  N          6.6810   20.7880   13.0870 N.am   72  LEU72      -0.1977
     62  CA         8.0310   21.1760   12.8100 C.3    72  LEU72       0.1596
     63  C          8.4320   22.5870   13.2480 C.2    72  LEU72       0.2287
     64  O          9.0620   23.3010   12.5180 O.2    72  LEU72      -0.2864
     65  CB         8.3600   20.9830   11.3390 C.3    72  LEU72       0.0297
     66  CG         8.9750   19.7070   10.8500 C.3    72  LEU72       0.0022
     67  CD1        9.0120   19.6820    9.3530 C.3    72  LEU72       0.0001
     68  CD2       10.2670   19.2710   11.5210 C.3    72  LEU72       0.0001
     69  N         14.4770   17.6450    8.2510 N.3   100  SER100     -0.1217
     70  CA        13.2010   17.1920    7.8170 C.3   100  SER100      0.1889
     71  C         12.5080   18.1300    6.8360 C.2   100  SER100      0.2288
     72  O         11.4960   18.6670    7.1310 O.2   100  SER100     -0.2866
     73  CB        12.3390   16.8770    9.0410 C.3   100  SER100      0.2089
     74  OG        11.0580   16.4860    8.7490 O.3   100  SER100     -0.2183
     75  N         10.3550   19.5880    3.7060 N.3   102  LEU102     -0.1245
     76  CA         9.0090   19.2630    3.2990 C.3   102  LEU102      0.1561
     77  C          8.8710   18.8120    1.8120 C.2   102  LEU102      0.2260
     78  O          7.8070   18.5910    1.3030 O.2   102  LEU102     -0.2867
     79  CB         8.0550   20.4080    3.6650 C.3   102  LEU102      0.0270
     80  CG         7.9430   20.6340    5.1880 C.3   102  LEU102      0.0019
     81  CD1        7.3000   21.9480    5.4830 C.3   102  LEU102      0.0001
     82  CD2        7.1660   19.5500    5.8530 C.3   102  LEU102      0.0001
     83  N         15.0030   12.6620    8.4520 N.3   128  ASN128     -0.1240
     84  CA        13.7100   12.1850    8.8850 C.3   128  ASN128      0.1653
     85  C         12.8210   11.8790    7.6960 C.2   128  ASN128      0.2266
     86  O         12.3800   12.7920    6.9310 O.2   128  ASN128     -0.2867
     87  CB        13.0210   13.2980    9.7160 C.3   128  ASN128      0.1155
     88  CG        11.6770   12.8700   10.2550 C.2   128  ASN128      0.2627
     89  OD1       11.3720   11.7210   10.3430 O.2   128  ASN128     -0.2716
     90  ND2       10.9310   13.7910   10.7070 N.am  128  ASN128     -0.0877
     91  N          9.9260   10.1290    8.2370 N.3   130  SER130     -0.1202
     92  CA         8.6350    9.9210    8.8350 C.3   130  SER130      0.2020
     93  C          8.0860   11.2900    8.8540 C.2   130  SER130      0.2619
     94  O          7.9990   11.8910    9.9070 O.2   130  SER130     -0.2717
     95  CB         8.7540    9.3740   10.2610 C.3   130  SER130      0.2103
     96  OG        10.0570    8.7960   10.5140 O.3   130  SER130     -0.2182
     97  N          7.7640   11.8220    7.6720 N.am  131  CYS131     -0.1956
     98  CA         7.2500   13.1740    7.5650 C.3   131  CYS131      0.1828
     99  C          6.3450   13.3620    6.3120 C.2   131  CYS131      0.2467
    100  O          6.3670   12.5340    5.3990 O.2   131  CYS131     -0.2730
    101  CB         8.4430   14.1170    7.4850 C.3   131  CYS131      0.0996
    102  SG         9.4260   13.9590    5.9880 S.3   131  CYS131     -0.0797
    103  N          5.5780   14.4720    6.2600 N.am  132  PRO132     -0.2726
    104  CA         4.8130   14.8780    5.0700 C.3   132  PRO132      0.1402
    105  C          5.5660   15.2410    3.8250 C.2   132  PRO132      0.2269
    106  O          6.6200   15.8710    3.8270 O.2   132  PRO132     -0.2865
    107  CB         3.9830   16.1360    5.5190 C.3   132  PRO132      0.0296
    108  CG         4.0830   16.1910    7.0090 C.3   132  PRO132      0.0237
    109  CD         5.2530   15.3140    7.4380 C.3   132  PRO132      0.0939
    110  N          0.3440   17.0160    0.5580 N.3   135  PRO135     -0.2116
    111  CA        -0.8990   16.6730    1.2660 C.3   135  PRO135      0.1372
    112  C         -1.8220   15.7860    0.4170 C.2   135  PRO135      0.2244
    113  O         -1.9170   16.0620   -0.7270 O.2   135  PRO135     -0.2868
    114  CB        -1.5740   18.0170    1.4620 C.3   135  PRO135      0.0268
    115  CG        -0.4850   18.9750    1.6060 C.3   135  PRO135      0.0207
    116  CD         0.4400   18.5590    0.5570 C.3   135  PRO135      0.0892
    117  N          9.8820    6.5520   14.7850 N.3   195  ASN195     -0.1225
    118  CA         9.1350    7.7750   14.9850 C.3   195  ASN195      0.1785
    119  C          7.7630    7.4180   15.6040 C.2   195  ASN195      0.2597
    120  O          7.5180    6.3020   15.9090 O.2   195  ASN195     -0.2718
    121  CB         9.0200    8.5660   13.6700 C.3   195  ASN195      0.1169
    122  CG         9.0350   10.0840   13.8700 C.2   195  ASN195      0.2627
    123  OD1        8.3180   10.6050   14.6320 O.2   195  ASN195     -0.2716
    124  ND2        9.9030   10.7600   13.1650 N.am  195  ASN195     -0.0877
    125  N          6.9320    8.4080   15.8700 N.am  196  SER196     -0.1952
    126  CA         5.6860    8.1890   16.5590 C.3   196  SER196      0.1924
    127  C          4.7930    7.2330   15.8100 C.2   196  SER196      0.2314
    128  O          4.8960    7.0960   14.6290 O.2   196  SER196     -0.2863
    129  CB         4.8540    9.4650   16.6930 C.3   196  SER196      0.2116
    130  OG         5.5090   10.5900   16.4020 O.3   196  SER196     -0.2180
    131  N         -5.3380   19.4110   13.6140 N.3   215  LYS215     -0.1245
    132  CA        -5.7530   18.1730   12.9490 C.3   215  LYS215      0.1561
    133  C         -6.8720   17.4530   13.7150 C.2   215  LYS215      0.2260
    134  O         -6.9030   16.2310   13.7640 O.2   215  LYS215     -0.2867
    135  CB        -4.5480   17.2380   12.7970 C.3   215  LYS215      0.0271
    136  CG        -3.4480   17.8230   11.9390 C.3   215  LYS215      0.0035
    137  CD        -2.1000   17.3560   12.4030 C.3   215  LYS215      0.0206
    138  CE        -1.9880   15.8480   12.5980 C.3   215  LYS215      0.1093
    139  NZ        -1.1400   15.5140   13.7210 N.3   215  LYS215     -0.1314
    140  N          0.8080   12.0990   16.5650 N.3   220  GLY220     -0.1225
    141  CA         1.5970   10.9180   16.7850 C.3   220  GLY220      0.1811
    142  C          1.7620   10.5570   18.2610 C.2   220  GLY220      0.2280
    143  O          1.8670   11.4210   19.1380 O.2   220  GLY220     -0.2866
@<TRIPOS>BOND
     1   113   112    2
     2   112   111    1
     3   116   110    1
     4   116   115    1
     5   110   111    1
     6   111   114    1
     7    78    77    2
     8   114   115    1
     9    77    76    1
    10    76    79    1
    11    76    75    1
    12    79    80    1
    13   105   106    2
    14   105   104    1
    15   104   107    1
    16   104   103    1
    17    80    81    1
    18    80    82    1
    19   100    99    2
    20   107   108    1
    21   102   101    1
    22   103    99   am
    23   103   109    1
    24    99    98    1
    25    71    72    2
    26    71    70    1
    27    86    85    2
    28   108   109    1
    29   101    98    1
    30    98    97    1
    31    97    93   am
    32    25    24    1
    33    85    84    1
    34    70    69    1
    35    70    73    1
    36    91    92    1
    37    83    84    1
    38    74    73    1
    39    92    93    1
    40    92    95    1
    41    93    94    2
    42    84    87    1
    43    24    26    1
    44    24    23    2
    45    22    21    1
    46    22    23    1
    47    67    66    1
    48    21    20    1
    49    87    88    1
    50    88    89    2
    51    88    90   am
    52    95    96    1
    53    66    65    1
    54    66    68    1
    55    20    17    1
    56    65    62    1
    57    16    17    1
    58    17    18    1
    59   136   137    1
    60   136   135    1
    61    60    59    2
    62    12    13    2
    63    12    11    1
    64    33    32    2
    65   137   138    1
    66    14    15    1
    67    14    11    1
    68    64    63    2
    69   138   139    1
    70    59    58    1
    71    59    61   am
    72   135   132    1
    73    62    61    1
    74    62    63    1
    75    11    10    1
    76    18    19    2
    77   132   131    1
    78   132   133    1
    79    58    57    1
    80   124   122   am
    81    34    32   am
    82    32    31    1
    83   121   122    1
    84   121   118    1
    85   133   134    2
    86   122   123    2
    87     4     3    2
    88    57    51   am
    89    10     3   am
    90    48    47    1
    91    27    28    1
    92   128   127    2
    93    28    31    1
    94    28    29    1
    95   117   118    1
    96     3     2    1
    97   118   119    1
    98    51    52    2
    99    51    50    1
   100     8     9    1
   101     8     7    1
   102   119   125   am
   103   119   120    2
   104    47    44    1
   105   127   126    1
   106   125   126    1
   107    29    30    2
   108    46    45    2
   109     6     7    1
   110     6     5    1
   111    45    44    1
   112    45    49   am
   113    44    43    1
   114     2     5    1
   115     2     1    1
   116   130   129    1
   117    49    50    1
   118   126   129    1
   119   140   141    1
   120    50    53    1
   121   141   142    1
   122    53    54    1
   123    38    37    2
   124    41    40    2
   125    43    37   am
   126    37    36    1
   127   142   143    2
   128    54    55    1
   129    40    42   am
   130    40    39    1
   131    36    39    1
   132    36    35    1
   133    55    56    1
