@<TRIPOS>MOLECULE
tmp/3w7rA06.pdb
 211 202 0 0 0
SMALL
GASTEIGER

@<TRIPOS>ATOM
      1  N         23.6290   -7.0840  -27.8810 N.3     9  TYR9       -0.1241
      2  CA        24.7570   -7.9170  -27.5000 C.3     9  TYR9        0.1605
      3  C         24.7020   -9.2830  -28.1420 C.2     9  TYR9        0.2264
      4  O         25.6380   -9.7970  -28.6320 O.2     9  TYR9       -0.2867
      5  CB        24.7990   -8.0190  -25.9850 C.3     9  TYR9        0.0534
      6  CG        25.6360   -6.9360  -25.3670 C.ar    9  TYR9       -0.0201
      7  CD1       25.1680   -5.6640  -25.2690 C.ar    9  TYR9       -0.0009
      8  CD2       26.9060   -7.1890  -24.9410 C.ar    9  TYR9       -0.0009
      9  CE1       25.9240   -4.6710  -24.7270 C.ar    9  TYR9        0.0417
     10  CE2       27.6680   -6.2070  -24.3840 C.ar    9  TYR9        0.0417
     11  CZ        27.1720   -4.9310  -24.2900 C.ar    9  TYR9        0.1957
     12  OH        27.8880   -3.8850  -23.7630 O.3     9  TYR9       -0.2866
     13  N         27.1370   -7.4640  -30.9080 N.3    13  LEU13      -0.1231
     14  CA        28.3940   -7.2920  -30.2340 C.3    13  LEU13       0.1693
     15  C         29.1240   -8.6110  -29.9630 C.2    13  LEU13       0.2591
     16  O         30.2500   -8.7270  -30.2940 O.2    13  LEU13      -0.2718
     17  CB        28.2560   -6.4500  -28.9690 C.3    13  LEU13       0.0284
     18  CG        29.5100   -5.9160  -28.2940 C.3    13  LEU13       0.0019
     19  CD1       29.2010   -4.6720  -27.5370 C.3    13  LEU13       0.0001
     20  CD2       30.1780   -6.9170  -27.3750 C.3    13  LEU13       0.0001
     21  N         28.4350   -9.6000  -29.3920 N.am   14  MET14      -0.1979
     22  CA        29.1300  -10.8250  -29.0150 C.3    14  MET14       0.1605
     23  C         29.6210  -11.6370  -30.2050 C.2    14  MET14       0.2287
     24  O         30.7200  -12.0620  -30.2300 O.2    14  MET14      -0.2864
     25  CB        28.2890  -11.6450  -28.0510 C.3    14  MET14       0.0413
     26  CG        28.0260  -10.9020  -26.7720 C.3    14  MET14       0.0598
     27  SD        29.4740  -10.6060  -25.7430 S.3    14  MET14      -0.1393
     28  CE        29.9860  -12.2650  -25.3400 C.3    14  MET14       0.0692
     29  N         32.6760   -9.8210  -31.5010 N.3    17  LEU17      -0.1231
     30  CA        33.8180  -10.0630  -30.6610 C.3    17  LEU17       0.1693
     31  C         34.4100  -11.4540  -30.8670 C.2    17  LEU17       0.2591
     32  O         35.5890  -11.6080  -30.8280 O.2    17  LEU17      -0.2718
     33  CB        33.4140   -9.8590  -29.2140 C.3    17  LEU17       0.0284
     34  CG        34.3520  -10.2090  -28.0860 C.3    17  LEU17       0.0019
     35  CD1       35.6480   -9.4630  -28.1250 C.3    17  LEU17       0.0001
     36  CD2       33.7100  -10.1130  -26.7240 C.3    17  LEU17       0.0001
     37  N         33.5740  -12.4760  -31.0400 N.am   18  GLN18      -0.1979
     38  CA        34.0260  -13.8630  -31.1490 C.3    18  GLN18       0.1601
     39  C         34.7320  -14.0740  -32.4730 C.2    18  GLN18       0.2287
     40  O         35.5500  -14.8960  -32.6730 O.2    18  GLN18      -0.2864
     41  CB        32.8580  -14.8580  -30.9840 C.3    18  GLN18       0.0394
     42  CG        32.1120  -14.7830  -29.6570 C.3    18  GLN18       0.0908
     43  CD        31.2110  -15.9930  -29.3520 C.2    18  GLN18       0.2608
     44  OE1       30.5540  -16.5160  -30.2260 O.2    18  GLN18      -0.2717
     45  NE2       31.1880  -16.4370  -28.0830 N.am   18  GLN18      -0.0878
     46  N         38.7320  -17.3980  -27.8430 N.2    23  PRO23      -0.2584
     47  CA        38.0220  -17.3320  -26.5740 C.3    23  PRO23       0.1895
     48  C         38.8940  -16.8920  -25.4050 C.2    23  PRO23       0.2359
     49  O         38.3820  -16.1680  -24.5770 O.2    23  PRO23      -0.2858
     50  CB        37.4960  -18.7400  -26.3600 C.2    23  PRO23       0.0071
     51  CG        37.7780  -19.4600  -27.5860 C.2    23  PRO23       0.0180
     52  CD        38.5000  -18.6770  -28.5680 C.2    23  PRO23       0.0937
     53  N         39.3920  -13.1350  -25.6640 N.3    26  ALA26      -0.1231
     54  CA        38.1780  -12.4680  -25.3290 C.3    26  ALA26       0.1694
     55  C         37.9220  -12.5010  -23.8160 C.2    26  ALA26       0.2592
     56  O         37.4570  -11.4810  -23.2770 O.2    26  ALA26      -0.2718
     57  CB        37.0090  -13.1140  -26.0520 C.3    26  ALA26       0.0304
     58  N         38.1780  -13.6140  -23.1660 N.am   27  HIS27      -0.1976
     59  CA        38.0200  -13.6810  -21.7450 C.3    27  HIS27       0.1656
     60  C         38.9240  -12.6880  -21.0220 C.2    27  HIS27       0.2291
     61  O         38.4980  -11.9550  -20.1970 O.2    27  HIS27      -0.2864
     62  CB        38.4350  -15.0710  -21.3470 C.3    27  HIS27       0.0771
     63  CG        38.3600  -15.3430  -19.8910 C.ar   27  HIS27       0.0820
     64  ND1       39.0010  -16.4050  -19.3080 N.ar   27  HIS27      -0.2267
     65  CD2       37.6270  -14.7750  -18.9200 C.ar   27  HIS27       0.1154
     66  CE1       38.7150  -16.4210  -18.0170 C.ar   27  HIS27       0.1986
     67  NE2       37.9250  -15.4120  -17.7530 N.ar   27  HIS27      -0.2212
     68  N         37.4910   -9.2950  -21.4740 N.3    30  ALA30      -0.1245
     69  CA        36.3220   -9.1240  -20.7040 C.3    30  ALA30       0.1562
     70  C         36.6330   -8.9030  -19.2030 C.2    30  ALA30       0.2260
     71  O         35.9410   -8.1390  -18.5520 O.2    30  ALA30      -0.2867
     72  CB        35.4220  -10.3900  -20.8220 C.3    30  ALA30       0.0290
     73  N         37.7510   -5.2110  -18.9500 N.3    33  PHE33      -0.1227
     74  CA        36.6360   -4.2850  -19.0080 C.3    33  PHE33       0.1736
     75  C         35.7480   -4.2650  -17.7950 C.2    33  PHE33       0.2596
     76  O         35.2890   -3.2760  -17.2550 O.2    33  PHE33      -0.2718
     77  CB        35.7520   -4.5130  -20.2640 C.3    33  PHE33       0.0547
     78  CG        36.2030   -3.7230  -21.5080 C.ar   33  PHE33      -0.0202
     79  CD1       37.3580   -4.0410  -22.1390 C.ar   33  PHE33      -0.0042
     80  CD2       35.4280   -2.7850  -21.9790 C.ar   33  PHE33      -0.0042
     81  CE1       37.8030   -3.3020  -23.2940 C.ar   33  PHE33      -0.0003
     82  CE2       35.8550   -1.9890  -23.0800 C.ar   33  PHE33      -0.0003
     83  CZ        36.9780   -2.3330  -23.7590 C.ar   33  PHE33      -0.0000
     84  N         35.4960   -5.5090  -17.2880 N.am   34  THR34      -0.1953
     85  CA        34.6540   -5.6280  -16.1580 C.3    34  THR34       0.1897
     86  C         35.3790   -5.0110  -14.9620 C.2    34  THR34       0.2313
     87  O         34.7040   -4.3510  -14.1570 O.2    34  THR34      -0.2863
     88  CB        34.3350   -7.1640  -15.9110 C.3    34  THR34       0.1794
     89  OG1       33.6490   -7.6880  -17.0830 O.3    34  THR34      -0.2208
     90  CG2       33.5230   -7.3600  -14.6490 C.3    34  THR34       0.0378
     91  N         33.4830   -0.9220  -17.0350 N.3    38  LEU38      -0.1231
     92  CA        33.0560   -0.5300  -18.4110 C.3    38  LEU38       0.1693
     93  C         32.0040   -1.4530  -18.9750 C.2    38  LEU38       0.2592
     94  O         32.3890   -2.3860  -19.7100 O.2    38  LEU38      -0.2718
     95  CB        34.2440   -0.4840  -19.3290 C.3    38  LEU38       0.0284
     96  CG        35.3300    0.5310  -18.9680 C.3    38  LEU38       0.0019
     97  CD1       36.4950    0.3920  -19.9080 C.3    38  LEU38       0.0001
     98  CD2       34.8120    2.0010  -19.0060 C.3    38  LEU38       0.0001
     99  N         30.8100   -1.2200  -18.5080 N.am   39  LEU39      -0.1966
    100  CA        29.6930   -2.1820  -18.7010 C.3    39  LEU39       0.1713
    101  C         28.4310   -1.5320  -19.2410 C.2    39  LEU39       0.2458
    102  O         28.1550   -0.3860  -18.9230 O.2    39  LEU39      -0.2730
    103  CB        29.3580   -2.8530  -17.3110 C.3    39  LEU39       0.0310
    104  CG        30.4390   -3.6510  -16.6640 C.3    39  LEU39       0.0022
    105  CD1       30.1570   -3.9250  -15.2080 C.3    39  LEU39       0.0001
    106  CD2       30.5140   -5.0160  -17.3740 C.3    39  LEU39       0.0001
    107  N         27.5990   -2.2850  -20.0110 N.am   40  PRO40      -0.2727
    108  CA        26.2840   -1.7510  -20.3150 C.3    40  PRO40       0.1402
    109  C         25.4900   -1.5360  -19.0350 C.2    40  PRO40       0.2269
    110  O         25.6970   -2.2030  -18.0010 O.2    40  PRO40      -0.2865
    111  CB        25.6670   -2.8100  -21.2770 C.3    40  PRO40       0.0296
    112  CG        26.3240   -4.0930  -20.8270 C.3    40  PRO40       0.0237
    113  CD        27.7210   -3.7020  -20.4040 C.3    40  PRO40       0.0939
    114  N         35.5570  -17.3950  -14.2440 N.3    69  PHE69      -0.1241
    115  CA        35.5010  -16.1480  -14.9810 C.3    69  PHE69       0.1605
    116  C         36.5740  -15.2060  -14.3260 C.2    69  PHE69       0.2264
    117  O         37.4580  -14.6810  -15.0440 O.2    69  PHE69      -0.2867
    118  CB        34.1580  -15.4920  -15.0660 C.3    69  PHE69       0.0534
    119  CG        34.1950  -14.1750  -15.7660 C.ar   69  PHE69      -0.0203
    120  CD1       34.3440  -14.1190  -17.1110 C.ar   69  PHE69      -0.0042
    121  CD2       34.2150  -12.9750  -15.0440 C.ar   69  PHE69      -0.0042
    122  CE1       34.4370  -12.9400  -17.8170 C.ar   69  PHE69      -0.0003
    123  CE2       34.3270  -11.7180  -15.7100 C.ar   69  PHE69      -0.0003
    124  CZ        34.4490  -11.7410  -17.1170 C.ar   69  PHE69      -0.0000
    125  N         27.6120   -5.6120  -12.6170 N.3    82  MET82      -0.1196
    126  CA        26.9440   -6.3270  -13.6770 C.3    82  MET82       0.1786
    127  C         25.6090   -6.8590  -13.1970 C.2    82  MET82       0.2306
    128  O         24.8020   -7.2360  -13.9880 O.2    82  MET82      -0.2863
    129  CB        27.8260   -7.4660  -14.2050 C.2    82  MET82       0.0070
    130  CG        27.6070   -7.8520  -15.6260 C.2    82  MET82       0.0282
    131  SD        28.7220   -9.1410  -16.2580 S.3    82  MET82      -0.1125
    132  CE        30.2640   -8.2780  -16.4390 C.3    82  MET82       0.0742
    133  N         40.8280  -23.3100  -24.5290 N.3   105  VAL105     -0.1245
    134  CA        39.3990  -23.0080  -24.4210 C.3   105  VAL105      0.1561
    135  C         38.8300  -22.9600  -25.8110 C.2   105  VAL105      0.2260
    136  O         39.4490  -22.3920  -26.7520 O.2   105  VAL105     -0.2867
    137  CB        39.1050  -21.6850  -23.7500 C.3   105  VAL105      0.0252
    138  CG1       37.6020  -21.4640  -23.4270 C.3   105  VAL105      0.0019
    139  CG2       40.0250  -21.3570  -22.6400 C.3   105  VAL105      0.0019
    140  N         35.0910  -22.7010  -28.2360 N.3   107  ARG107     -0.1245
    141  CA        33.6700  -22.4780  -28.3990 C.3   107  ARG107      0.1563
    142  C         32.9800  -23.5470  -29.2630 C.2   107  ARG107      0.2260
    143  O         33.4780  -23.9240  -30.2360 O.2   107  ARG107     -0.2867
    144  CB        33.3770  -21.1040  -28.9720 C.3   107  ARG107      0.0307
    145  CG        33.9990  -19.9510  -28.2060 C.3   107  ARG107      0.0489
    146  CD        33.6340  -18.6230  -28.8650 C.3   107  ARG107      0.2205
    147  NE        34.2620  -17.4170  -28.3260 N.pl3 107  ARG107     -0.0865
    148  CZ        35.1410  -16.6190  -28.9440 C.cat 107  ARG107      0.5346
    149  NH1       35.6250  -16.9040  -30.1260 N.pl3 107  ARG107      0.1354
    150  NH2       35.5520  -15.5560  -28.3350 N.pl3 107  ARG107      0.1354
    151  N         30.8370  -24.4660  -24.3330 N.3   114  VAL114     -0.1245
    152  CA        32.2870  -24.3000  -24.3330 C.3   114  VAL114      0.1561
    153  C         32.9020  -25.5000  -23.7630 C.2   114  VAL114      0.2260
    154  O         32.3590  -26.2650  -22.9570 O.2   114  VAL114     -0.2867
    155  CB        32.6220  -23.0440  -23.4870 C.3   114  VAL114      0.0252
    156  CG1       34.1160  -22.9280  -23.1250 C.3   114  VAL114      0.0019
    157  CG2       32.1610  -21.7190  -24.1640 C.3   114  VAL114      0.0019
    158  N         36.6610  -26.3080  -21.9730 N.3   116  ASN116     -0.1240
    159  CA        37.9170  -25.7530  -21.4500 C.3   116  ASN116      0.1653
    160  C         38.7600  -26.8200  -20.8170 C.2   116  ASN116      0.2266
    161  O         38.3310  -27.7500  -20.1360 O.2   116  ASN116     -0.2867
    162  CB        37.6710  -24.5890  -20.5240 C.3   116  ASN116      0.1155
    163  CG        37.5020  -25.0260  -19.1250 C.2   116  ASN116      0.2627
    164  OD1       38.4490  -25.1980  -18.3270 O.2   116  ASN116     -0.2716
    165  ND2       36.1950  -25.2880  -18.7620 N.am  116  ASN116     -0.0877
    166  N         41.7260  -25.3500  -19.0030 N.3   118  TYR118     -0.1298
    167  CA        42.7270  -24.3490  -18.4630 C.3   118  TYR118      0.1290
    168  C         43.7180  -25.0090  -17.5940 C.3   118  TYR118      0.2013
    169  O         44.9770  -24.6680  -17.6790 O.3   118  TYR118     -0.2188
    170  CB        42.0210  -23.2550  -17.7330 C.3   118  TYR118      0.0480
    171  CG        41.7010  -22.1100  -18.5370 C.ar  118  TYR118     -0.0204
    172  CD1       42.6980  -21.2440  -18.9540 C.ar  118  TYR118     -0.0009
    173  CD2       40.4340  -21.8180  -18.9070 C.ar  118  TYR118     -0.0009
    174  CE1       42.4080  -20.1080  -19.7040 C.ar  118  TYR118      0.0417
    175  CE2       40.1060  -20.6890  -19.6300 C.ar  118  TYR118      0.0417
    176  CZ        41.1340  -19.7920  -20.0050 C.ar  118  TYR118      0.1957
    177  OH        40.7430  -18.7040  -20.7230 O.3   118  TYR118     -0.2866
    178  N         28.1310  -18.9350  -16.0210 N.3   327  TYR327     -0.1241
    179  CA        29.3320  -18.4610  -16.6790 C.3   327  TYR327      0.1605
    180  C         29.1300  -18.5090  -18.2320 C.2   327  TYR327      0.2264
    181  O         29.1010  -17.5020  -18.8870 O.2   327  TYR327     -0.2867
    182  CB        30.5570  -19.2480  -16.1760 C.3   327  TYR327      0.0534
    183  CG        31.9030  -18.8390  -16.7440 C.ar  327  TYR327     -0.0201
    184  CD1       32.0180  -17.8260  -17.6180 C.ar  327  TYR327     -0.0009
    185  CD2       33.0260  -19.4970  -16.3730 C.ar  327  TYR327     -0.0009
    186  CE1       33.2380  -17.4910  -18.1220 C.ar  327  TYR327      0.0417
    187  CE2       34.2260  -19.2000  -16.8760 C.ar  327  TYR327      0.0417
    188  CZ        34.3370  -18.1840  -17.7650 C.ar  327  TYR327      0.1957
    189  OH        35.5360  -17.8910  -18.2500 O.3   327  TYR327     -0.2866
    190  N         27.1510  -16.0450  -20.2490 N.3   330  LEU330     -0.1231
    191  CA        27.8120  -14.7240  -20.4040 C.3   330  LEU330      0.1693
    192  C         28.6450  -14.6710  -21.6320 C.2   330  LEU330      0.2592
    193  O         28.7650  -13.6180  -22.3390 O.2   330  LEU330     -0.2718
    194  CB        28.6010  -14.3960  -19.0500 C.3   330  LEU330      0.0284
    195  CG        29.2820  -13.0730  -18.9340 C.3   330  LEU330      0.0019
    196  CD1       28.2930  -12.0450  -18.7760 C.3   330  LEU330      0.0001
    197  CD2       30.2010  -13.1630  -17.7390 C.3   330  LEU330      0.0001
    198  N         29.2890  -15.8100  -21.9820 N.am  331  THR331     -0.1953
    199  CA        30.1450  -15.9080  -23.0990 C.3   331  THR331      0.1897
    200  C         29.4430  -15.8390  -24.3950 C.2   331  THR331      0.2313
    201  O         30.0530  -15.5030  -25.4090 O.2   331  THR331     -0.2863
    202  CB        31.1960  -17.0620  -22.9440 C.3   331  THR331      0.1794
    203  OG1       30.5650  -18.1900  -23.4590 O.3   331  THR331     -0.2208
    204  CG2       31.7730  -17.1560  -21.5430 C.3   331  THR331      0.0378
    205  N         27.0330   -9.3350  -20.8140 N.3   335  PRO335     -0.2116
    206  CA        26.5020   -8.8370  -19.5750 C.3   335  PRO335      0.1372
    207  C         25.0000   -8.6660  -19.4330 C.2   335  PRO335      0.2244
    208  O         24.4970   -8.8660  -18.3340 O.2   335  PRO335     -0.2868
    209  CB        27.2730   -7.5000  -19.3960 C.3   335  PRO335      0.0268
    210  CG        28.5730   -7.7620  -20.1010 C.3   335  PRO335      0.0207
    211  CD        28.2410   -8.5890  -21.2700 C.3   335  PRO335      0.0892
@<TRIPOS>BOND
     1    40    39    2
     2    39    38    1
     3    29    30    1
     4    38    37    1
     5    38    41    1
     6    37    31   am
     7    41    42    1
     8    13    14    1
     9    31    32    2
    10    31    30    1
    11    30    33    1
    12    16    15    2
    13   143   142    2
    14    14    15    1
    15    14    17    1
    16    24    23    2
    17    44    43    2
    18    23    22    1
    19   149   148    1
    20    15    21   am
    21    42    43    1
    22    21    22    1
    23    43    45   am
    24   142   141    1
    25    33    34    1
    26    22    25    1
    27   144   141    1
    28   144   145    1
    29    17    18    1
    30   148   150    1
    31   148   147    2
    32   146   147    1
    33   146   145    1
    34     4     3    2
    35    52    46    2
    36    52    51    1
    37   141   140    1
    38    18    19    1
    39    18    20    1
    40     3     2    1
    41    35    34    1
    42    34    36    1
    43    25    26    1
    44     1     2    1
    45    46    47    1
    46    51    50    2
    47     2     5    1
    48    26    27    1
    49   136   135    2
    50    47    50    1
    51    47    48    1
    52    57    54    1
    53     5     6    1
    54   135   134    1
    55    27    28    1
    56    53    54    1
    57   201   200    2
    58    48    49    2
    59     6     7   ar
    60     6     8   ar
    61    54    55    1
    62     7     9   ar
    63     8    10   ar
    64     9    11   ar
    65   133   134    1
    66   134   137    1
    67   200   199    1
    68    10    11   ar
    69   151   152    1
    70   152   153    1
    71   152   155    1
    72    11    12    1
    73   157   155    1
    74    55    56    2
    75    55    58   am
    76   153   154    2
    77    83    81   ar
    78    83    82   ar
    79   137   138    1
    80   137   139    1
    81   155   156    1
    82   203   202    1
    83    81    79   ar
    84    58    59    1
    85   199   202    1
    86   199   198    1
    87    82    80   ar
    88   202   204    1
    89   193   192    2
    90    79    78   ar
    91   198   192   am
    92    80    78   ar
    93   158   159    1
    94    59    62    1
    95    59    60    1
    96   192   191    1
    97    78    77    1
    98    68    69    1
    99   159   160    1
   100   159   162    1
   101    62    63    1
   102   111   112    1
   103   111   108    1
   104   211   205    1
   105   211   210    1
   106    60    61    2
   107   112   113    1
   108    72    69    1
   109   160   161    2
   110   205   206    1
   111   177   176    1
   112    69    70    1
   113   162   163    1
   114   113   107    1
   115   191   190    1
   116   191   194    1
   117   108   107    1
   118   108   109    1
   119    77    74    1
   120   210   209    1
   121   107   101   am
   122   176   174   ar
   123   176   175   ar
   124    97    96    1
   125    63    64   ar
   126    63    65   ar
   127    94    93    2
   128   174   172   ar
   129   175   173   ar
   130   206   207    1
   131   206   209    1
   132   207   208    2
   133    95    96    1
   134    95    92    1
   135    64    66   ar
   136   101   102    2
   137   101   100    1
   138    70    71    2
   139   163   165   am
   140   163   164    2
   141   194   195    1
   142   109   110    2
   143    74    73    1
   144    74    75    1
   145    98    96    1
   146   166   167    1
   147    93    99   am
   148    93    92    1
   149   172   171   ar
   150   195   196    1
   151   195   197    1
   152    65    67   ar
   153   173   171   ar
   154   181   180    2
   155   100    99    1
   156   100   103    1
   157   171   170    1
   158   167   170    1
   159   167   168    1
   160    92    91    1
   161   189   188    1
   162   180   179    1
   163   186   188   ar
   164   186   184   ar
   165    66    67   ar
   166   122   124   ar
   167   122   120   ar
   168    75    84   am
   169    75    76    2
   170   188   187   ar
   171   169   168    1
   172   184   183   ar
   173   106   104    1
   174   103   104    1
   175    84    85    1
   176   124   123   ar
   177   120   119   ar
   178    89    88    1
   179   187   185   ar
   180   183   185   ar
   181   183   182    1
   182   179   182    1
   183   179   178    1
   184   104   105    1
   185   132   131    1
   186   131   130    1
   187    85    88    1
   188    85    86    1
   189    88    90    1
   190   119   118    1
   191   119   121   ar
   192   123   121   ar
   193   130   129    2
   194   118   115    1
   195   117   116    2
   196   115   116    1
   197   115   114    1
   198    86    87    2
   199   129   126    1
   200   128   127    2
   201   126   127    1
   202   126   125    1
