@<TRIPOS>MOLECULE
tmp/3w7sA01.pdb
 106 107 0 0 0
SMALL
GASTEIGER

@<TRIPOS>ATOM
      1  N          9.3410   -2.5570   20.1090 N.3   185  TRP185     -0.1241
      2  CA         9.6960   -3.0220   21.4470 C.3   185  TRP185      0.1605
      3  C         10.7280   -2.1540   22.1530 C.2   185  TRP185      0.2264
      4  O         11.1620   -2.4940   23.2770 O.2   185  TRP185     -0.2867
      5  CB        10.2290   -4.4650   21.3750 C.3   185  TRP185      0.0550
      6  CG         9.3500   -5.4160   20.6690 C.ar  185  TRP185      0.0003
      7  CD1        9.7050   -6.2320   19.6210 C.ar  185  TRP185      0.0946
      8  CD2        7.9660   -5.6830   20.9310 C.ar  185  TRP185      0.0152
      9  NE1        8.6300   -6.9820   19.2300 N.ar  185  TRP185     -0.2442
     10  CE2        7.5510   -6.6660   20.0110 C.ar  185  TRP185      0.0810
     11  CE3        7.0360   -5.1870   21.8490 C.ar  185  TRP185      0.0012
     12  CZ2        6.2430   -7.1530   19.9660 C.ar  185  TRP185      0.0191
     13  CZ3        5.7290   -5.6790   21.8060 C.ar  185  TRP185      0.0001
     14  CH2        5.3490   -6.6590   20.8760 C.ar  185  TRP185      0.0015
     15  N         -6.9300   -5.6130   28.0740 N.3   368  ASP368     -0.1225
     16  CA        -5.8670   -5.8600   29.0390 C.3   368  ASP368      0.1805
     17  C         -4.8140   -4.7500   29.0510 C.2   368  ASP368      0.2597
     18  O         -4.2430   -4.4350   30.0910 O.2   368  ASP368     -0.2718
     19  CB        -5.1910   -7.1670   28.6530 C.3   368  ASP368      0.1424
     20  CG        -4.0610   -7.5460   29.5550 C.2   368  ASP368      0.3668
     21  OD1       -4.1910   -7.4120   30.7790 O.co2 368  ASP368     -0.2456
     22  OD2       -3.0500   -8.0410   29.0240 O.co2 368  ASP368     -0.2456
     23  N         -4.5360   -4.2000   27.8750 N.am  369  LEU369     -0.1979
     24  CA        -3.4410   -3.2720   27.6940 C.3   369  LEU369      0.1596
     25  C         -3.7770   -2.2830   26.5770 C.2   369  LEU369      0.2287
     26  O         -3.9560   -2.6740   25.4200 O.2   369  LEU369     -0.2864
     27  CB        -2.1380   -4.0400   27.3820 C.3   369  LEU369      0.0297
     28  CG        -0.7930   -3.3370   27.6340 C.3   369  LEU369      0.0022
     29  CD1        0.3680   -4.3150   27.5160 C.3   369  LEU369      0.0001
     30  CD2       -0.5190   -2.1540   26.7180 C.3   369  LEU369      0.0001
     31  N          2.6550   -2.8880   19.2190 N.3   383  GLY383     -0.1210
     32  CA         2.7990   -4.2930   19.5650 C.3   383  GLY383      0.1956
     33  C          2.3150   -4.6340   20.9670 C.2   383  GLY383      0.2612
     34  O          2.1910   -5.8050   21.3100 O.2   383  GLY383     -0.2717
     35  N          2.0480   -3.6300   21.7860 N.am  384  ASN384     -0.1960
     36  CA         1.6870   -3.8600   23.1870 C.3   384  ASN384      0.1819
     37  C          0.1680   -3.9910   23.4000 C.2   384  ASN384      0.2621
     38  O         -0.2760   -4.8930   24.1390 O.2   384  ASN384     -0.2715
     39  CB         2.3110   -2.7630   24.0810 C.3   384  ASN384      0.1195
     40  CG         3.8350   -2.8820   24.1970 C.2   384  ASN384      0.2630
     41  OD1        4.5840   -1.8820   24.0670 O.2   384  ASN384     -0.2716
     42  ND2        4.3080   -4.0850   24.4320 N.am  384  ASN384     -0.0877
     43  N         -0.6100   -3.1180   22.7380 N.am  385  TRP385     -0.1960
     44  CA        -2.0800   -3.1380   22.7740 C.3   385  TRP385      0.1771
     45  C         -2.5920   -4.5750   22.7600 C.2   385  TRP385      0.2620
     46  O         -2.2890   -5.3280   21.8240 O.2   385  TRP385     -0.2715
     47  CB        -2.6700   -2.3720   21.5730 C.3   385  TRP385      0.0590
     48  CG        -4.1420   -2.0690   21.7460 C.ar  385  TRP385      0.0006
     49  CD1       -5.1920   -2.9420   21.6450 C.ar  385  TRP385      0.0946
     50  CD2       -4.6970   -0.8190   22.0970 C.ar  385  TRP385      0.0152
     51  NE1       -6.3770   -2.2870   21.9180 N.ar  385  TRP385     -0.2442
     52  CE2       -6.0870   -0.9810   22.2010 C.ar  385  TRP385      0.0810
     53  CE3       -4.1480    0.4490   22.3330 C.ar  385  TRP385      0.0012
     54  CZ2       -6.9350    0.0720   22.5560 C.ar  385  TRP385      0.0191
     55  CZ3       -4.9960    1.4860   22.6630 C.ar  385  TRP385      0.0001
     56  CH2       -6.3670    1.2970   22.7590 C.ar  385  TRP385      0.0015
     57  N         -3.3410   -4.9650   23.7970 N.am  386  ASN386     -0.1958
     58  CA        -3.7410   -6.3640   23.9830 C.3   386  ASN386      0.1819
     59  C         -5.2330   -6.5530   24.2700 C.2   386  ASN386      0.2621
     60  O         -5.7660   -5.9730   25.2330 O.2   386  ASN386     -0.2715
     61  CB        -2.9240   -7.0010   25.1020 C.3   386  ASN386      0.1195
     62  CG        -3.2200   -8.4890   25.2900 C.2   386  ASN386      0.2630
     63  OD1       -3.2740   -8.9660   26.4170 O.2   386  ASN386     -0.2716
     64  ND2       -3.3880   -9.2240   24.2050 N.am  386  ASN386     -0.0877
     65  N         -5.8880   -7.3500   23.4220 N.am  387  GLU387     -0.1963
     66  CA        -7.2920   -7.7430   23.6180 C.3   387  GLU387      0.1733
     67  C         -7.4860   -9.2670   23.5940 C.2   387  GLU387      0.2616
     68  O         -8.5920   -9.7570   23.3550 O.2   387  GLU387     -0.2715
     69  CB        -8.1930   -7.0560   22.5850 C.3   387  GLU387      0.0429
     70  CG        -8.0960   -5.5450   22.6490 C.3   387  GLU387      0.1163
     71  CD        -9.0180   -4.8000   21.7140 C.2   387  GLU387      0.3649
     72  OE1       -9.8700   -5.4040   21.0220 O.co2 387  GLU387     -0.2457
     73  OE2       -8.8760   -3.5620   21.6910 O.co2 387  GLU387     -0.2457
     74  N         -6.4170  -10.0040   23.8780 N.am  388  ARG388     -0.1977
     75  CA        -6.4740  -11.4590   24.0480 C.3   388  ARG388      0.1597
     76  C         -7.1440  -11.8800   25.3610 C.2   388  ARG388      0.2287
     77  O         -7.5010  -13.0380   25.5200 O.2   388  ARG388     -0.2864
     78  CB        -5.0650  -12.0560   24.0020 C.3   388  ARG388      0.0334
     79  CG        -4.4250  -12.0130   22.6160 C.3   388  ARG388      0.0492
     80  CD        -2.9500  -12.4020   22.6230 C.3   388  ARG388      0.2205
     81  NE        -2.7200  -13.7730   23.0710 N.pl3 388  ARG388     -0.0865
     82  CZ        -1.5280  -14.3490   23.1360 C.cat 388  ARG388      0.5346
     83  NH1       -0.4430  -13.6710   22.8110 N.pl3 388  ARG388      0.1354
     84  NH2       -1.4140  -15.6040   23.5610 N.pl3 388  ARG388      0.1354
     85  N         -9.2570  -14.4230   19.1080 N.3   445  ASP445     -0.1239
     86  CA        -8.1770  -13.5430   18.6940 C.3   445  ASP445      0.1674
     87  C         -7.3330  -14.2210   17.6280 C.2   445  ASP445      0.2266
     88  O         -7.2760  -15.4510   17.5590 O.2   445  ASP445     -0.2867
     89  CB        -7.2840  -13.2480   19.8890 C.3   445  ASP445      0.1410
     90  CG        -6.3750  -12.0580   19.6670 C.2   445  ASP445      0.3668
     91  OD1       -6.8840  -10.9200   19.7680 O.co2 445  ASP445     -0.2456
     92  OD2       -5.1620  -12.2640   19.4370 O.co2 445  ASP445     -0.2456
     93  N         -2.6180  -14.8940   31.8550 N.3   496  TRP496     -0.1241
     94  CA        -2.5310  -13.4260   31.9170 C.3   496  TRP496      0.1605
     95  C         -3.7830  -12.8330   32.5050 C.2   496  TRP496      0.2264
     96  O         -3.7130  -11.8990   33.2870 O.2   496  TRP496     -0.2867
     97  CB        -2.3090  -12.7910   30.5510 C.3   496  TRP496      0.0550
     98  CG        -1.0640  -13.2540   29.8360 C.ar  496  TRP496      0.0003
     99  CD1       -0.0210  -13.9550   30.3600 C.ar  496  TRP496      0.0946
    100  CD2       -0.7280  -12.9920   28.4720 C.ar  496  TRP496      0.0152
    101  NE1        0.9390  -14.1600   29.3990 N.ar  496  TRP496     -0.2442
    102  CE2        0.5220  -13.5930   28.2250 C.ar  496  TRP496      0.0810
    103  CE3       -1.3800  -12.3320   27.4220 C.ar  496  TRP496      0.0012
    104  CZ2        1.1390  -13.5440   26.9770 C.ar  496  TRP496      0.0191
    105  CZ3       -0.7680  -12.2860   26.1800 C.ar  496  TRP496      0.0001
    106  CH2        0.4780  -12.8920   25.9690 C.ar  496  TRP496      0.0015
@<TRIPOS>BOND
     1    88    87    2
     2    87    86    1
     3    86    85    1
     4    86    89    1
     5    31    32    1
     6     9     7   ar
     7     9    10   ar
     8    92    90   ar
     9    32    33    1
    10     7     6   ar
    11    90    91   ar
    12    90    89    1
    13    12    10   ar
    14    12    14   ar
    15    10     8   ar
    16     1     2    1
    17     6     8   ar
    18     6     5    1
    19    14    13   ar
    20     8    11   ar
    21    33    34    2
    22    33    35   am
    23    72    71   ar
    24     5     2    1
    25     2     3    1
    26    47    48    1
    27    47    44    1
    28    49    48   ar
    29    49    51   ar
    30    73    71   ar
    31    71    70    1
    32    48    50   ar
    33    35    36    1
    34    13    11   ar
    35    46    45    2
    36    51    52   ar
    37    50    52   ar
    38    50    53   ar
    39     3     4    2
    40    52    54   ar
    41    53    55   ar
    42    54    56   ar
    43    69    70    1
    44    69    66    1
    45    79    80    1
    46    79    78    1
    47    80    81    1
    48    55    56   ar
    49    43    44    1
    50    43    37   am
    51    45    44    1
    52    45    57   am
    53    83    82    1
    54    81    82    2
    55    82    84    1
    56    36    37    1
    57    36    39    1
    58    68    67    2
    59    37    38    2
    60    65    66    1
    61    65    59   am
    62    67    66    1
    63    67    74   am
    64    57    58    1
    65    74    75    1
    66    58    59    1
    67    58    61    1
    68    78    75    1
    69    75    76    1
    70    41    40    2
    71    39    40    1
    72    40    42   am
    73    64    62   am
    74    59    60    2
    75    61    62    1
    76    62    63    2
    77    76    77    2
    78    26    25    2
    79   106   105   ar
    80   106   104   ar
    81   105   103   ar
    82    25    24    1
    83    30    28    1
    84   104   102   ar
    85    27    28    1
    86    27    24    1
    87   103   100   ar
    88    29    28    1
    89    24    23    1
    90    23    17   am
    91    15    16    1
    92   102   100   ar
    93   102   101   ar
    94   100    98   ar
    95    19    16    1
    96    19    20    1
    97    22    20   ar
    98    16    17    1
    99    17    18    2
   100   101    99   ar
   101    20    21   ar
   102    98    99   ar
   103    98    97    1
   104    97    94    1
   105    93    94    1
   106    94    95    1
   107    95    96    2
