@<TRIPOS>MOLECULE
tmp/3w7sA03.pdb
 94 84 0 0 0
SMALL
GASTEIGER

@<TRIPOS>ATOM
      1  N          9.0910   20.6090   51.8770 N.3     3  ASP3       -0.1239
      2  CA        10.5020   20.6990   52.3300 C.3     3  ASP3        0.1674
      3  C         10.8540   19.7730   53.4750 C.2     3  ASP3        0.2266
      4  O         12.0250   19.5510   53.7310 O.2     3  ASP3       -0.2867
      5  CB        10.8810   22.1410   52.7300 C.3     3  ASP3        0.1410
      6  CG        10.9090   23.0700   51.5580 C.2     3  ASP3        0.3668
      7  OD1       11.7240   22.8230   50.6380 O.co2   3  ASP3       -0.2456
      8  OD2       10.1130   24.0330   51.5560 O.co2   3  ASP3       -0.2456
      9  N         12.9190   15.7160   51.9050 N.3     6  LYS6       -0.1245
     10  CA        14.0100   15.8100   50.9400 C.3     6  LYS6        0.1561
     11  C         14.5500   14.4220   50.5950 C.2     6  LYS6        0.2260
     12  O         14.7650   13.5980   51.4900 O.2     6  LYS6       -0.2867
     13  CB        15.1330   16.6820   51.4880 C.3     6  LYS6        0.0271
     14  CG        14.7030   18.1200   51.7780 C.3     6  LYS6        0.0035
     15  CD        15.9200   19.0140   51.9410 C.3     6  LYS6        0.0206
     16  CE        15.5320   20.4590   52.1610 C.3     6  LYS6        0.1093
     17  NZ        14.7480   20.6200   53.4160 N.3     6  LYS6       -0.1314
     18  N         18.8900   18.4440   45.9860 N.3    90  TYR90      -0.1241
     19  CA        17.9010   17.5610   46.5900 C.3    90  TYR90       0.1605
     20  C         16.5910   17.5910   45.8350 C.2    90  TYR90       0.2264
     21  O         16.3040   18.5480   45.1140 O.2    90  TYR90      -0.2867
     22  CB        17.6720   17.9410   48.0610 C.3    90  TYR90       0.0534
     23  CG        17.1770   19.3580   48.2830 C.ar   90  TYR90      -0.0201
     24  CD1       15.8130   19.6580   48.2500 C.ar   90  TYR90      -0.0009
     25  CD2       18.0640   20.3910   48.5520 C.ar   90  TYR90      -0.0009
     26  CE1       15.3580   20.9500   48.4760 C.ar   90  TYR90       0.0417
     27  CE2       17.6150   21.6920   48.7670 C.ar   90  TYR90       0.0417
     28  CZ        16.2630   21.9530   48.7420 C.ar   90  TYR90       0.1957
     29  OH        15.8130   23.2370   48.9560 O.3    90  TYR90      -0.2866
     30  N         12.3740   17.3370   46.3610 N.3    92  ILE92      -0.1245
     31  CA        11.2360   17.3570   47.2700 C.3    92  ILE92       0.1561
     32  C         10.0250   16.8790   46.4720 C.2    92  ILE92       0.2260
     33  O         10.1030   16.7460   45.2540 O.2    92  ILE92      -0.2867
     34  CB        10.9650   18.7470   47.8920 C.3    92  ILE92       0.0252
     35  CG1       10.8190   19.8150   46.8110 C.3    92  ILE92       0.0019
     36  CG2       12.0640   19.1160   48.8900 C.3    92  ILE92       0.0019
     37  CD1       10.3880   21.1610   47.3730 C.3    92  ILE92       0.0001
     38  N          9.4470   18.8910   43.0860 N.3    95  ALA95      -0.1245
     39  CA        10.5500   19.7380   42.5890 C.3    95  ALA95       0.1562
     40  C         11.9410   19.1490   42.7670 C.2    95  ALA95       0.2260
     41  O         12.1800   18.3170   43.6550 O.2    95  ALA95      -0.2867
     42  CB        10.4830   21.1150   43.2230 C.3    95  ALA95       0.0290
     43  N         15.9240   20.7160   43.2500 N.3    97  VAL97      -0.1245
     44  CA        16.6170   21.9350   43.6420 C.3    97  VAL97       0.1561
     45  C         18.1140   21.6840   43.6360 C.2    97  VAL97       0.2260
     46  O         18.5770   20.6330   44.0780 O.2    97  VAL97      -0.2867
     47  CB        16.2050   22.3740   45.0690 C.3    97  VAL97       0.0252
     48  CG1       16.9210   23.6510   45.4830 C.3    97  VAL97       0.0019
     49  CG2       14.6900   22.5800   45.1650 C.3    97  VAL97       0.0019
     50  N         21.7950   24.1020   44.5040 N.3    99  LYS99      -0.1245
     51  CA        22.3820   25.3760   44.8730 C.3    99  LYS99       0.1561
     52  C         23.8860   25.2420   44.7120 C.2    99  LYS99       0.2260
     53  O         24.4930   24.2620   45.1600 O.2    99  LYS99      -0.2867
     54  CB        21.9730   25.7800   46.2970 C.3    99  LYS99       0.0271
     55  CG        20.4650   25.7650   46.5020 C.3    99  LYS99       0.0035
     56  CD        19.9970   26.3190   47.8480 C.3    99  LYS99       0.0206
     57  CE        18.4690   26.3960   47.8730 C.3    99  LYS99       0.1093
     58  NZ        17.9120   27.1250   49.0570 N.3    99  LYS99      -0.1314
     59  N         21.0360   29.5150   42.5250 N.3   108  GLU108     -0.1245
     60  CA        19.9750   28.6510   43.0440 C.3   108  GLU108      0.1567
     61  C         19.0780   28.2870   41.8840 C.2   108  GLU108      0.2260
     62  O         18.5980   29.1770   41.1680 O.2   108  GLU108     -0.2867
     63  CB        19.1510   29.3340   44.1330 C.3   108  GLU108      0.0388
     64  CG        19.9590   29.8090   45.3320 C.3   108  GLU108      0.1160
     65  CD        19.0980   30.4320   46.4210 C.2   108  GLU108      0.3649
     66  OE1       19.6750   31.0130   47.3520 O.co2 108  GLU108     -0.2457
     67  OE2       17.8470   30.3580   46.3620 O.co2 108  GLU108     -0.2457
     68  N         15.7450   25.9420   40.6440 N.3   110  THR110     -0.1218
     69  CA        14.5380   25.1980   40.9900 C.3   110  THR110      0.1862
     70  C         13.8800   24.7110   39.7060 C.2   110  THR110      0.2287
     71  O         13.6230   25.5120   38.7820 O.2   110  THR110     -0.2866
     72  CB        13.5510   26.1110   41.7330 C.3   110  THR110      0.1770
     73  OG1       14.1920   26.6250   42.9020 O.3   110  THR110     -0.2211
     74  CG2       12.2820   25.3830   42.1010 C.3   110  THR110      0.0375
     75  N         10.5290   22.7260   38.3170 N.3   112  ARG112     -0.1245
     76  CA         9.1710   22.1940   38.5100 C.3   112  ARG112      0.1563
     77  C          8.5050   21.9950   37.1540 C.2   112  ARG112      0.2260
     78  O          8.9750   22.5510   36.1480 O.2   112  ARG112     -0.2867
     79  CB         8.3360   23.1460   39.3510 C.3   112  ARG112      0.0307
     80  CG         8.7980   23.2490   40.8050 C.3   112  ARG112      0.0489
     81  CD         8.0820   24.3650   41.5530 C.3   112  ARG112      0.2205
     82  NE         8.4020   24.3770   42.9780 N.pl3 112  ARG112     -0.0865
     83  CZ         7.8940   23.5450   43.8810 C.cat 112  ARG112      0.5346
     84  NH1        7.0240   22.6080   43.5360 N.pl3 112  ARG112      0.1354
     85  NH2        8.2820   23.6300   45.1360 N.pl3 112  ARG112      0.1354
     86  N          3.9430   24.3490   43.5510 N.3   259  GLN259     -0.1245
     87  CA         4.0760   24.3370   45.0070 C.3   259  GLN259      0.1566
     88  C          2.7490   24.0450   45.6740 C.2   259  GLN259      0.2260
     89  O          2.6670   23.1700   46.5310 O.2   259  GLN259     -0.2867
     90  CB         4.5430   25.6890   45.5350 C.3   259  GLN259      0.0367
     91  CG         5.9880   26.0370   45.2590 C.3   259  GLN259      0.0905
     92  CD         6.2810   27.5170   45.4810 C.2   259  GLN259      0.2608
     93  OE1        5.5360   28.2210   46.1790 O.2   259  GLN259     -0.2717
     94  NE2        7.3770   28.0020   44.8770 N.am  259  GLN259     -0.0878
@<TRIPOS>BOND
     1    78    77    2
     2    77    76    1
     3    75    76    1
     4    76    79    1
     5    71    70    2
     6    79    80    1
     7    70    69    1
     8    68    69    1
     9    80    81    1
    10    69    72    1
    11    62    61    2
    12    81    82    1
    13    72    74    1
    14    72    73    1
    15    61    60    1
    16    59    60    1
    17    39    40    1
    18    39    38    1
    19    39    42    1
    20    40    41    2
    21    82    83    2
    22    60    63    1
    23    43    44    1
    24    84    83    1
    25    86    87    1
    26    45    44    1
    27    45    46    2
    28    44    47    1
    29    83    85    1
    30    63    64    1
    31    50    51    1
    32    52    51    1
    33    52    53    2
    34    51    54    1
    35    94    92   am
    36    87    90    1
    37    87    88    1
    38    47    49    1
    39    47    48    1
    40    21    20    2
    41    33    32    2
    42    91    92    1
    43    91    90    1
    44    64    65    1
    45    92    93    2
    46    88    89    2
    47    20    19    1
    48    18    19    1
    49    54    55    1
    50    30    31    1
    51    67    65   ar
    52    65    66   ar
    53    32    31    1
    54    55    56    1
    55    19    22    1
    56    35    37    1
    57    35    34    1
    58    31    34    1
    59    56    57    1
    60    57    58    1
    61    34    36    1
    62    22    23    1
    63    24    23   ar
    64    24    26   ar
    65    23    25   ar
    66    26    28   ar
    67    25    27   ar
    68    28    27   ar
    69    28    29    1
    70    11    10    1
    71    11    12    2
    72     7     6   ar
    73    10    13    1
    74    10     9    1
    75    13    14    1
    76     8     6   ar
    77     6     5    1
    78    14    15    1
    79     1     2    1
    80    15    16    1
    81    16    17    1
    82     2     5    1
    83     2     3    1
    84     3     4    2
