@<TRIPOS>MOLECULE
tmp/3w7tA00.pdb
 137 138 0 0 0
SMALL
GASTEIGER

@<TRIPOS>ATOM
      1  N          6.4680   -1.0220   38.0040 N.3   308  PRO308     -0.2116
      2  CA         5.1150   -0.5600   37.6750 C.3   308  PRO308      0.1372
      3  C          4.4660   -1.3160   36.5300 C.2   308  PRO308      0.2244
      4  O          3.2400   -1.3180   36.4270 O.2   308  PRO308     -0.2868
      5  CB         5.3180    0.9210   37.3040 C.3   308  PRO308      0.0268
      6  CG         6.5770    1.2840   37.9930 C.3   308  PRO308      0.0207
      7  CD         7.4490    0.0670   37.8370 C.3   308  PRO308      0.0892
      8  N          8.9930    1.0500   32.3390 N.3   315  PHE315     -0.1241
      9  CA         8.6750    0.4940   33.6600 C.3   315  PHE315      0.1605
     10  C          9.1250   -0.9610   33.8590 C.2   315  PHE315      0.2264
     11  O          8.8160   -1.5570   34.8810 O.2   315  PHE315     -0.2867
     12  CB         7.1540    0.5320   33.8830 C.3   315  PHE315      0.0534
     13  CG         6.5330    1.8990   33.9020 C.ar  315  PHE315     -0.0203
     14  CD1        7.2460    3.0260   34.2860 C.ar  315  PHE315     -0.0042
     15  CD2        5.1910    2.0380   33.5750 C.ar  315  PHE315     -0.0042
     16  CE1        6.6320    4.2660   34.3290 C.ar  315  PHE315     -0.0003
     17  CE2        4.5700    3.2620   33.6470 C.ar  315  PHE315     -0.0003
     18  CZ         5.2960    4.3830   33.9960 C.ar  315  PHE315     -0.0000
     19  N         10.3830    2.2300   41.8070 N.3   321  TRP321     -0.1241
     20  CA        10.1240    3.5500   42.3720 C.3   321  TRP321      0.1605
     21  C          9.5560    3.4230   43.7800 C.2   321  TRP321      0.2264
     22  O          8.8430    2.4540   44.0700 O.2   321  TRP321     -0.2867
     23  CB         9.0740    4.2730   41.5360 C.3   321  TRP321      0.0550
     24  CG         9.5170    4.8100   40.2070 C.ar  321  TRP321      0.0003
     25  CD1        9.7490    6.1210   39.9020 C.ar  321  TRP321      0.0946
     26  CD2        9.7160    4.0790   38.9810 C.ar  321  TRP321      0.0152
     27  NE1       10.1030    6.2540   38.5890 N.ar  321  TRP321     -0.2442
     28  CE2       10.0740    5.0200   37.9930 C.ar  321  TRP321      0.0810
     29  CE3        9.6460    2.7230   38.6280 C.ar  321  TRP321      0.0012
     30  CZ2       10.3670    4.6570   36.6880 C.ar  321  TRP321      0.0191
     31  CZ3        9.9540    2.3570   37.3170 C.ar  321  TRP321      0.0001
     32  CH2       10.3020    3.3280   36.3630 C.ar  321  TRP321      0.0015
     33  N          7.1340    5.3690   45.6380 N.3   323  TRP323     -0.1227
     34  CA         5.7160    5.4140   45.9960 C.3   323  TRP323      0.1737
     35  C          4.8950    4.3640   45.2760 C.2   323  TRP323      0.2595
     36  O          3.9220    3.9130   45.8370 O.2   323  TRP323     -0.2718
     37  CB         5.1010    6.8120   46.0440 C.3   323  TRP323      0.0564
     38  CG         4.5740    7.4020   44.7980 C.ar  323  TRP323      0.0003
     39  CD1        5.1030    7.2960   43.5650 C.ar  323  TRP323      0.0946
     40  CD2        3.4530    8.2650   44.6910 C.ar  323  TRP323      0.0152
     41  NE1        4.3610    8.0290   42.6710 N.ar  323  TRP323     -0.2442
     42  CE2        3.3340    8.6330   43.3450 C.ar  323  TRP323      0.0810
     43  CE3        2.5160    8.7470   45.6010 C.ar  323  TRP323      0.0012
     44  CZ2        2.2990    9.4530   42.8770 C.ar  323  TRP323      0.0191
     45  CZ3        1.5010    9.5740   45.1610 C.ar  323  TRP323      0.0001
     46  CH2        1.4030    9.9320   43.7970 C.ar  323  TRP323      0.0015
     47  N          5.3630    3.8930   44.1240 N.am  324  ASP324     -0.1974
     48  CA         4.7780    2.6980   43.5170 C.3   324  ASP324      0.1709
     49  C          4.8930    1.5350   44.4950 C.2   324  ASP324      0.2293
     50  O          3.9280    0.8080   44.7430 O.2   324  ASP324     -0.2864
     51  CB         5.4770    2.3300   42.2070 C.3   324  ASP324      0.1436
     52  CG         5.3060    3.3790   41.1360 C.2   324  ASP324      0.3671
     53  OD1        4.6760    3.0810   40.0970 O.co2 324  ASP324     -0.2456
     54  OD2        5.7690    4.5110   41.3590 O.co2 324  ASP324     -0.2456
     55  N         10.2010   10.2900   46.0140 N.3   391  LYS391     -0.1245
     56  CA         8.7570   10.3020   45.7150 C.3   391  LYS391      0.1561
     57  C          8.0270   10.5540   47.0460 C.2   391  LYS391      0.2260
     58  O          8.6540   10.5790   48.1080 O.2   391  LYS391     -0.2867
     59  CB         8.3420    8.9650   45.0910 C.3   391  LYS391      0.0271
     60  CG         8.5600    8.8530   43.5930 C.3   391  LYS391      0.0035
     61  CD         7.5910    9.7180   42.8010 C.3   391  LYS391      0.0206
     62  CE         7.7090    9.5430   41.2950 C.3   391  LYS391      0.1093
     63  NZ         8.9760   10.0830   40.7390 N.3   391  LYS391     -0.1314
     64  N          5.1940   13.1960   42.3010 N.3   499  GLY499     -0.1225
     65  CA         4.5060   12.1080   41.6230 C.3   499  GLY499      0.1811
     66  C          3.4780   12.5320   40.5900 C.2   499  GLY499      0.2280
     67  O          2.9420   11.6790   39.8940 O.2   499  GLY499     -0.2866
     68  N          3.3400   15.1130   37.7710 N.3   501  ASP501     -0.1239
     69  CA         4.2480   16.0780   37.1370 C.3   501  ASP501      0.1674
     70  C          3.6380   17.1100   36.1820 C.2   501  ASP501      0.2266
     71  O          4.3720   17.9210   35.6140 O.2   501  ASP501     -0.2867
     72  CB         5.4380   15.3670   36.4860 C.3   501  ASP501      0.1410
     73  CG         5.0520   14.5260   35.3000 C.2   501  ASP501      0.3668
     74  OD1        3.9460   14.6890   34.7390 O.co2 501  ASP501     -0.2456
     75  OD2        5.8990   13.6770   34.9260 O.co2 501  ASP501     -0.2456
     76  N         -2.8480   14.5180   35.0140 N.3   680  TRP680     -0.1241
     77  CA        -2.9410   14.9790   36.3960 C.3   680  TRP680      0.1605
     78  C         -3.7670   16.2440   36.5530 C.2   680  TRP680      0.2264
     79  O         -3.7050   16.8710   37.5890 O.2   680  TRP680     -0.2867
     80  CB        -1.5540   15.1330   37.0270 C.3   680  TRP680      0.0550
     81  CG        -0.8390   13.7890   37.1890 C.ar  680  TRP680      0.0003
     82  CD1        0.1230   13.2770   36.3850 C.ar  680  TRP680      0.0946
     83  CD2       -1.0850   12.8110   38.2050 C.ar  680  TRP680      0.0152
     84  NE1        0.5060   12.0330   36.8390 N.ar  680  TRP680     -0.2442
     85  CE2       -0.2200   11.7160   37.9510 C.ar  680  TRP680      0.0810
     86  CE3       -1.9470   12.7450   39.2950 C.ar  680  TRP680      0.0012
     87  CZ2       -0.2030   10.5760   38.7550 C.ar  680  TRP680      0.0191
     88  CZ3       -1.9240   11.6070   40.1070 C.ar  680  TRP680      0.0001
     89  CH2       -1.0620   10.5320   39.8160 C.ar  680  TRP680      0.0015
     90  N         -7.1930    8.4820   38.6790 N.3   685  TRP685     -0.1241
     91  CA        -6.2760    7.4070   39.0190 C.3   685  TRP685      0.1605
     92  C         -6.8600    6.6070   40.1800 C.2   685  TRP685      0.2264
     93  O         -7.5220    7.1460   41.0580 O.2   685  TRP685     -0.2867
     94  CB        -4.9100    7.9610   39.3690 C.3   685  TRP685      0.0550
     95  CG        -4.2270    8.6690   38.2350 C.ar  685  TRP685      0.0003
     96  CD1       -4.6280    9.8240   37.6140 C.ar  685  TRP685      0.0946
     97  CD2       -2.9980    8.2880   37.6110 C.ar  685  TRP685      0.0152
     98  NE1       -3.7270   10.1740   36.6460 N.ar  685  TRP685     -0.2442
     99  CE2       -2.7210    9.2450   36.6110 C.ar  685  TRP685      0.0810
    100  CE3       -2.1160    7.2170   37.7870 C.ar  685  TRP685      0.0012
    101  CZ2       -1.5680    9.1990   35.8300 C.ar  685  TRP685      0.0191
    102  CZ3       -0.9670    7.1640   36.9820 C.ar  685  TRP685      0.0001
    103  CH2       -0.7200    8.1380   36.0190 C.ar  685  TRP685      0.0015
    104  N         -3.4900    2.9040   33.6460 N.3   727  GLU727     -0.1245
    105  CA        -3.1720    3.9110   34.6550 C.3   727  GLU727      0.1567
    106  C         -4.3330    4.8020   35.1000 C.2   727  GLU727      0.2260
    107  O         -4.4410    5.1140   36.2830 O.2   727  GLU727     -0.2867
    108  CB        -2.0210    4.7880   34.1580 C.3   727  GLU727      0.0388
    109  CG        -0.6990    4.0230   34.0610 C.3   727  GLU727      0.1160
    110  CD         0.4890    4.8730   33.6290 C.2   727  GLU727      0.3649
    111  OE1        0.9620    5.7380   34.3920 O.co2 727  GLU727     -0.2457
    112  OE2        1.0140    4.6240   32.5510 O.co2 727  GLU727     -0.2457
    113  N         -0.4960   -2.2180   34.8000 N.3   742  PHE742     -0.1241
    114  CA         0.0270   -1.2050   35.7120 C.3   742  PHE742      0.1605
    115  C         -0.1810   -1.5540   37.1810 C.2   742  PHE742      0.2264
    116  O         -1.2950   -1.6990   37.6690 O.2   742  PHE742     -0.2867
    117  CB        -0.5490    0.1670   35.3810 C.3   742  PHE742      0.0534
    118  CG         0.0560    1.2790   36.1710 C.ar  742  PHE742     -0.0203
    119  CD1        1.3880    1.6140   36.0020 C.ar  742  PHE742     -0.0042
    120  CD2       -0.7010    1.9950   37.0940 C.ar  742  PHE742     -0.0042
    121  CE1        1.9590    2.6550   36.7230 C.ar  742  PHE742     -0.0003
    122  CE2       -0.1450    3.0390   37.8000 C.ar  742  PHE742     -0.0003
    123  CZ         1.2010    3.3540   37.6380 C.ar  742  PHE742     -0.0000
    124  N          0.2210   -0.0960   40.4040 N.3   744  TRP744     -0.1241
    125  CA        -0.5090    0.5110   41.5180 C.3   744  TRP744      0.1605
    126  C         -2.0080    0.5780   41.2190 C.2   744  TRP744      0.2264
    127  O         -2.8100    0.6080   42.1400 O.2   744  TRP744     -0.2867
    128  CB         0.0800    1.8230   42.0120 C.3   744  TRP744      0.0550
    129  CG        -0.3850    3.1390   41.4480 C.ar  744  TRP744      0.0003
    130  CD1       -1.6700    3.5550   41.1870 C.ar  744  TRP744      0.0946
    131  CD2        0.4600    4.2680   41.1890 C.ar  744  TRP744      0.0152
    132  NE1       -1.6590    4.8650   40.7710 N.ar  744  TRP744     -0.2442
    133  CE2       -0.3630    5.3190   40.7440 C.ar  744  TRP744      0.0810
    134  CE3        1.8440    4.4700   41.2560 C.ar  744  TRP744      0.0012
    135  CZ2        0.1580    6.5610   40.3700 C.ar  744  TRP744      0.0191
    136  CZ3        2.3540    5.7020   40.8830 C.ar  744  TRP744      0.0001
    137  CH2        1.5130    6.7320   40.4470 C.ar  744  TRP744      0.0015
@<TRIPOS>BOND
     1     8     9    1
     2   112   110   ar
     3    15    17   ar
     4    15    13   ar
     5   110   109    1
     6   110   111   ar
     7   104   105    1
     8    17    18   ar
     9     9    10    1
    10     9    12    1
    11    10    11    2
    12    12    13    1
    13    13    14   ar
    14    18    16   ar
    15   109   108    1
    16   108   105    1
    17    14    16   ar
    18   105   106    1
    19    74    73   ar
    20   113   114    1
    21    75    73   ar
    22    76    77    1
    23   106   107    2
    24    73    72    1
    25   117   114    1
    26   117   118    1
    27    71    70    2
    28   114   115    1
    29   101   103   ar
    30   101    99   ar
    31   119   118   ar
    32   119   121   ar
    33   103   102   ar
    34   118   120   ar
    35    70    69    1
    36    32    30   ar
    37    32    31   ar
    38    82    84   ar
    39    82    81   ar
    40    77    78    1
    41    77    80    1
    42     4     3    2
    43    72    69    1
    44     3     2    1
    45    78    79    2
    46    99    98   ar
    47    99    97   ar
    48    98    96   ar
    49    30    28   ar
    50   121   123   ar
    51    84    85   ar
    52   102   100   ar
    53    80    81    1
    54   120   122   ar
    55    69    68    1
    56   115   116    2
    57    81    83   ar
    58     5     2    1
    59     5     6    1
    60    31    29   ar
    61    97   100   ar
    62    97    95   ar
    63    96    95   ar
    64   123   122   ar
    65     2     1    1
    66     7     6    1
    67     7     1    1
    68    85    83   ar
    69    85    87   ar
    70    28    27   ar
    71    28    26   ar
    72    83    86   ar
    73    95    94    1
    74    27    25   ar
    75    29    26   ar
    76    90    91    1
    77    87    89   ar
    78    26    24   ar
    79    91    94    1
    80    91    92    1
    81    86    88   ar
    82    89    88   ar
    83    67    66    2
    84    25    24   ar
    85    53    52   ar
    86    92    93    2
    87    24    23    1
    88   135   137   ar
    89   135   133   ar
    90   124   125    1
    91   137   136   ar
    92    66    65    1
    93    63    62    1
    94   133   132   ar
    95   133   131   ar
    96   132   130   ar
    97   136   134   ar
    98    52    54   ar
    99    52    51    1
   100   130   129   ar
   101   131   134   ar
   102   131   129   ar
   103   126   125    1
   104   126   127    2
   105    62    61    1
   106   129   128    1
   107   125   128    1
   108    23    20    1
   109    65    64    1
   110    19    20    1
   111    51    48    1
   112    20    21    1
   113    41    42   ar
   114    41    39   ar
   115    61    60    1
   116    44    42   ar
   117    44    46   ar
   118    42    40   ar
   119    48    47    1
   120    48    49    1
   121    39    38   ar
   122    60    59    1
   123    21    22    2
   124    46    45   ar
   125    47    35   am
   126    49    50    2
   127    40    38   ar
   128    40    43   ar
   129    38    37    1
   130    59    56    1
   131    45    43   ar
   132    35    36    2
   133    35    34    1
   134    33    34    1
   135    56    55    1
   136    56    57    1
   137    34    37    1
   138    57    58    2
