@<TRIPOS>MOLECULE
tmp/3w7uA00.pdb
 106 104 0 0 0
SMALL
GASTEIGER

@<TRIPOS>ATOM
      1  N          9.0070    2.1320   29.2830 N.3   314  TRP314     -0.1227
      2  CA         9.9960    2.6080   30.2490 C.3   314  TRP314      0.1737
      3  C          9.7920    2.0400   31.6550 C.2   314  TRP314      0.2595
      4  O         10.3910    2.5410   32.6140 O.2   314  TRP314     -0.2718
      5  CB         9.9570    4.1500   30.3310 C.3   314  TRP314      0.0564
      6  CG        10.1350    4.8070   29.0150 C.ar  314  TRP314      0.0003
      7  CD1        9.2020    5.5040   28.3200 C.ar  314  TRP314      0.0946
      8  CD2       11.3240    4.8080   28.2130 C.ar  314  TRP314      0.0152
      9  NE1        9.7350    5.9540   27.1320 N.ar  314  TRP314     -0.2442
     10  CE2       11.0340    5.5330   27.0410 C.ar  314  TRP314      0.0810
     11  CE3       12.6060    4.2680   28.3770 C.ar  314  TRP314      0.0012
     12  CZ2       11.9850    5.7410   26.0260 C.ar  314  TRP314      0.0191
     13  CZ3       13.5520    4.4700   27.3680 C.ar  314  TRP314      0.0001
     14  CH2       13.2320    5.2170   26.2130 C.ar  314  TRP314      0.0015
     15  N          8.9790    0.9890   31.7890 N.am  315  PHE315     -0.1976
     16  CA         8.6350    0.4510   33.1000 C.3   315  PHE315      0.1639
     17  C          9.0510   -1.0280   33.2580 C.2   315  PHE315      0.2290
     18  O          8.7090   -1.6520   34.2610 O.2   315  PHE315     -0.2864
     19  CB         7.1100    0.5360   33.3410 C.3   315  PHE315      0.0560
     20  CG         6.5170    1.9300   33.3150 C.ar  315  PHE315     -0.0200
     21  CD1        7.2380    3.0500   33.7060 C.ar  315  PHE315     -0.0042
     22  CD2        5.1830    2.0960   32.9430 C.ar  315  PHE315     -0.0042
     23  CE1        6.6480    4.3200   33.6950 C.ar  315  PHE315     -0.0003
     24  CE2        4.5880    3.3540   32.9370 C.ar  315  PHE315     -0.0003
     25  CZ         5.3220    4.4690   33.3090 C.ar  315  PHE315     -0.0000
     26  N         10.4810    2.1650   41.2210 N.3   321  TRP321     -0.1241
     27  CA        10.2860    3.4700   41.8530 C.3   321  TRP321      0.1605
     28  C          9.6800    3.3150   43.2590 C.2   321  TRP321      0.2264
     29  O          8.9340    2.3570   43.5240 O.2   321  TRP321     -0.2867
     30  CB         9.3130    4.3270   41.0490 C.3   321  TRP321      0.0550
     31  CG         9.7840    4.8430   39.7270 C.ar  321  TRP321      0.0003
     32  CD1       10.0880    6.1350   39.4280 C.ar  321  TRP321      0.0946
     33  CD2        9.9320    4.1040   38.5030 C.ar  321  TRP321      0.0152
     34  NE1       10.4280    6.2480   38.1080 N.ar  321  TRP321     -0.2442
     35  CE2       10.3580    5.0170   37.5170 C.ar  321  TRP321      0.0810
     36  CE3        9.7550    2.7640   38.1510 C.ar  321  TRP321      0.0012
     37  CZ2       10.6020    4.6370   36.1940 C.ar  321  TRP321      0.0191
     38  CZ3       10.0090    2.3750   36.8370 C.ar  321  TRP321      0.0001
     39  CH2       10.4280    3.3130   35.8750 C.ar  321  TRP321      0.0015
     40  N         14.9760    7.6150   43.1270 N.3   368  ASP368     -0.1225
     41  CA        13.7710    7.6280   42.2910 C.3   368  ASP368      0.1805
     42  C         13.5850    6.3760   41.4390 C.2   368  ASP368      0.2597
     43  O         12.4740    5.8820   41.2910 O.2   368  ASP368     -0.2718
     44  CB        13.8120    8.8380   41.3460 C.3   368  ASP368      0.1424
     45  CG        12.5020    9.0690   40.6140 C.2   368  ASP368      0.3668
     46  OD1       11.4140    8.8460   41.2000 O.co2 368  ASP368     -0.2456
     47  OD2       12.5740    9.4890   39.4440 O.co2 368  ASP368     -0.2456
     48  N         14.6810    5.8860   40.8690 N.am  369  LEU369     -0.1979
     49  CA        14.6150    4.8090   39.9130 C.3   369  LEU369      0.1596
     50  C         15.8640    3.9600   40.0570 C.2   369  LEU369      0.2287
     51  O         16.9840    4.4530   39.8500 O.2   369  LEU369     -0.2864
     52  CB        14.5000    5.3680   38.4980 C.3   369  LEU369      0.0297
     53  CG        14.0330    4.4660   37.3610 C.3   369  LEU369      0.0022
     54  CD1       13.8700    5.3450   36.1550 C.3   369  LEU369      0.0001
     55  CD2       14.9960    3.3080   37.0430 C.3   369  LEU369      0.0001
     56  N         18.8190    4.7930   33.0010 N.3   384  ASN384     -0.1240
     57  CA        17.5640    4.9660   33.6970 C.3   384  ASN384      0.1653
     58  C         17.7700    5.2890   35.1650 C.2   384  ASN384      0.2266
     59  O         17.0660    6.1320   35.7020 O.2   384  ASN384     -0.2867
     60  CB        16.6880    3.7240   33.5220 C.3   384  ASN384      0.1155
     61  CG        16.2000    3.5690   32.1090 C.2   384  ASN384      0.2627
     62  OD1       16.2500    2.4850   31.5380 O.2   384  ASN384     -0.2716
     63  ND2       15.7610    4.6620   31.5200 N.am  384  ASN384     -0.0877
     64  N         18.1360    6.7760   38.4520 N.3   386  ASN386     -0.1240
     65  CA        17.9330    8.2160   38.7480 C.3   386  ASN386      0.1653
     66  C         18.0250    8.5950   40.2330 C.2   386  ASN386      0.2266
     67  O         17.2440    8.1020   41.0650 O.2   386  ASN386     -0.2867
     68  CB        16.5660    8.6900   38.2270 C.3   386  ASN386      0.1155
     69  CG        16.3520   10.1950   38.4100 C.2   386  ASN386      0.2627
     70  OD1       17.2430   10.9890   38.1370 O.2   386  ASN386     -0.2716
     71  ND2       15.1630   10.5850   38.8750 N.am  386  ASN386     -0.0877
     72  N         10.5290   10.2410   45.5670 N.3   391  LYS391     -0.1245
     73  CA         9.0880   10.3410   45.3350 C.3   391  LYS391      0.1561
     74  C          8.3810   10.6060   46.6700 C.2   391  LYS391      0.2260
     75  O          8.9930   10.4710   47.7210 O.2   391  LYS391     -0.2867
     76  CB         8.5940    9.0300   44.7110 C.3   391  LYS391      0.0271
     77  CG         8.8180    8.9150   43.2030 C.3   391  LYS391      0.0035
     78  CD         7.7980    9.7330   42.4160 C.3   391  LYS391      0.0206
     79  CE         7.9300    9.5180   40.9270 C.3   391  LYS391      0.1093
     80  NZ         9.1820   10.1220   40.4010 N.3   391  LYS391     -0.1314
     81  N          8.9930   15.7070   39.1020 N.3   496  TRP496     -0.1241
     82  CA         9.0850   14.2440   39.2090 C.3   496  TRP496      0.1605
     83  C          8.9230   13.7790   40.6330 C.2   496  TRP496      0.2264
     84  O          8.2180   12.8000   40.8950 O.2   496  TRP496     -0.2867
     85  CB        10.4290   13.7350   38.6890 C.3   496  TRP496      0.0550
     86  CG        10.6270   13.9240   37.2310 C.ar  496  TRP496      0.0003
     87  CD1        9.6810   14.2580   36.3120 C.ar  496  TRP496      0.0946
     88  CD2       11.8490   13.7490   36.5060 C.ar  496  TRP496      0.0152
     89  NE1       10.2440   14.3220   35.0620 N.ar  496  TRP496     -0.2442
     90  CE2       11.5720   14.0040   35.1550 C.ar  496  TRP496      0.0810
     91  CE3       13.1500   13.4040   36.8730 C.ar  496  TRP496      0.0012
     92  CZ2       12.5490   13.9370   34.1640 C.ar  496  TRP496      0.0191
     93  CZ3       14.1270   13.3260   35.8820 C.ar  496  TRP496      0.0001
     94  CH2       13.8180   13.5900   34.5480 C.ar  496  TRP496      0.0015
     95  N          5.3960   13.6670   41.8810 N.3   499  GLY499     -0.1225
     96  CA         4.7150   12.4860   41.3630 C.3   499  GLY499      0.1811
     97  C          3.5760   12.8210   40.4310 C.2   499  GLY499      0.2280
     98  O          2.9320   11.9280   39.9120 O.2   499  GLY499     -0.2866
     99  N          3.3840   15.3800   37.4210 N.3   501  ASP501     -0.1239
    100  CA         4.2730   16.3150   36.7300 C.3   501  ASP501      0.1674
    101  C          3.6610   17.4370   35.8790 C.2   501  ASP501      0.2266
    102  O          4.4030   18.3320   35.4760 O.2   501  ASP501     -0.2867
    103  CB         5.3600   15.5620   35.9290 C.3   501  ASP501      0.1410
    104  CG         4.8290   14.8580   34.6940 C.2   501  ASP501      0.3668
    105  OD1        3.6480   15.0280   34.3160 O.co2 501  ASP501     -0.2456
    106  OD2        5.6380   14.1160   34.0890 O.co2 501  ASP501     -0.2456
@<TRIPOS>BOND
     1    12    14   ar
     2    12    10   ar
     3    14    13   ar
     4    10     9   ar
     5    10     8   ar
     6     9     7   ar
     7    13    11   ar
     8     8    11   ar
     9     8     6   ar
    10     7     6   ar
    11     6     5    1
    12     1     2    1
    13     2     5    1
    14     2     3    1
    15    63    61   am
    16    62    61    2
    17     3    15   am
    18     3     4    2
    19    15    16    1
    20    61    60    1
    21    24    22   ar
    22    24    25   ar
    23    22    20   ar
    24    56    57    1
    25    16    17    1
    26    16    19    1
    27    17    18    2
    28    25    23   ar
    29    20    19    1
    30    20    21   ar
    31    60    57    1
    32    23    21   ar
    33    57    58    1
    34   106   104   ar
    35    92    94   ar
    36    92    90   ar
    37   105   104   ar
    38    94    93   ar
    39   104   103    1
    40    89    90   ar
    41    89    87   ar
    42    90    88   ar
    43    58    59    2
    44   102   101    2
    45    39    37   ar
    46    39    38   ar
    47   101   100    1
    48    93    91   ar
    49   103   100    1
    50    54    53    1
    51    37    35   ar
    52    87    86   ar
    53    88    91   ar
    54    88    86   ar
    55   100    99    1
    56    38    36   ar
    57    55    53    1
    58    86    85    1
    59    53    52    1
    60    35    34   ar
    61    35    33   ar
    62    34    32   ar
    63    70    69    2
    64    36    33   ar
    65    68    69    1
    66    68    65    1
    67    69    71   am
    68    64    65    1
    69    52    49    1
    70    33    31   ar
    71    85    82    1
    72    65    66    1
    73    81    82    1
    74    82    83    1
    75    32    31   ar
    76    47    45   ar
    77    31    30    1
    78    51    50    2
    79    98    97    2
    80    49    50    1
    81    49    48    1
    82    66    67    2
    83    80    79    1
    84    97    96    1
    85    45    46   ar
    86    45    44    1
    87    83    84    2
    88    48    42   am
    89    79    78    1
    90    30    27    1
    91    26    27    1
    92    43    42    2
    93    44    41    1
    94    96    95    1
    95    42    41    1
    96    27    28    1
    97    41    40    1
    98    78    77    1
    99    77    76    1
   100    28    29    2
   101    76    73    1
   102    73    72    1
   103    73    74    1
   104    74    75    2
