@<TRIPOS>MOLECULE
tmp/3w7wA00.pdb
 186 187 0 0 0
SMALL
GASTEIGER

@<TRIPOS>ATOM
      1  N          6.4380   -1.1130   36.5970 N.3   308  PRO308     -0.2116
      2  CA         5.1590   -0.6030   36.0960 C.3   308  PRO308      0.1372
      3  C          4.6130   -1.3000   34.8370 C.2   308  PRO308      0.2244
      4  O          3.4070   -1.2470   34.5920 O.2   308  PRO308     -0.2868
      5  CB         5.4610    0.8820   35.8140 C.3   308  PRO308      0.0268
      6  CG         6.6280    1.2030   36.6710 C.3   308  PRO308      0.0207
      7  CD         7.4510   -0.0460   36.6900 C.3   308  PRO308      0.0892
      8  N          9.6480    0.8680   31.3020 N.3   315  PHE315     -0.1241
      9  CA         9.2240    0.3030   32.5770 C.3   315  PHE315      0.1605
     10  C          9.6090   -1.1630   32.7920 C.2   315  PHE315      0.2264
     11  O          9.1480   -1.7860   33.7500 O.2   315  PHE315     -0.2867
     12  CB         7.7080    0.4210   32.7350 C.3   315  PHE315      0.0534
     13  CG         7.1790    1.8300   32.6460 C.ar  315  PHE315     -0.0203
     14  CD1        7.9460    2.9190   33.0440 C.ar  315  PHE315     -0.0042
     15  CD2        5.8840    2.0510   32.1940 C.ar  315  PHE315     -0.0042
     16  CE1        7.4440    4.2100   32.9810 C.ar  315  PHE315     -0.0003
     17  CE2        5.3680    3.3450   32.1180 C.ar  315  PHE315     -0.0003
     18  CZ         6.1600    4.4310   32.5200 C.ar  315  PHE315     -0.0000
     19  N          9.8940    2.0650   40.8730 N.3   321  TRP321     -0.1241
     20  CA         9.6070    3.3740   41.4860 C.3   321  TRP321      0.1605
     21  C          8.9650    3.2210   42.8780 C.2   321  TRP321      0.2264
     22  O          8.2910    2.2310   43.1360 O.2   321  TRP321     -0.2867
     23  CB         8.6480    4.1590   40.5860 C.3   321  TRP321      0.0550
     24  CG         9.2490    4.7590   39.3190 C.ar  321  TRP321      0.0003
     25  CD1        9.4900    6.0760   39.0870 C.ar  321  TRP321      0.0946
     26  CD2        9.6140    4.0690   38.1040 C.ar  321  TRP321      0.0152
     27  NE1        9.9930    6.2580   37.8170 N.ar  321  TRP321     -0.2442
     28  CE2       10.0770    5.0430   37.1930 C.ar  321  TRP321      0.0810
     29  CE3        9.6070    2.7300   37.7060 C.ar  321  TRP321      0.0012
     30  CZ2       10.5400    4.7130   35.9110 C.ar  321  TRP321      0.0191
     31  CZ3       10.0750    2.4040   36.4350 C.ar  321  TRP321      0.0001
     32  CH2       10.5280    3.3890   35.5570 C.ar  321  TRP321      0.0015
     33  N          6.3470    5.1650   44.6420 N.3   323  TRP323     -0.1227
     34  CA         4.8860    5.2340   44.8190 C.3   323  TRP323      0.1737
     35  C          4.1290    4.2140   43.9450 C.2   323  TRP323      0.2595
     36  O          3.0530    3.7740   44.3270 O.2   323  TRP323     -0.2718
     37  CB         4.3460    6.6780   44.7890 C.3   323  TRP323      0.0564
     38  CG         3.9180    7.2450   43.4740 C.ar  323  TRP323      0.0003
     39  CD1        4.4810    7.0290   42.2530 C.ar  323  TRP323      0.0946
     40  CD2        2.8560    8.1800   43.2710 C.ar  323  TRP323      0.0152
     41  NE1        3.8070    7.7470   41.2910 N.ar  323  TRP323     -0.2442
     42  CE2        2.8120    8.4680   41.8910 C.ar  323  TRP323      0.0810
     43  CE3        1.9220    8.7900   44.1250 C.ar  323  TRP323      0.0012
     44  CZ2        1.8700    9.3410   41.3370 C.ar  323  TRP323      0.0191
     45  CZ3        0.9880    9.6500   43.5840 C.ar  323  TRP323      0.0001
     46  CH2        0.9670    9.9230   42.1910 C.ar  323  TRP323      0.0015
     47  N          4.7340    3.7590   42.8490 N.am  324  ASP324     -0.1974
     48  CA         4.1870    2.6150   42.1080 C.3   324  ASP324      0.1709
     49  C          4.1460    1.4050   43.0370 C.2   324  ASP324      0.2293
     50  O          3.1310    0.7320   43.1600 O.2   324  ASP324     -0.2864
     51  CB         5.0350    2.2910   40.8920 C.3   324  ASP324      0.1436
     52  CG         4.9910    3.3790   39.8430 C.2   324  ASP324      0.3671
     53  OD1        4.4560    3.1120   38.7450 O.co2 324  ASP324     -0.2456
     54  OD2        5.5000    4.4910   40.1260 O.co2 324  ASP324     -0.2456
     55  N         14.0490    7.5820   43.3440 N.3   368  ASP368     -0.1225
     56  CA        12.8990    7.5790   42.4420 C.3   368  ASP368      0.1805
     57  C         12.8640    6.3550   41.5540 C.2   368  ASP368      0.2597
     58  O         11.7830    5.8390   41.2290 O.2   368  ASP368     -0.2718
     59  CB        13.0020    8.8090   41.5340 C.3   368  ASP368      0.1424
     60  CG        11.8090    8.9820   40.6200 C.2   368  ASP368      0.3668
     61  OD1       10.6910    8.6970   41.0690 O.co2 368  ASP368     -0.2456
     62  OD2       11.9930    9.4630   39.4800 O.co2 368  ASP368     -0.2456
     63  N         14.0430    5.9260   41.1130 N.am  369  LEU369     -0.1979
     64  CA        14.1470    4.8200   40.1600 C.3   369  LEU369      0.1596
     65  C         15.4070    3.9760   40.4210 C.2   369  LEU369      0.2287
     66  O         16.5250    4.4630   40.3200 O.2   369  LEU369     -0.2864
     67  CB        14.1290    5.3610   38.7290 C.3   369  LEU369      0.0297
     68  CG        13.7210    4.4400   37.5780 C.3   369  LEU369      0.0022
     69  CD1       13.5620    5.2680   36.3130 C.3   369  LEU369      0.0001
     70  CD2       14.7440    3.3250   37.3680 C.3   369  LEU369      0.0001
     71  N         19.0450    4.8260   33.6820 N.3   384  ASN384     -0.1240
     72  CA        17.7080    4.9830   34.2290 C.3   384  ASN384      0.1653
     73  C         17.7000    5.3580   35.7040 C.2   384  ASN384      0.2266
     74  O         16.9190    6.2000   36.1230 O.2   384  ASN384     -0.2867
     75  CB        16.8940    3.7090   33.9760 C.3   384  ASN384      0.1155
     76  CG        16.6010    3.4970   32.4970 C.2   384  ASN384      0.2627
     77  OD1       16.7770    2.4090   31.9610 O.2   384  ASN384     -0.2716
     78  ND2       16.1410    4.5330   31.8470 N.am  384  ASN384     -0.0877
     79  N         17.6670    6.9180   39.0400 N.3   386  ASN386     -0.1240
     80  CA        17.3540    8.3380   39.2730 C.3   386  ASN386      0.1653
     81  C         17.2810    8.7160   40.7340 C.2   386  ASN386      0.2266
     82  O         16.4690    8.1610   41.4780 O.2   386  ASN386     -0.2867
     83  CB        16.0030    8.7130   38.6490 C.3   386  ASN386      0.1155
     84  CG        15.6950   10.2010   38.7900 C.2   386  ASN386      0.2627
     85  OD1       16.5990   11.0370   38.7450 O.2   386  ASN386     -0.2716
     86  ND2       14.4190   10.5320   38.9950 N.am  386  ASN386     -0.0877
     87  N          9.3490   10.1520   45.7060 N.3   391  LYS391     -0.1245
     88  CA         7.9190   10.1760   45.3610 C.3   391  LYS391      0.1561
     89  C          7.1370   10.4230   46.6660 C.2   391  LYS391      0.2260
     90  O          7.7540   10.4350   47.7300 O.2   391  LYS391     -0.2867
     91  CB         7.5280    8.8600   44.7080 C.3   391  LYS391      0.0271
     92  CG         7.8960    8.7400   43.2250 C.3   391  LYS391      0.0035
     93  CD         6.9410    9.5070   42.3390 C.3   391  LYS391      0.0206
     94  CE         7.1700    9.2500   40.8580 C.3   391  LYS391      0.1093
     95  NZ         8.3610    9.9570   40.3220 N.3   391  LYS391     -0.1314
     96  N          7.9900   15.6890   39.4500 N.3   496  TRP496     -0.1241
     97  CA         8.2620   14.2540   39.4670 C.3   496  TRP496      0.1605
     98  C          8.1390   13.6890   40.8750 C.2   496  TRP496      0.2264
     99  O          7.7370   12.5390   41.0500 O.2   496  TRP496     -0.2867
    100  CB         9.6710   13.9230   38.9430 C.3   496  TRP496      0.0550
    101  CG         9.8690   14.0190   37.4470 C.ar  496  TRP496      0.0003
    102  CD1        8.9310   14.3520   36.5010 C.ar  496  TRP496      0.0946
    103  CD2       11.0790   13.7330   36.7290 C.ar  496  TRP496      0.0152
    104  NE1        9.4950   14.3060   35.2430 N.ar  496  TRP496     -0.2442
    105  CE2       10.8080   13.9240   35.3530 C.ar  496  TRP496      0.0810
    106  CE3       12.3730   13.3420   37.1180 C.ar  496  TRP496      0.0012
    107  CZ2       11.7820   13.7450   34.3640 C.ar  496  TRP496      0.0191
    108  CZ3       13.3430   13.1530   36.1340 C.ar  496  TRP496      0.0001
    109  CH2       13.0380   13.3590   34.7710 C.ar  496  TRP496      0.0015
    110  N          4.8850   12.8950   41.6980 N.3   499  GLY499     -0.1225
    111  CA         4.3950   11.8330   40.8320 C.3   499  GLY499      0.1811
    112  C          3.5330   12.3370   39.6930 C.2   499  GLY499      0.2280
    113  O          3.2820   11.6070   38.7370 O.2   499  GLY499     -0.2866
    114  N          3.7940   14.4770   36.9770 N.3   501  ASP501     -0.1239
    115  CA         4.6520   15.1520   36.0040 C.3   501  ASP501      0.1674
    116  C          3.9150   16.3130   35.3390 C.2   501  ASP501      0.2266
    117  O          2.8660   16.1000   34.7240 O.2   501  ASP501     -0.2867
    118  CB         5.0640   14.1780   34.8770 C.3   501  ASP501      0.1410
    119  CG         5.9140   13.0040   35.3550 C.2   501  ASP501      0.3668
    120  OD1        5.8030   12.5690   36.5280 O.co2 501  ASP501     -0.2456
    121  OD2        6.7150   12.5110   34.5200 O.co2 501  ASP501     -0.2456
    122  N         -1.4860   14.2250   30.4560 N.3   679  TYR679     -0.1227
    123  CA        -1.4660   13.1170   31.4270 C.3   679  TYR679      0.1736
    124  C         -1.8700   13.5200   32.8510 C.2   679  TYR679      0.2595
    125  O         -2.7380   12.8890   33.4490 O.2   679  TYR679     -0.2718
    126  CB        -0.0780   12.4600   31.4430 C.3   679  TYR679      0.0548
    127  CG         0.1460   11.3170   30.4500 C.ar  679  TYR679     -0.0200
    128  CD1       -0.4690   11.3050   29.1990 C.ar  679  TYR679     -0.0009
    129  CD2        1.0030   10.2580   30.7670 C.ar  679  TYR679     -0.0009
    130  CE1       -0.2500   10.2630   28.2990 C.ar  679  TYR679      0.0417
    131  CE2        1.2290    9.2120   29.8730 C.ar  679  TYR679      0.0417
    132  CZ         0.6050    9.2220   28.6430 C.ar  679  TYR679      0.1957
    133  OH         0.8240    8.1990   27.7480 O.3   679  TYR679     -0.2866
    134  N         -1.2410   14.5620   33.3880 N.am  680  TRP680     -0.1976
    135  CA        -1.5340   15.0090   34.7550 C.3   680  TRP680      0.1640
    136  C         -2.2100   16.3830   34.8160 C.2   680  TRP680      0.2290
    137  O         -2.2260   17.0070   35.8800 O.2   680  TRP680     -0.2864
    138  CB        -0.2530   14.9970   35.6040 C.3   680  TRP680      0.0576
    139  CG         0.2400   13.6150   35.8600 C.ar  680  TRP680      0.0006
    140  CD1        1.2670   12.9790   35.2320 C.ar  680  TRP680      0.0946
    141  CD2       -0.3070   12.6750   36.7960 C.ar  680  TRP680      0.0152
    142  NE1        1.4070   11.6990   35.7300 N.ar  680  TRP680     -0.2442
    143  CE2        0.4540   11.4910   36.6910 C.ar  680  TRP680      0.0810
    144  CE3       -1.3530   12.7270   37.7170 C.ar  680  TRP680      0.0012
    145  CZ2        0.2030   10.3750   37.4760 C.ar  680  TRP680      0.0191
    146  CZ3       -1.6110   11.6180   38.4960 C.ar  680  TRP680      0.0001
    147  CH2       -0.8370   10.4530   38.3700 C.ar  680  TRP680      0.0015
    148  N         -6.5100    8.9820   35.9420 N.3   685  TRP685     -0.1241
    149  CA        -5.7440    7.8070   36.3580 C.3   685  TRP685      0.1605
    150  C         -6.5530    7.0770   37.4400 C.2   685  TRP685      0.2264
    151  O         -7.2620    7.7110   38.2280 O.2   685  TRP685     -0.2867
    152  CB        -4.3580    8.1920   36.9070 C.3   685  TRP685      0.0550
    153  CG        -3.4430    8.8940   35.9470 C.ar  685  TRP685      0.0003
    154  CD1       -3.6280   10.1240   35.3800 C.ar  685  TRP685      0.0946
    155  CD2       -2.1680    8.4240   35.4780 C.ar  685  TRP685      0.0152
    156  NE1       -2.5550   10.4400   34.5730 N.ar  685  TRP685     -0.2442
    157  CE2       -1.6430    9.4210   34.6210 C.ar  685  TRP685      0.0810
    158  CE3       -1.4130    7.2630   35.7120 C.ar  685  TRP685      0.0012
    159  CZ2       -0.4130    9.2820   33.9730 C.ar  685  TRP685      0.0191
    160  CZ3       -0.1830    7.1230   35.0720 C.ar  685  TRP685      0.0001
    161  CH2        0.3090    8.1330   34.2150 C.ar  685  TRP685      0.0015
    162  N         -0.0550   -1.9280   32.6950 N.3   742  PHE742     -0.1241
    163  CA         0.3790   -0.9120   33.6430 C.3   742  PHE742      0.1605
    164  C          0.0030   -1.3130   35.0580 C.2   742  PHE742      0.2264
    165  O         -1.1750   -1.4690   35.3700 O.2   742  PHE742     -0.2867
    166  CB        -0.1860    0.4730   33.3100 C.3   742  PHE742      0.0534
    167  CG         0.3680    1.5680   34.1900 C.ar  742  PHE742     -0.0203
    168  CD1        1.7210    1.8830   34.1510 C.ar  742  PHE742     -0.0042
    169  CD2       -0.4540    2.2540   35.0800 C.ar  742  PHE742     -0.0042
    170  CE1        2.2400    2.8620   34.9670 C.ar  742  PHE742     -0.0003
    171  CE2        0.0480    3.2410   35.8920 C.ar  742  PHE742     -0.0003
    172  CZ         1.4000    3.5550   35.8410 C.ar  742  PHE742     -0.0000
    173  N         -0.0230   -0.0940   38.3550 N.3   744  TRP744     -0.1241
    174  CA        -0.8760    0.5140   39.3800 C.3   744  TRP744      0.1605
    175  C         -2.3220    0.6590   38.9140 C.2   744  TRP744      0.2264
    176  O         -3.2380    0.6440   39.7330 O.2   744  TRP744     -0.2867
    177  CB        -0.2680    1.7770   39.9940 C.3   744  TRP744      0.0550
    178  CG        -0.6230    3.1170   39.4470 C.ar  744  TRP744      0.0003
    179  CD1       -1.8440    3.5690   39.0580 C.ar  744  TRP744      0.0946
    180  CD2        0.2690    4.2320   39.3410 C.ar  744  TRP744      0.0152
    181  NE1       -1.7630    4.8880   38.6650 N.ar  744  TRP744     -0.2442
    182  CE2       -0.4780    5.3250   38.8500 C.ar  744  TRP744      0.0810
    183  CE3        1.6290    4.4100   39.6120 C.ar  744  TRP744      0.0012
    184  CZ2        0.0960    6.5820   38.6040 C.ar  744  TRP744      0.0191
    185  CZ3        2.2070    5.6570   39.3750 C.ar  744  TRP744      0.0001
    186  CH2        1.4370    6.7340   38.8720 C.ar  744  TRP744      0.0015
@<TRIPOS>BOND
     1   133   132    1
     2   130   132   ar
     3   130   128   ar
     4   132   131   ar
     5   128   127   ar
     6   131   129   ar
     7   127   129   ar
     8   127   126    1
     9   122   123    1
    10     8     9    1
    11   123   126    1
    12   123   124    1
    13    78    76   am
    14    77    76    2
    15    17    15   ar
    16    17    18   ar
    17    15    13   ar
    18    76    75    1
    19    18    16   ar
    20     9    12    1
    21     9    10    1
    22    13    12    1
    23    13    14   ar
    24   162   163    1
    25    10    11    2
    26   124   134   am
    27   124   125    2
    28    16    14   ar
    29   166   163    1
    30   166   167    1
    31   134   135    1
    32   163   164    1
    33    71    72    1
    34   159   161   ar
    35   159   157   ar
    36    75    72    1
    37   168   167   ar
    38   168   170   ar
    39   167   169   ar
    40   161   160   ar
    41    72    73    1
    42   107   109   ar
    43   107   105   ar
    44   121   119   ar
    45   156   157   ar
    46   156   154   ar
    47     4     3    2
    48   157   155   ar
    49   117   116    2
    50   135   136    1
    51   135   138    1
    52   109   108   ar
    53   136   137    2
    54     3     2    1
    55   118   119    1
    56   118   115    1
    57   170   172   ar
    58   164   165    2
    59   160   158   ar
    60   169   171   ar
    61   140   142   ar
    62   140   139   ar
    63   104   105   ar
    64   104   102   ar
    65   116   115    1
    66   105   103   ar
    67   119   120   ar
    68   154   153   ar
    69   155   158   ar
    70   155   153   ar
    71    32    30   ar
    72    32    31   ar
    73   138   139    1
    74    73    74    2
    75   142   143   ar
    76     5     2    1
    77     5     6    1
    78   172   171   ar
    79   139   141   ar
    80    30    28   ar
    81   148   149    1
    82   153   152    1
    83   115   114    1
    84     2     1    1
    85   108   106   ar
    86    69    68    1
    87   149   152    1
    88   149   150    1
    89    31    29   ar
    90   102   101   ar
    91     1     7    1
    92     6     7    1
    93   143   141   ar
    94   143   145   ar
    95   103   106   ar
    96   103   101   ar
    97   141   144   ar
    98    28    27   ar
    99    28    26   ar
   100    70    68    1
   101   150   151    2
   102   101   100    1
   103   145   147   ar
   104    68    67    1
   105    29    26   ar
   106   144   146   ar
   107    27    25   ar
   108    26    24   ar
   109   173   174    1
   110   147   146   ar
   111   184   182   ar
   112   184   186   ar
   113    83    84    1
   114    83    80    1
   115   181   182   ar
   116   181   179   ar
   117    67    64    1
   118   113   112    2
   119    85    84    2
   120    53    52   ar
   121    84    86   am
   122   182   180   ar
   123   186   185   ar
   124   175   174    1
   125   175   176    2
   126   100    97    1
   127    79    80    1
   128   179   178   ar
   129    25    24   ar
   130    80    81    1
   131    24    23    1
   132   180   178   ar
   133   180   183   ar
   134   185   183   ar
   135   174   177    1
   136   178   177    1
   137    96    97    1
   138    97    98    1
   139    62    60   ar
   140   112   111    1
   141    52    54   ar
   142    52    51    1
   143    64    65    1
   144    64    63    1
   145    66    65    2
   146    95    94    1
   147    23    20    1
   148    60    61   ar
   149    60    59    1
   150    81    82    2
   151   111   110    1
   152    94    93    1
   153    19    20    1
   154    98    99    2
   155    51    48    1
   156    63    57   am
   157    58    57    2
   158    41    42   ar
   159    41    39   ar
   160    44    42   ar
   161    44    46   ar
   162    20    21    1
   163    59    56    1
   164    57    56    1
   165    42    40   ar
   166    48    47    1
   167    48    49    1
   168    46    45   ar
   169    39    38   ar
   170    93    92    1
   171    56    55    1
   172    47    35   am
   173    21    22    2
   174    49    50    2
   175    92    91    1
   176    40    38   ar
   177    40    43   ar
   178    38    37    1
   179    45    43   ar
   180    35    36    2
   181    35    34    1
   182    33    34    1
   183    91    88    1
   184    37    34    1
   185    88    87    1
   186    88    89    1
   187    89    90    2
