@<TRIPOS>MOLECULE
tmp/3w7xB00.pdb
 114 111 0 0 0
SMALL
GASTEIGER

@<TRIPOS>ATOM
      1  N         17.2780   39.6920   13.0120 N.3   314  TRP314     -0.1227
      2  CA        18.5430   39.5200   13.7350 C.3   314  TRP314      0.1737
      3  C         19.7320   40.2410   13.0770 C.2   314  TRP314      0.2595
      4  O         20.8820   40.0020   13.4570 O.2   314  TRP314     -0.2718
      5  CB        18.8760   38.0320   13.8790 C.3   314  TRP314      0.0564
      6  CG        17.7620   37.1890   14.4100 C.ar  314  TRP314      0.0003
      7  CD1       17.0110   36.2960   13.7110 C.ar  314  TRP314      0.0946
      8  CD2       17.2860   37.1410   15.7630 C.ar  314  TRP314      0.0152
      9  NE1       16.0850   35.7040   14.5320 N.ar  314  TRP314     -0.2442
     10  CE2       16.2320   36.2010   15.8000 C.ar  314  TRP314      0.0810
     11  CE3       17.6370   37.8110   16.9450 C.ar  314  TRP314      0.0012
     12  CZ2       15.5170   35.9160   16.9770 C.ar  314  TRP314      0.0191
     13  CZ3       16.9280   37.5210   18.1110 C.ar  314  TRP314      0.0001
     14  CH2       15.8850   36.5840   18.1180 C.ar  314  TRP314      0.0015
     15  N         19.4610   41.1130   12.1040 N.am  315  PHE315     -0.1976
     16  CA        20.5150   41.8190   11.3700 C.3   315  PHE315      0.1639
     17  C         20.5150   43.3270   11.6380 C.2   315  PHE315      0.2290
     18  O         21.2970   44.0650   11.0330 O.2   315  PHE315     -0.2864
     19  CB        20.3490   41.6030    9.8560 C.3   315  PHE315      0.0560
     20  CG        20.5530   40.1790    9.3870 C.ar  315  PHE315     -0.0200
     21  CD1       21.6140   39.4050    9.8490 C.ar  315  PHE315     -0.0042
     22  CD2       19.7130   39.6380    8.4190 C.ar  315  PHE315     -0.0042
     23  CE1       21.8100   38.1090    9.3760 C.ar  315  PHE315     -0.0003
     24  CE2       19.9020   38.3440    7.9440 C.ar  315  PHE315     -0.0003
     25  CZ        20.9520   37.5760    8.4260 C.ar  315  PHE315     -0.0000
     26  N         29.1000   41.6980   11.0210 N.3   321  TRP321     -0.1241
     27  CA        29.8320   40.4690   10.7490 C.3   321  TRP321      0.1605
     28  C         30.9630   40.7660    9.7920 C.2   321  TRP321      0.2264
     29  O         30.8410   41.6920    8.9870 O.2   321  TRP321     -0.2867
     30  CB        28.9250   39.4430   10.0990 C.3   321  TRP321      0.0550
     31  CG        27.9270   38.8450   11.0240 C.ar  321  TRP321      0.0003
     32  CD1       28.0250   37.6440   11.6650 C.ar  321  TRP321      0.0946
     33  CD2       26.6650   39.4070   11.4120 C.ar  321  TRP321      0.0152
     34  NE1       26.9080   37.4310   12.4330 N.ar  321  TRP321     -0.2442
     35  CE2       26.0600   38.4990   12.2940 C.ar  321  TRP321      0.0810
     36  CE3       25.9920   40.5940   11.1030 C.ar  321  TRP321      0.0012
     37  CZ2       24.8110   38.7320   12.8610 C.ar  321  TRP321      0.0191
     38  CZ3       24.7550   40.8260   11.6800 C.ar  321  TRP321      0.0001
     39  CH2       24.1790   39.8970   12.5440 C.ar  321  TRP321      0.0015
     40  N         30.1580   39.4450    5.9250 N.3   324  ASN324     -0.1240
     41  CA        29.2700   40.4850    5.4440 C.3   324  ASN324      0.1653
     42  C         30.0430   41.7600    5.0710 C.2   324  ASN324      0.2266
     43  O         29.8550   42.3120    3.9880 O.2   324  ASN324     -0.2867
     44  CB        28.1940   40.7780    6.4970 C.3   324  ASN324      0.1155
     45  CG        27.1060   39.7080    6.5330 C.2   324  ASN324      0.2627
     46  OD1       26.1090   39.8110    5.8110 O.2   324  ASN324     -0.2716
     47  ND2       27.2920   38.6730    7.3580 N.am  324  ASN324     -0.0877
     48  N         32.8650   37.0840   15.2670 N.3   368  ASP368     -0.1225
     49  CA        31.8080   36.7890   14.3080 C.3   368  ASP368      0.1805
     50  C         30.8110   37.9210   14.2800 C.2   368  ASP368      0.2597
     51  O         30.3880   38.3640   13.2160 O.2   368  ASP368     -0.2718
     52  CB        31.0670   35.5040   14.7040 C.3   368  ASP368      0.1424
     53  CG        30.0590   35.0500   13.6520 C.2   368  ASP368      0.3668
     54  OD1       30.4510   34.9300   12.4710 O.co2 368  ASP368     -0.2456
     55  OD2       28.8820   34.7920   14.0080 O.co2 368  ASP368     -0.2456
     56  N         30.4360   38.3800   15.4680 N.am  369  LEU369     -0.1979
     57  CA        29.3500   39.3210   15.6120 C.3   369  LEU369      0.1596
     58  C         29.7040   40.2860   16.7230 C.2   369  LEU369      0.2287
     59  O         29.9000   39.8670   17.8690 O.2   369  LEU369     -0.2864
     60  CB        28.0580   38.5650   15.9320 C.3   369  LEU369      0.0297
     61  CG        26.7400   39.3150   15.7910 C.3   369  LEU369      0.0022
     62  CD1       25.5640   38.3760   15.9490 C.3   369  LEU369      0.0001
     63  CD2       26.6400   40.4360   16.8100 C.3   369  LEU369      0.0001
     64  N         23.9510   38.8140   21.6140 N.3   384  ASN384     -0.1240
     65  CA        24.3790   38.5070   20.2350 C.3   384  ASN384      0.1653
     66  C         25.8940   38.4900   20.0320 C.2   384  ASN384      0.2266
     67  O         26.4100   37.7160   19.2180 O.2   384  ASN384     -0.2867
     68  CB        23.7790   39.5090   19.2470 C.3   384  ASN384      0.1155
     69  CG        22.2710   39.5090   19.2580 C.2   384  ASN384      0.2627
     70  OD1       21.6460   40.5600   19.2710 O.2   384  ASN384     -0.2716
     71  ND2       21.6760   38.3260   19.2560 N.am  384  ASN384     -0.0877
     72  N         29.3140   37.6160   19.6630 N.3   386  ASN386     -0.1240
     73  CA        29.7240   36.2250   19.4730 C.3   386  ASN386      0.1653
     74  C         31.2030   36.0570   19.1360 C.2   386  ASN386      0.2266
     75  O         31.6720   36.5280   18.0920 O.2   386  ASN386     -0.2867
     76  CB        28.8870   35.6080   18.3650 C.3   386  ASN386      0.1155
     77  CG        29.1340   34.1330   18.2110 C.2   386  ASN386      0.2627
     78  OD1       29.3570   33.4320   19.2080 O.2   386  ASN386     -0.2716
     79  ND2       29.0950   33.6430   16.9610 N.am  386  ASN386     -0.0877
     80  N         34.5720   34.1240   10.6410 N.3   391  LYS391     -0.1245
     81  CA        33.9410   33.8930    9.3540 C.3   391  LYS391      0.1561
     82  C         35.0660   33.7800    8.3260 C.2   391  LYS391      0.2260
     83  O         36.1850   34.2370    8.5960 O.2   391  LYS391     -0.2867
     84  CB        33.0480   35.0930    9.0320 C.3   391  LYS391      0.0271
     85  CG        31.6900   35.0920    9.7030 C.3   391  LYS391      0.0035
     86  CD        30.7400   34.1750    8.9730 C.3   391  LYS391      0.0206
     87  CE        29.3070   34.3550    9.4230 C.3   391  LYS391      0.1093
     88  NZ        28.9930   33.6490   10.6950 N.3   391  LYS391     -0.1314
     89  N         28.8900   27.9110   11.4070 N.3   496  TRP496     -0.1241
     90  CA        28.7710   29.3650   11.2830 C.3   496  TRP496      0.1605
     91  C         30.0450   29.9400   10.6910 C.2   496  TRP496      0.2264
     92  O         29.9960   30.8280    9.8480 O.2   496  TRP496     -0.2867
     93  CB        28.5000   30.0400   12.6330 C.3   496  TRP496      0.0550
     94  CG        27.2250   29.6260   13.3110 C.ar  496  TRP496      0.0003
     95  CD1       26.1480   29.0190   12.7370 C.ar  496  TRP496      0.0946
     96  CD2       26.8860   29.8230   14.6900 C.ar  496  TRP496      0.0152
     97  NE1       25.1690   28.8020   13.6770 N.ar  496  TRP496     -0.2442
     98  CE2       25.5960   29.2880   14.8840 C.ar  496  TRP496      0.0810
     99  CE3       27.5520   30.3900   15.7820 C.ar  496  TRP496      0.0012
    100  CZ2       24.9550   29.3100   16.1240 C.ar  496  TRP496      0.0191
    101  CZ3       26.9150   30.4100   17.0200 C.ar  496  TRP496      0.0001
    102  CH2       25.6290   29.8740   17.1770 C.ar  496  TRP496      0.0015
    103  N         30.2370   29.9370    7.1130 N.3   499  GLY499     -0.1225
    104  CA        29.3160   30.8940    6.5290 C.3   499  GLY499      0.1811
    105  C         28.2070   30.2140    5.7580 C.2   499  GLY499      0.2280
    106  O         27.5160   30.8570    4.9680 O.2   499  GLY499     -0.2866
    107  N         25.7740   27.4070    7.1940 N.3   501  ASP501     -0.1239
    108  CA        25.4310   26.5180    8.3200 C.3   501  ASP501      0.1674
    109  C         24.6510   25.2190    8.0070 C.2   501  ASP501      0.2266
    110  O         24.4560   24.3930    8.9110 O.2   501  ASP501     -0.2867
    111  CB        24.6950   27.3060    9.4150 C.3   501  ASP501      0.1410
    112  CG        23.4480   28.0020    8.9060 C.2   501  ASP501      0.3668
    113  OD1       22.7230   27.4190    8.0660 O.co2 501  ASP501     -0.2456
    114  OD2       23.2040   29.1440    9.3560 O.co2 501  ASP501     -0.2456
@<TRIPOS>BOND
     1    43    42    2
     2   106   105    2
     3    42    41    1
     4    41    40    1
     5    41    44    1
     6   105   104    1
     7    46    45    2
     8    44    45    1
     9   104   103    1
    10    45    47   am
    11   107   108    1
    12    24    22   ar
    13    24    25   ar
    14   109   108    1
    15   109   110    2
    16   113   112   ar
    17   108   111    1
    18    82    83    2
    19    82    81    1
    20    22    20   ar
    21    25    23   ar
    22   112   114   ar
    23   112   111    1
    24    86    87    1
    25    86    85    1
    26    29    28    2
    27    84    81    1
    28    84    85    1
    29    81    80    1
    30    23    21   ar
    31    20    21   ar
    32    20    19    1
    33    87    88    1
    34    28    27    1
    35    92    91    2
    36    19    16    1
    37    30    27    1
    38    30    31    1
    39    91    90    1
    40    27    26    1
    41    31    33   ar
    42    31    32   ar
    43    18    17    2
    44    36    33   ar
    45    36    38   ar
    46    90    89    1
    47    90    93    1
    48    16    17    1
    49    16    15    1
    50    33    35   ar
    51    32    34   ar
    52    38    39   ar
    53    15     3   am
    54    35    34   ar
    55    35    37   ar
    56    54    53   ar
    57    39    37   ar
    58    93    94    1
    59    95    94   ar
    60    95    97   ar
    61     1     2    1
    62     3     4    2
    63     3     2    1
    64    51    50    2
    65    94    96   ar
    66    53    55   ar
    67    53    52    1
    68    97    98   ar
    69     7     6   ar
    70     7     9   ar
    71     2     5    1
    72     5     6    1
    73    50    49    1
    74    50    56   am
    75    49    52    1
    76    49    48    1
    77     6     8   ar
    78     9    10   ar
    79    96    98   ar
    80    96    99   ar
    81    98   100   ar
    82    56    57    1
    83    57    60    1
    84    57    58    1
    85     8    10   ar
    86     8    11   ar
    87    99   101   ar
    88    61    60    1
    89    61    62    1
    90    61    63    1
    91    10    12   ar
    92   100   102   ar
    93    58    59    2
    94    11    13   ar
    95    79    77   am
    96    12    14   ar
    97   101   102   ar
    98    75    74    2
    99    13    14   ar
   100    77    76    1
   101    77    78    2
   102    76    73    1
   103    74    73    1
   104    67    66    2
   105    68    69    1
   106    68    65    1
   107    71    69   am
   108    69    70    2
   109    73    72    1
   110    66    65    1
   111    65    64    1
