@<TRIPOS>MOLECULE
tmp/3w81A02.pdb
 108 106 0 0 0
SMALL
GASTEIGER

@<TRIPOS>ATOM
      1  N         -5.8690   -6.0760  -40.7020 N.3    14  LEU14      -0.1231
      2  CA        -6.4190   -5.3470  -41.8530 C.3    14  LEU14       0.1693
      3  C         -7.3370   -4.1790  -41.5110 C.2    14  LEU14       0.2592
      4  O         -7.2560   -3.0950  -42.0950 O.2    14  LEU14      -0.2718
      5  CB        -7.1930   -6.3270  -42.7430 C.3    14  LEU14       0.0284
      6  CG        -6.4130   -7.4890  -43.3460 C.3    14  LEU14       0.0019
      7  CD1       -7.3990   -8.4890  -43.9550 C.3    14  LEU14       0.0001
      8  CD2       -5.4060   -6.9990  -44.3980 C.3    14  LEU14       0.0001
      9  N         -8.2500   -4.4330  -40.5910 N.am   15  TRP15      -0.1976
     10  CA        -9.2710   -3.4780  -40.1640 C.3    15  TRP15       0.1640
     11  C         -9.8900   -4.0860  -38.9060 C.2    15  TRP15       0.2290
     12  O         -9.6650   -5.2630  -38.6070 O.2    15  TRP15      -0.2864
     13  CB       -10.3530   -3.3140  -41.2450 C.3    15  TRP15       0.0576
     14  CG       -10.5960   -4.5760  -41.9830 C.ar   15  TRP15       0.0006
     15  CD1      -11.1450   -5.7170  -41.4800 C.ar   15  TRP15       0.0946
     16  CD2      -10.2860   -4.8520  -43.3660 C.ar   15  TRP15       0.0152
     17  NE1      -11.2120   -6.6820  -42.4520 N.ar   15  TRP15      -0.2442
     18  CE2      -10.6860   -6.1840  -43.6210 C.ar   15  TRP15       0.0810
     19  CE3       -9.7090   -4.1050  -44.4090 C.ar   15  TRP15       0.0012
     20  CZ2      -10.5270   -6.7940  -44.8790 C.ar   15  TRP15       0.0191
     21  CZ3       -9.5550   -4.7060  -45.6740 C.ar   15  TRP15       0.0001
     22  CH2       -9.9590   -6.0440  -45.8910 C.ar   15  TRP15       0.0015
     23  N        -16.7090  -11.4910  -43.9570 N.3   305  ASN305     -0.1240
     24  CA       -15.8010  -11.5410  -45.0880 C.3   305  ASN305      0.1653
     25  C        -16.3730  -11.0160  -46.4030 C.2   305  ASN305      0.2266
     26  O        -15.6230  -10.5520  -47.2620 O.2   305  ASN305     -0.2867
     27  CB       -15.3440  -12.9720  -45.3010 C.3   305  ASN305      0.1155
     28  CG       -14.3980  -13.4540  -44.2170 C.2   305  ASN305      0.2627
     29  OD1      -13.6650  -12.6530  -43.6100 O.2   305  ASN305     -0.2716
     30  ND2      -14.3810  -14.7690  -43.9860 N.am  305  ASN305     -0.0877
     31  N        -16.0350   -6.6520  -44.5400 N.3   309  ALA309     -0.1231
     32  CA       -14.5660   -6.5920  -44.7400 C.3   309  ALA309      0.1694
     33  C        -14.1100   -5.4450  -45.6450 C.2   309  ALA309      0.2592
     34  O        -13.1200   -4.7750  -45.3670 O.2   309  ALA309     -0.2718
     35  CB       -14.0430   -7.9210  -45.2750 C.3   309  ALA309      0.0304
     36  N        -14.8210   -5.2590  -46.7470 N.am  310  ASN310     -0.1974
     37  CA       -14.7370   -4.0610  -47.5780 C.3   310  ASN310      0.1688
     38  C        -15.7570   -4.4060  -48.6300 C.2   310  ASN310      0.2292
     39  O        -16.2170   -5.5440  -48.6640 O.2   310  ASN310     -0.2864
     40  CB       -13.3320   -3.8810  -48.2010 C.3   310  ASN310      0.1181
     41  CG       -13.1130   -4.7410  -49.4560 C.2   310  ASN310      0.2629
     42  OD1      -13.0860   -5.9780  -49.3950 O.2   310  ASN310     -0.2716
     43  ND2      -12.9390   -4.0800  -50.6000 N.am  310  ASN310     -0.0877
     44  N         -9.0750   -7.9510  -37.6600 N.3   374  GLN374     -0.1231
     45  CA        -9.1340   -9.1070  -38.5410 C.3   374  GLN374      0.1698
     46  C         -7.8020   -9.3110  -39.2310 C.2   374  GLN374      0.2592
     47  O         -7.2010   -8.3480  -39.7230 O.2   374  GLN374     -0.2718
     48  CB       -10.2560   -9.0020  -39.5690 C.3   374  GLN374      0.0381
     49  CG       -10.3870  -10.2760  -40.3900 C.3   374  GLN374      0.0905
     50  CD       -11.5980  -10.2860  -41.2890 C.2   374  GLN374      0.2608
     51  OE1      -12.1810   -9.2330  -41.6020 O.2   374  GLN374     -0.2717
     52  NE2      -11.9800  -11.4780  -41.7310 N.am  374  GLN374     -0.0878
     53  N         -7.3360  -10.5590  -39.2470 N.am  375  LEU375     -0.1966
     54  CA        -6.1210  -10.9180  -39.9950 C.3   375  LEU375      0.1728
     55  C         -6.4990  -11.3800  -41.4000 C.2   375  LEU375      0.2616
     56  O         -7.5760  -11.9580  -41.5970 O.2   375  LEU375     -0.2715
     57  CB        -5.3450  -12.0500  -39.3050 C.3   375  LEU375      0.0311
     58  CG        -4.8290  -11.7590  -37.9040 C.3   375  LEU375      0.0022
     59  CD1       -4.3080  -13.0150  -37.2180 C.3   375  LEU375      0.0001
     60  CD2       -3.7700  -10.6680  -37.9630 C.3   375  LEU375      0.0001
     61  N         -5.6030  -11.1180  -42.3570 N.am  376  TRP376     -0.1960
     62  CA        -5.6670  -11.6730  -43.7020 C.3   376  TRP376      0.1771
     63  C         -5.5980  -13.1770  -43.6390 C.2   376  TRP376      0.2620
     64  O         -4.7030  -13.7530  -43.0140 O.2   376  TRP376     -0.2715
     65  CB        -4.4920  -11.1820  -44.5350 C.3   376  TRP376      0.0590
     66  CG        -4.5490  -11.6050  -45.9850 C.ar  376  TRP376      0.0006
     67  CD1       -5.1170  -10.9040  -47.0230 C.ar  376  TRP376      0.0946
     68  CD2       -3.9990  -12.7970  -46.5670 C.ar  376  TRP376      0.0152
     69  NE1       -4.9610  -11.5930  -48.2120 N.ar  376  TRP376     -0.2442
     70  CE2       -4.2720  -12.7510  -47.9650 C.ar  376  TRP376      0.0810
     71  CE3       -3.2970  -13.8950  -46.0530 C.ar  376  TRP376      0.0012
     72  CZ2       -3.8750  -13.7760  -48.8510 C.ar  376  TRP376      0.0191
     73  CZ3       -2.8900  -14.9150  -46.9440 C.ar  376  TRP376      0.0001
     74  CH2       -3.1930  -14.8460  -48.3210 C.ar  376  TRP376      0.0015
     75  N         -6.5600  -13.8140  -44.2770 N.am  377  ALA377     -0.1963
     76  CA        -6.5540  -15.2430  -44.3970 C.3   377  ALA377      0.1728
     77  C         -7.0470  -15.6040  -45.7970 C.2   377  ALA377      0.2616
     78  O         -7.7070  -14.7940  -46.4560 O.2   377  ALA377     -0.2715
     79  CB        -7.4320  -15.8720  -43.3240 C.3   377  ALA377      0.0334
     80  N         -6.7240  -16.8040  -46.2660 N.am  378  GLU378     -0.1963
     81  CA        -7.2160  -17.2350  -47.5590 C.3   378  GLU378      0.1733
     82  C         -7.3980  -18.7380  -47.5720 C.2   378  GLU378      0.2616
     83  O         -6.5120  -19.4710  -47.1700 O.2   378  GLU378     -0.2715
     84  CB        -6.2720  -16.7760  -48.6660 C.3   378  GLU378      0.0429
     85  CG        -6.6300  -17.2660  -50.0550 C.3   378  GLU378      0.1163
     86  CD        -5.4170  -17.2020  -50.9670 C.2   378  GLU378      0.3649
     87  OE1       -4.6600  -18.2010  -51.0500 O.co2 378  GLU378     -0.2457
     88  OE2       -5.1910  -16.1250  -51.5460 O.co2 378  GLU378     -0.2457
     89  N         -8.5730  -19.1820  -48.0000 N.am  379  VAL379     -0.1977
     90  CA        -8.8600  -20.5880  -48.1570 C.3   379  VAL379      0.1596
     91  C         -8.7630  -20.9770  -49.6520 C.2   379  VAL379      0.2287
     92  O         -9.2100  -20.2380  -50.5340 O.2   379  VAL379     -0.2864
     93  CB       -10.2510  -20.9460  -47.6050 C.3   379  VAL379      0.0276
     94  CG1      -10.5330  -22.4150  -47.8390 C.3   379  VAL379      0.0022
     95  CG2      -10.3390  -20.6340  -46.1180 C.3   379  VAL379      0.0022
     96  N        -15.9320  -17.3430  -48.3310 N.3   388  SER388     -0.1217
     97  CA       -16.7040  -18.0000  -47.2650 C.3   388  SER388      0.1889
     98  C        -18.0150  -18.6160  -47.7520 C.2   388  SER388      0.2288
     99  O        -18.7030  -19.3230  -47.0140 O.2   388  SER388     -0.2866
    100  CB       -16.9250  -17.0520  -46.0790 C.3   388  SER388      0.2089
    101  OG       -15.6750  -16.7440  -45.4460 O.3   388  SER388     -0.2183
    102  N        -13.0100  -19.5840  -42.7010 N.3   394  VAL394     -0.1245
    103  CA       -12.1730  -19.2190  -41.5890 C.3   394  VAL394      0.1561
    104  C        -12.3820  -17.7680  -41.2220 C.2   394  VAL394      0.2260
    105  O        -12.7180  -16.9110  -42.0590 O.2   394  VAL394     -0.2867
    106  CB       -10.6690  -19.4720  -41.8770 C.3   394  VAL394      0.0252
    107  CG1      -10.1320  -18.5130  -42.9280 C.3   394  VAL394      0.0019
    108  CG2       -9.8500  -19.3050  -40.6010 C.3   394  VAL394      0.0019
@<TRIPOS>BOND
     1    88    86   ar
     2    87    86   ar
     3    86    85    1
     4    43    41   am
     5    92    91    2
     6    85    84    1
     7    91    90    1
     8    41    42    2
     9    41    40    1
    10    72    74   ar
    11    72    70   ar
    12    84    81    1
    13    39    38    2
    14    38    37    1
    15    96    97    1
    16    74    73   ar
    17    69    70   ar
    18    69    67   ar
    19    40    37    1
    20    90    89    1
    21    90    93    1
    22    89    82   am
    23    70    68   ar
    24    94    93    1
    25    98    97    1
    26    98    99    2
    27    93    95    1
    28    37    36    1
    29    82    81    1
    30    82    83    2
    31    81    80    1
    32    97   100    1
    33    26    25    2
    34    67    66   ar
    35    73    71   ar
    36    36    33   am
    37    68    71   ar
    38    68    66   ar
    39    78    77    2
    40    25    24    1
    41    80    77   am
    42   100   101    1
    43    66    65    1
    44    22    21   ar
    45    22    20   ar
    46    77    76    1
    47    21    19   ar
    48    33    34    2
    49    33    32    1
    50    27    24    1
    51    27    28    1
    52    35    32    1
    53    24    23    1
    54    20    18   ar
    55    32    31    1
    56    65    62    1
    57    19    16   ar
    58     8     6    1
    59    76    75    1
    60    76    79    1
    61    75    63   am
    62    28    30   am
    63    28    29    2
    64     7     6    1
    65    62    63    1
    66    62    61    1
    67    63    64    2
    68    18    16   ar
    69    18    17   ar
    70    16    14   ar
    71     6     5    1
    72   107   106    1
    73     5     2    1
    74   102   103    1
    75    17    15   ar
    76    61    55   am
    77     4     3    2
    78   105   104    2
    79    14    15   ar
    80    14    13    1
    81   106   103    1
    82   106   108    1
    83     2     3    1
    84     2     1    1
    85    52    50   am
    86    51    50    2
    87    56    55    2
    88   103   104    1
    89     3     9   am
    90    55    54    1
    91    50    49    1
    92    13    10    1
    93     9    10    1
    94    49    48    1
    95    10    11    1
    96    54    57    1
    97    54    53    1
    98    47    46    2
    99    48    45    1
   100    57    58    1
   101    53    46   am
   102    46    45    1
   103    11    12    2
   104    45    44    1
   105    60    58    1
   106    58    59    1
