@<TRIPOS>MOLECULE
tmp/3w82A02.pdb
 116 111 0 0 0
SMALL
GASTEIGER

@<TRIPOS>ATOM
      1  N         33.3260   26.2090    4.2520 N.3    27  CYS27      -0.1235
      2  CA        33.6090   27.6340    4.1650 C.3    27  CYS27       0.1677
      3  C         34.7290   27.8800    3.1740 C.2    27  CYS27       0.2270
      4  O         35.7830   27.2830    3.2880 O.2    27  CYS27      -0.2867
      5  CB        34.0200   28.1640    5.5360 C.3    27  CYS27       0.0956
      6  SG        34.4260   29.9200    5.5310 S.3    27  CYS27      -0.0801
      7  N         29.1660   28.9930    3.5310 N.3    65  HIS65      -0.1241
      8  CA        29.5150   30.3640    3.9440 C.3    65  HIS65       0.1621
      9  C         29.8110   31.2640    2.7310 C.2    65  HIS65       0.2264
     10  O         30.1640   30.7740    1.6420 O.2    65  HIS65      -0.2867
     11  CB        30.7720   30.3730    4.8330 C.3    65  HIS65       0.0745
     12  CG        30.5840   29.7900    6.2030 C.ar   65  HIS65       0.0817
     13  ND1       29.4900   29.0310    6.5590 N.ar   65  HIS65      -0.2268
     14  CD2       31.3910   29.8160    7.2920 C.ar   65  HIS65       0.1154
     15  CE1       29.6200   28.6340    7.8130 C.ar   65  HIS65       0.1986
     16  NE2       30.7630   29.0990    8.2820 N.ar   65  HIS65      -0.2212
     17  N         26.9810   33.7430    9.5150 N.3   155  ASN155     -0.1225
     18  CA        27.5460   32.6980   10.3760 C.3   155  ASN155      0.1785
     19  C         28.1130   33.2720   11.6640 C.2   155  ASN155      0.2597
     20  O         28.7520   34.3210   11.6530 O.2   155  ASN155     -0.2718
     21  CB        28.6650   31.9400    9.6330 C.3   155  ASN155      0.1169
     22  CG        29.2220   30.7630   10.4320 C.2   155  ASN155      0.2627
     23  OD1       28.5770   29.7240   10.5690 O.2   155  ASN155     -0.2716
     24  ND2       30.4290   30.9150   10.9410 N.am  155  ASN155     -0.0877
     25  N         27.8940   32.5680   12.7660 N.am  156  GLU156     -0.1979
     26  CA        28.4990   32.9350   14.0350 C.3   156  GLU156      0.1602
     27  C         28.6990   34.4440   14.1360 C.2   156  GLU156      0.2287
     28  O         29.8080   34.9550   13.9540 O.2   156  GLU156     -0.2864
     29  CB        29.8240   32.1820   14.2160 C.3   156  GLU156      0.0415
     30  CG        29.6410   30.7200   14.6040 C.3   156  GLU156      0.1163
     31  CD        30.9450   29.9540   14.7460 C.2   156  GLU156      0.3649
     32  OE1       32.0200   30.5780   14.7880 O.co2 156  GLU156     -0.2457
     33  OE2       30.8950   28.7110   14.8130 O.co2 156  GLU156     -0.2457
     34  N         31.2580   35.8320   16.6920 N.3   159  HIS159     -0.1241
     35  CA        32.6800   35.6020   16.4190 C.3   159  HIS159      0.1621
     36  C         33.2490   36.6850   15.4940 C.2   159  HIS159      0.2264
     37  O         34.3960   36.6040   15.0680 O.2   159  HIS159     -0.2867
     38  CB        32.8880   34.2130   15.8020 C.3   159  HIS159      0.0745
     39  CG        32.7190   33.0800   16.7740 C.ar  159  HIS159      0.0817
     40  ND1       31.4930   32.7120   17.2910 N.ar  159  HIS159     -0.2268
     41  CD2       33.6210   32.2190   17.3030 C.ar  159  HIS159      0.1154
     42  CE1       31.6500   31.6820   18.1040 C.ar  159  HIS159      0.1986
     43  NE2       32.9310   31.3620   18.1260 N.ar  159  HIS159     -0.2212
     44  N         30.0260   22.0890   19.9240 N.3   238  LYS238     -0.1245
     45  CA        30.9540   21.0490   19.5450 C.3   238  LYS238      0.1561
     46  C         31.4390   20.3170   20.8000 C.2   238  LYS238      0.2260
     47  O         31.3220   20.8260   21.9180 O.2   238  LYS238     -0.2867
     48  CB        32.1060   21.6530   18.7510 C.3   238  LYS238      0.0271
     49  CG        31.6790   22.2170   17.3960 C.3   238  LYS238      0.0035
     50  CD        32.6260   23.3100   16.9290 C.3   238  LYS238      0.0206
     51  CE        32.0130   24.1850   15.8450 C.3   238  LYS238      0.1093
     52  NZ        32.1940   23.6200   14.4770 N.3   238  LYS238     -0.1314
     53  N         26.4310   22.9370   13.2170 N.3   273  GLU273     -0.1245
     54  CA        27.8480   22.5630   13.2480 C.3   273  GLU273      0.1567
     55  C         28.1290   21.6720   14.4510 C.2   273  GLU273      0.2260
     56  O         28.9550   21.9970   15.3000 O.2   273  GLU273     -0.2867
     57  CB        28.7470   23.7960   13.2850 C.3   273  GLU273      0.0388
     58  CG        28.6600   24.6710   12.0450 C.3   273  GLU273      0.1160
     59  CD        29.7300   25.7410   12.0130 C.2   273  GLU273      0.3649
     60  OE1       30.8220   25.5020   12.5860 O.co2 273  GLU273     -0.2457
     61  OE2       29.4830   26.8110   11.4110 O.co2 273  GLU273     -0.2457
     62  N         36.1590   21.3850   17.4520 N.3   278  VAL278     -0.1231
     63  CA        36.2930   22.6310   16.7110 C.3   278  VAL278      0.1692
     64  C         37.6630   22.7190   16.0550 C.2   278  VAL278      0.2593
     65  O         38.6690   22.3200   16.6470 O.2   278  VAL278     -0.2718
     66  CB        36.0710   23.8620   17.6310 C.3   278  VAL278      0.0266
     67  CG1       37.1440   23.9520   18.6990 C.3   278  VAL278      0.0020
     68  CG2       36.0160   25.1510   16.8220 C.3   278  VAL278      0.0020
     69  N         37.6960   23.2440   14.8350 N.am  279  GLY279     -0.1942
     70  CA        38.9500   23.4170   14.0970 C.3   279  GLY279      0.2014
     71  C         39.1000   22.3490   13.0350 C.2   279  GLY279      0.2638
     72  O         39.8090   21.3710   13.2370 O.2   279  GLY279     -0.2714
     73  N         38.4360   22.5340   11.8970 N.am  280  TRP280     -0.1973
     74  CA        38.3600   21.4860   10.8800 C.3   280  TRP280      0.1640
     75  C         39.7070   21.1510   10.2580 C.2   280  TRP280      0.2290
     76  O         39.8940   20.0340    9.7830 O.2   280  TRP280     -0.2864
     77  CB        37.4050   21.8920    9.7560 C.3   280  TRP280      0.0576
     78  CG        38.0070   22.8690    8.8070 C.ar  280  TRP280      0.0006
     79  CD1       37.9970   24.2170    8.9230 C.ar  280  TRP280      0.0946
     80  CD2       38.7300   22.5710    7.6070 C.ar  280  TRP280      0.0152
     81  NE1       38.6660   24.7870    7.8710 N.ar  280  TRP280     -0.2442
     82  CE2       39.1270   23.8000    7.0470 C.ar  280  TRP280      0.0810
     83  CE3       39.0790   21.3840    6.9490 C.ar  280  TRP280      0.0012
     84  CZ2       39.8450   23.8860    5.8580 C.ar  280  TRP280      0.0191
     85  CZ3       39.8120   21.4690    5.7630 C.ar  280  TRP280      0.0001
     86  CH2       40.1830   22.7160    5.2320 C.ar  280  TRP280      0.0015
     87  N         29.8850   19.5810   10.1020 N.3   323  ASP323     -0.1239
     88  CA        30.3880   20.5790    9.1480 C.3   323  ASP323      0.1674
     89  C         31.6870   20.0920    8.5290 C.2   323  ASP323      0.2266
     90  O         32.7650   20.4890    8.9630 O.2   323  ASP323     -0.2867
     91  CB        30.6220   21.9140    9.8650 C.3   323  ASP323      0.1410
     92  CG        30.4890   23.1210    8.9440 C.2   323  ASP323      0.3668
     93  OD1       31.4950   23.8300    8.7140 O.co2 323  ASP323     -0.2456
     94  OD2       29.3670   23.3760    8.4650 O.co2 323  ASP323     -0.2456
     95  N         34.5860   20.2730    3.7210 N.3   326  PHE326     -0.1241
     96  CA        35.8280   20.9710    3.3730 C.3   326  PHE326      0.1605
     97  C         36.7370   20.1190    2.4820 C.2   326  PHE326      0.2264
     98  O         36.8180   18.9100    2.6600 O.2   326  PHE326     -0.2867
     99  CB        36.6210   21.3350    4.6430 C.3   326  PHE326      0.0534
    100  CG        35.9480   22.3530    5.5250 C.ar  326  PHE326     -0.0203
    101  CD1       35.0330   21.9610    6.4900 C.ar  326  PHE326     -0.0042
    102  CD2       36.2510   23.6940    5.4110 C.ar  326  PHE326     -0.0042
    103  CE1       34.4190   22.8920    7.3070 C.ar  326  PHE326     -0.0003
    104  CE2       35.6470   24.6300    6.2350 C.ar  326  PHE326     -0.0003
    105  CZ        34.7250   24.2300    7.1790 C.ar  326  PHE326     -0.0000
    106  N         39.0000   17.3610    9.1640 N.3   337  ARG337     -0.1245
    107  CA        37.5860   17.0340    9.3070 C.3   337  ARG337      0.1563
    108  C         36.8610   17.2160    7.9820 C.2   337  ARG337      0.2260
    109  O         36.2110   18.2320    7.7410 O.2   337  ARG337     -0.2867
    110  CB        36.9420   17.8910   10.3750 C.3   337  ARG337      0.0307
    111  CG        35.5190   17.5000   10.6750 C.3   337  ARG337      0.0489
    112  CD        34.9860   18.4320   11.7310 C.3   337  ARG337      0.2205
    113  NE        34.6970   19.7490   11.1860 N.pl3 337  ARG337     -0.0865
    114  CZ        34.6350   20.8710   11.9030 C.cat 337  ARG337      0.5346
    115  NH1       34.8610   20.8590   13.2140 N.pl3 337  ARG337      0.1354
    116  NH2       34.3520   22.0220   11.2970 N.pl3 337  ARG337      0.1354
@<TRIPOS>BOND
     1    10     9    2
     2    97    98    2
     3    97    96    1
     4     9     8    1
     5     3     4    2
     6     3     2    1
     7    96    95    1
     8    96    99    1
     9     7     8    1
    10     8    11    1
    11     2     1    1
    12     2     5    1
    13    99   100    1
    14    11    12    1
    15    86    85   ar
    16    86    84   ar
    17   102   100   ar
    18   102   104   ar
    19   100   101   ar
    20     6     5    1
    21    85    83   ar
    22    84    82   ar
    23    12    13   ar
    24    12    14   ar
    25   104   105   ar
    26   101   103   ar
    27    13    15   ar
    28    83    80   ar
    29    82    80   ar
    30    82    81   ar
    31   105   103   ar
    32    14    16   ar
    33    80    78   ar
    34   109   108    2
    35    15    16   ar
    36    81    79   ar
    37   108   107    1
    38    94    92   ar
    39    89    90    2
    40    89    88    1
    41    93    92   ar
    42    78    79   ar
    43    78    77    1
    44    92    91    1
    45    88    91    1
    46    88    87    1
    47   106   107    1
    48   107   110    1
    49    17    18    1
    50    21    18    1
    51    21    22    1
    52    77    74    1
    53    76    75    2
    54    75    74    1
    55   110   111    1
    56    18    19    1
    57    22    23    2
    58    22    24   am
    59   111   112    1
    60    74    73    1
    61   113   112    1
    62   113   114    2
    63   116   114    1
    64    61    59   ar
    65    20    19    2
    66    19    25   am
    67    73    71   am
    68   114   115    1
    69    59    58    1
    70    59    60   ar
    71    58    57    1
    72    25    26    1
    73    71    72    2
    74    71    70    1
    75    53    54    1
    76    54    57    1
    77    54    55    1
    78    28    27    2
    79    26    27    1
    80    26    29    1
    81    70    69    1
    82    29    30    1
    83    55    56    2
    84    52    51    1
    85    30    31    1
    86    31    32   ar
    87    31    33   ar
    88    69    64   am
    89    37    36    2
    90    36    35    1
    91    38    35    1
    92    38    39    1
    93    51    50    1
    94    64    65    2
    95    64    63    1
    96    35    34    1
    97    63    62    1
    98    63    66    1
    99    39    40   ar
   100    39    41   ar
   101    68    66    1
   102    50    49    1
   103    40    42   ar
   104    41    43   ar
   105    49    48    1
   106    66    67    1
   107    42    43   ar
   108    48    45    1
   109    45    44    1
   110    45    46    1
   111    46    47    2
