@<TRIPOS>MOLECULE
tmp/3w83A00.pdb
 146 134 0 0 0
SMALL
GASTEIGER

@<TRIPOS>ATOM
      1  N         16.4790   19.1150   17.0900 N.3    44  LYS44      -0.1231
      2  CA        15.1400   19.1570   16.5220 C.3    44  LYS44       0.1693
      3  C         15.2150   19.1770   15.0020 C.2    44  LYS44       0.2592
      4  O         16.0640   19.8720   14.4140 O.2    44  LYS44      -0.2718
      5  CB        14.4000   20.3920   17.0240 C.3    44  LYS44       0.0285
      6  CG        13.1690   20.7460   16.2270 C.3    44  LYS44       0.0035
      7  CD        11.9840   19.8470   16.5790 C.3    44  LYS44       0.0206
      8  CE        10.9610   19.7980   15.4670 C.3    44  LYS44       0.1093
      9  NZ         9.8680   18.8940   15.9030 N.3    44  LYS44      -0.1314
     10  N         14.3220   18.3990   14.3760 N.am   45  SER45      -0.1952
     11  CA        14.2800   18.2360   12.9180 C.3    45  SER45       0.1924
     12  C         14.0320   19.5970   12.3000 C.2    45  SER45       0.2314
     13  O         13.1300   20.2890   12.7080 O.2    45  SER45      -0.2863
     14  CB        13.1820   17.2420   12.5110 C.3    45  SER45       0.2116
     15  OG        13.6650   15.9030   12.3910 O.3    45  SER45      -0.2180
     16  N         10.3130   28.1230   11.5960 N.3    51  ARG51      -0.1245
     17  CA         8.9100   27.7690   11.6660 C.3    51  ARG51       0.1563
     18  C          8.3070   27.9770   13.0580 C.2    51  ARG51       0.2260
     19  O          8.9940   27.8640   14.0750 O.2    51  ARG51      -0.2867
     20  CB         8.6970   26.3280   11.1930 C.3    51  ARG51       0.0307
     21  CG         8.7180   26.1790    9.6770 C.3    51  ARG51       0.0489
     22  CD         8.6120   24.7410    9.2310 C.3    51  ARG51       0.2205
     23  NE         7.3910   24.0940    9.7160 N.pl3  51  ARG51      -0.0865
     24  CZ         6.2300   24.0740    9.0660 C.cat  51  ARG51       0.5346
     25  NH1        6.1070   24.6590    7.8840 N.pl3  51  ARG51       0.1354
     26  NH2        5.1890   23.4610    9.6050 N.pl3  51  ARG51       0.1354
     27  N          2.4470   24.3120   14.6370 N.3    54  ASN54      -0.1240
     28  CA         0.9950   24.3510   14.7970 C.3    54  ASN54       0.1653
     29  C          0.5820   25.0850   16.0730 C.2    54  ASN54       0.2266
     30  O          1.4270   25.3460   16.9400 O.2    54  ASN54      -0.2867
     31  CB         0.4030   22.9270   14.8670 C.3    54  ASN54       0.1155
     32  CG         0.6760   22.0860   13.6220 C.2    54  ASN54       0.2627
     33  OD1        0.6810   22.5850   12.4920 O.2    54  ASN54      -0.2716
     34  ND2        0.8870   20.7890   13.8320 N.am   54  ASN54      -0.0877
     35  N          1.1370   14.2470   19.9110 N.3    68  ASN68      -0.1225
     36  CA         1.5990   15.5490   19.3630 C.3    68  ASN68       0.1785
     37  C          1.3410   15.8130   17.8710 C.2    68  ASN68       0.2598
     38  O          1.4140   14.8890   17.0580 O.2    68  ASN68      -0.2718
     39  CB         3.0920   15.7740   19.6630 C.3    68  ASN68       0.1169
     40  CG         4.0170   15.0390   18.6810 C.2    68  ASN68       0.2627
     41  OD1        4.0580   15.3360   17.4680 O.2    68  ASN68      -0.2716
     42  ND2        4.7620   14.0900   19.1980 N.am   68  ASN68      -0.0877
     43  N          1.0300   17.0780   17.5440 N.am   69  SER69      -0.1938
     44  CA         1.2140   17.6590   16.1850 C.3    69  SER69       0.2055
     45  C          1.8390   19.0260   16.3520 C.2    69  SER69       0.2643
     46  O          1.1560   20.0520   16.3340 O.2    69  SER69      -0.2714
     47  CB        -0.0790   17.7980   15.3840 C.3    69  SER69       0.2130
     48  OG        -0.9470   16.7160   15.6580 O.3    69  SER69      -0.2179
     49  N          3.1450   19.0100   16.5690 N.am   70  MET70      -0.1962
     50  CA         3.9520   20.2180   16.6650 C.3    70  MET70       0.1736
     51  C          3.9930   20.9930   15.3310 C.2    70  MET70       0.2617
     52  O          4.0290   22.2310   15.3230 O.2    70  MET70      -0.2715
     53  CB         5.3680   19.8480   17.0810 C.3    70  MET70       0.0427
     54  CG         5.4240   18.8890   18.2440 C.3    70  MET70       0.0599
     55  SD         4.7730   19.6540   19.7270 S.3    70  MET70      -0.1393
     56  CE         6.1340   20.7400   20.1830 C.3    70  MET70       0.0692
     57  N          3.9950   20.2730   14.2110 N.am   71  GLY71      -0.1940
     58  CA         4.0430   20.9210   12.9160 C.3    71  GLY71       0.2014
     59  C          5.4220   21.4440   12.5880 C.2    71  GLY71       0.2638
     60  O          5.5720   22.3950   11.8240 O.2    71  GLY71      -0.2714
     61  N          6.4350   20.8280   13.1840 N.am   72  LEU72      -0.1977
     62  CA         7.8220   21.0760   12.7970 C.3    72  LEU72       0.1596
     63  C          8.2870   22.5080   13.1020 C.2    72  LEU72       0.2287
     64  O          8.9550   23.1320   12.2600 O.2    72  LEU72      -0.2864
     65  CB         7.9800   20.7670   11.3050 C.3    72  LEU72       0.0297
     66  CG         9.3080   20.3860   10.6680 C.3    72  LEU72       0.0022
     67  CD1       10.0900   19.3520   11.5260 C.3    72  LEU72       0.0001
     68  CD2        8.9710   19.8280    9.2960 C.3    72  LEU72       0.0001
     69  N         14.4110   17.7760    8.2520 N.3   100  SER100     -0.1217
     70  CA        13.0930   17.3220    7.8890 C.3   100  SER100      0.1889
     71  C         12.4380   18.2710    6.9050 C.2   100  SER100      0.2288
     72  O         11.4450   18.9220    7.2240 O.2   100  SER100     -0.2866
     73  CB        12.2480   17.1500    9.1370 C.3   100  SER100      0.2089
     74  OG        10.9220   16.8590    8.7750 O.3   100  SER100     -0.2183
     75  N         10.4030   19.8000    3.6140 N.3   102  LEU102     -0.1245
     76  CA         9.0250   19.5670    3.1680 C.3   102  LEU102      0.1561
     77  C          8.9170   19.0840    1.7090 C.2   102  LEU102      0.2260
     78  O          7.8230   18.7790    1.2240 O.2   102  LEU102     -0.2867
     79  CB         8.1400   20.7910    3.4630 C.3   102  LEU102      0.0270
     80  CG         8.1940   21.2420    4.9400 C.3   102  LEU102      0.0019
     81  CD1        7.2730   22.4300    5.1900 C.3   102  LEU102      0.0001
     82  CD2        7.8760   20.1290    5.9190 C.3   102  LEU102      0.0001
     83  N         15.0780   12.8270    8.4390 N.3   128  ASN128     -0.1240
     84  CA        13.7490   12.4350    8.8960 C.3   128  ASN128      0.1653
     85  C         12.7480   12.1270    7.7690 C.2   128  ASN128      0.2266
     86  O         12.2030   13.0170    7.1530 O.2   128  ASN128     -0.2867
     87  CB        13.1890   13.4760    9.8600 C.3   128  ASN128      0.1155
     88  CG        11.8480   13.0790   10.4300 C.2   128  ASN128      0.2627
     89  OD1       11.3070   12.0370   10.0870 O.2   128  ASN128     -0.2716
     90  ND2       11.2980   13.9190   11.2980 N.am  128  ASN128     -0.0877
     91  N          9.9190   10.3980    8.0910 N.3   130  SER130     -0.1217
     92  CA         8.5570   10.4420    8.5360 C.3   130  SER130      0.1889
     93  C          8.1400   11.8930    8.3910 C.2   130  SER130      0.2288
     94  O          7.4320   12.4360    9.2410 O.2   130  SER130     -0.2866
     95  CB         8.4440    9.9560    9.9800 C.3   130  SER130      0.2089
     96  OG         7.1250   10.1820   10.4560 O.3   130  SER130     -0.2183
     97  N          6.3340   15.0420    6.1290 N.3   132  PRO132     -0.2116
     98  CA         5.2160   15.1810    5.2050 C.3   132  PRO132      0.1372
     99  C          5.6770   15.3790    3.7530 C.2   132  PRO132      0.2244
    100  O          6.6520   16.0850    3.4690 O.2   132  PRO132     -0.2868
    101  CB         4.4940   16.4270    5.7240 C.3   132  PRO132      0.0268
    102  CG         5.5780   17.2260    6.4010 C.3   132  PRO132      0.0207
    103  CD         6.4590   16.2010    7.0370 C.3   132  PRO132      0.0892
    104  N          0.3710   16.9650    0.3990 N.3   135  PRO135     -0.2116
    105  CA        -0.9290   16.7310    1.0750 C.3   135  PRO135      0.1372
    106  C         -1.8690   15.8570    0.2430 C.2   135  PRO135      0.2244
    107  O         -2.1420   16.1720   -0.9210 O.2   135  PRO135     -0.2868
    108  CB        -1.5200   18.1370    1.2250 C.3   135  PRO135      0.0268
    109  CG        -0.3390   19.0650    1.2000 C.3   135  PRO135      0.0207
    110  CD         0.7430   18.3990    0.3870 C.3   135  PRO135      0.0892
    111  N         15.4220    8.1750    9.6860 N.3   165  LYS165     -0.1245
    112  CA        14.4900    8.0210   10.8000 C.3   165  LYS165      0.1561
    113  C         13.1450    7.5690   10.2030 C.2   165  LYS165      0.2260
    114  O         12.5560    8.2700    9.3670 O.2   165  LYS165     -0.2867
    115  CB        14.4210    9.3350   11.6230 C.3   165  LYS165      0.0271
    116  CG        13.3000    9.4760   12.6360 C.3   165  LYS165      0.0035
    117  CD        13.5550    8.7190   13.9310 C.3   165  LYS165      0.0206
    118  CE        12.4180    8.9070   14.9560 C.3   165  LYS165      0.1093
    119  NZ        12.2000   10.3140   15.4150 N.3   165  LYS165     -0.1314
    120  N          9.8680    6.5190   14.7300 N.3   195  ASN195     -0.1225
    121  CA         9.1550    7.7590   15.0000 C.3   195  ASN195      0.1785
    122  C          7.8060    7.4610   15.6580 C.2   195  ASN195      0.2597
    123  O          7.4120    6.2890   15.7870 O.2   195  ASN195     -0.2718
    124  CB         8.9160    8.5330   13.7020 C.3   195  ASN195      0.1169
    125  CG         8.7550   10.0160   13.9330 C.2   195  ASN195      0.2627
    126  OD1        7.9720   10.4660   14.7830 O.2   195  ASN195     -0.2716
    127  ND2        9.5150   10.7910   13.1870 N.am  195  ASN195     -0.0877
    128  N          7.0870    8.5170   16.0350 N.am  196  SER196     -0.1952
    129  CA         5.7930    8.3680   16.6730 C.3   196  SER196      0.1924
    130  C          4.8110    7.5200   15.8480 C.2   196  SER196      0.2314
    131  O          4.8810    7.4670   14.6160 O.2   196  SER196     -0.2863
    132  CB         5.1830    9.7310   17.0560 C.3   196  SER196      0.2116
    133  OG         5.3780   10.6870   16.0350 O.3   196  SER196     -0.2180
    134  N         -5.2460   19.3730   13.7440 N.3   215  LYS215     -0.1245
    135  CA        -5.6490   18.1380   13.0550 C.3   215  LYS215      0.1561
    136  C         -6.7930   17.4240   13.7790 C.2   215  LYS215      0.2260
    137  O         -6.7770   16.2010   13.9580 O.2   215  LYS215     -0.2867
    138  CB        -4.4410   17.2030   12.9110 C.3   215  LYS215      0.0271
    139  CG        -3.3660   17.6400   11.9150 C.3   215  LYS215      0.0035
    140  CD        -2.3140   16.5490   11.8500 C.3   215  LYS215      0.0206
    141  CE        -2.9710   15.1960   11.5170 C.3   215  LYS215      0.1093
    142  NZ        -2.0320   14.0880   11.2520 N.3   215  LYS215     -0.1314
    143  N          0.6340   12.2130   16.6500 N.3   220  GLY220     -0.1225
    144  CA         1.5740   11.1210   16.8110 C.3   220  GLY220      0.1811
    145  C          1.6380   10.6660   18.2400 C.2   220  GLY220      0.2280
    146  O          1.5330   11.4820   19.1620 O.2   220  GLY220     -0.2866
@<TRIPOS>BOND
     1   107   106    2
     2   106   105    1
     3   110   104    1
     4   110   109    1
     5   104   105    1
     6   105   108    1
     7   109   108    1
     8    78    77    2
     9    77    76    1
    10    76    79    1
    11    76    75    1
    12    79    80    1
    13   100    99    2
    14    99    98    1
    15    80    81    1
    16    80    82    1
    17    98   101    1
    18    98    97    1
    19   101   102    1
    20    97   103    1
    21   102   103    1
    22    71    72    2
    23    71    70    1
    24    86    85    2
    25    85    84    1
    26    25    24    1
    27    70    69    1
    28    70    73    1
    29    91    92    1
    30    93    92    1
    31    93    94    2
    32    83    84    1
    33    92    95    1
    34    74    73    1
    35    84    87    1
    36    24    26    1
    37    24    23    2
    38    22    21    1
    39    22    23    1
    40    68    66    1
    41   114   113    2
    42    21    20    1
    43   111   112    1
    44    87    88    1
    45    95    96    1
    46    89    88    2
    47   113   112    1
    48    88    90   am
    49    66    65    1
    50    66    67    1
    51   112   115    1
    52    20    17    1
    53   142   141    1
    54    65    62    1
    55   141   140    1
    56    16    17    1
    57   115   116    1
    58    17    18    1
    59    60    59    2
    60   140   139    1
    61   139   138    1
    62    64    63    2
    63    12    13    2
    64    12    11    1
    65    15    14    1
    66    33    32    2
    67    14    11    1
    68    59    58    1
    69    59    61   am
    70   116   117    1
    71    62    63    1
    72    62    61    1
    73   138   135    1
    74    58    57    1
    75    11    10    1
    76   135   134    1
    77   135   136    1
    78    18    19    2
    79   127   125   am
    80    32    34   am
    81    32    31    1
    82   124   125    1
    83   124   121    1
    84   136   137    2
    85   117   118    1
    86   125   126    2
    87    57    51   am
    88    10     3   am
    89     4     3    2
    90   131   130    2
    91    27    28    1
    92   120   121    1
    93    28    31    1
    94    28    29    1
    95   118   119    1
    96   121   122    1
    97     3     2    1
    98    52    51    2
    99    51    50    1
   100    47    48    1
   101    47    44    1
   102     8     9    1
   103     8     7    1
   104   122   123    2
   105   122   128   am
   106   130   129    1
   107   133   132    1
   108   128   129    1
   109    29    30    2
   110    44    45    1
   111    44    43    1
   112     6     7    1
   113     6     5    1
   114    46    45    2
   115    45    49   am
   116     2     5    1
   117     2     1    1
   118    49    50    1
   119   143   144    1
   120    50    53    1
   121   129   132    1
   122   144   145    1
   123    38    37    2
   124    53    54    1
   125    41    40    2
   126    43    37   am
   127    37    36    1
   128   145   146    2
   129    54    55    1
   130    40    42   am
   131    40    39    1
   132    36    39    1
   133    36    35    1
   134    55    56    1
