@<TRIPOS>MOLECULE
tmp/3w85A00.pdb
 136 126 0 0 0
SMALL
GASTEIGER

@<TRIPOS>ATOM
      1  N         16.7680   19.2780   16.9810 N.3    44  LYS44      -0.1231
      2  CA        15.4480   19.2670   16.3410 C.3    44  LYS44       0.1693
      3  C         15.4870   19.1960   14.8100 C.2    44  LYS44       0.2592
      4  O         16.1880   19.9810   14.1810 O.2    44  LYS44      -0.2718
      5  CB        14.6460   20.5120   16.7620 C.3    44  LYS44       0.0285
      6  CG        13.3300   20.7670   16.0290 C.3    44  LYS44       0.0035
      7  CD        12.1570   19.9230   16.5020 C.3    44  LYS44       0.0206
      8  CE        10.9530   19.9440   15.5220 C.3    44  LYS44       0.1093
      9  NZ         9.8760   18.9350   15.9480 N.3    44  LYS44      -0.1314
     10  N         14.5850   18.3930   14.2270 N.am   45  SER45      -0.1952
     11  CA        14.4250   18.2540   12.7500 C.3    45  SER45       0.1924
     12  C         14.1420   19.6440   12.1760 C.2    45  SER45       0.2314
     13  O         13.2310   20.3110   12.6210 O.2    45  SER45      -0.2863
     14  CB        13.2680   17.3410   12.3490 C.3    45  SER45       0.2116
     15  OG        13.5800   16.0020   12.5670 O.3    45  SER45      -0.2180
     16  N         10.3220   27.9510   11.5260 N.3    51  ARG51      -0.1245
     17  CA         8.8660   27.7220   11.6170 C.3    51  ARG51       0.1563
     18  C          8.3380   27.8400   13.0190 C.2    51  ARG51       0.2260
     19  O          8.9530   27.3540   13.9510 O.2    51  ARG51      -0.2867
     20  CB         8.4740   26.3080   11.1690 C.3    51  ARG51       0.0307
     21  CG         8.6390   26.0770    9.6950 C.3    51  ARG51       0.0489
     22  CD         8.5390   24.6040    9.3520 C.3    51  ARG51       0.2205
     23  NE         7.2350   24.0660    9.7630 N.pl3  51  ARG51      -0.0865
     24  CZ         6.1520   24.1180    8.9840 C.cat  51  ARG51       0.5346
     25  NH1        6.2430   24.6980    7.7860 N.pl3  51  ARG51       0.1354
     26  NH2        4.9880   23.6370    9.3880 N.pl3  51  ARG51       0.1354
     27  N          2.5070   24.3760   14.6660 N.3    54  ASN54      -0.1240
     28  CA         1.0540   24.3920   14.8400 C.3    54  ASN54       0.1653
     29  C          0.6000   25.1820   16.0830 C.2    54  ASN54       0.2266
     30  O          1.3830   25.3830   17.0560 O.2    54  ASN54      -0.2867
     31  CB         0.5550   22.9360   14.9480 C.3    54  ASN54       0.1155
     32  CG         0.5360   22.2310   13.6310 C.2    54  ASN54       0.2627
     33  OD1        0.5890   22.8680   12.5860 O.2    54  ASN54      -0.2716
     34  ND2        0.4840   20.9280   13.6580 N.am   54  ASN54      -0.0877
     35  N          1.3060   14.1830   19.9800 N.3    68  ASN68      -0.1225
     36  CA         1.7930   15.4870   19.5220 C.3    68  ASN68       0.1785
     37  C          1.4010   15.7630   18.0660 C.2    68  ASN68       0.2598
     38  O          1.4460   14.8640   17.2270 O.2    68  ASN68      -0.2718
     39  CB         3.3330   15.5990   19.7450 C.3    68  ASN68       0.1169
     40  CG         4.1340   15.1160   18.5720 C.2    68  ASN68       0.2627
     41  OD1        4.2290   15.8150   17.5370 O.2    68  ASN68      -0.2716
     42  ND2        4.7550   13.9150   18.7030 N.am   68  ASN68      -0.0877
     43  N          1.1120   17.0180   17.7610 N.am   69  SER69      -0.1938
     44  CA         1.1150   17.4750   16.4100 C.3    69  SER69       0.2055
     45  C          1.8100   18.8250   16.3710 C.2    69  SER69       0.2643
     46  O          1.1620   19.8600   16.2220 O.2    69  SER69      -0.2714
     47  CB        -0.3070   17.5380   15.8430 C.3    69  SER69       0.2130
     48  OG        -0.1970   18.0120   14.5050 O.3    69  SER69      -0.2179
     49  N          3.1470   18.7960   16.5450 N.am   70  MET70      -0.1962
     50  CA         3.9330   20.0380   16.7230 C.3    70  MET70       0.1736
     51  C          3.9230   20.8920   15.4020 C.2    70  MET70       0.2617
     52  O          3.9070   22.1300   15.4430 O.2    70  MET70      -0.2715
     53  CB         5.3680   19.6950   17.1100 C.3    70  MET70       0.0427
     54  CG         5.5460   18.8390   18.3550 C.3    70  MET70       0.0599
     55  SD         4.8560   19.5340   19.8400 S.3    70  MET70      -0.1393
     56  CE         5.9250   20.9240   20.2240 C.3    70  MET70       0.0692
     57  N          3.9090   20.2480   14.2380 N.am   71  GLY71      -0.1940
     58  CA         4.0380   20.9980   12.9590 C.3    71  GLY71       0.2014
     59  C          5.4640   21.4710   12.6320 C.2    71  GLY71       0.2638
     60  O          5.6460   22.5010   12.0170 O.2    71  GLY71      -0.2714
     61  N          6.4680   20.7810   13.1630 N.am   72  LEU72      -0.1977
     62  CA         7.8570   21.0750   12.8620 C.3    72  LEU72       0.1596
     63  C          8.2740   22.5270   13.1900 C.2    72  LEU72       0.2287
     64  O          8.9390   23.1760   12.4000 O.2    72  LEU72      -0.2864
     65  CB         8.0700   20.7690   11.3650 C.3    72  LEU72       0.0297
     66  CG         9.3810   20.2290   10.8220 C.3    72  LEU72       0.0022
     67  CD1       10.1560   19.2840   11.7590 C.3    72  LEU72       0.0001
     68  CD2        9.0210   19.6190    9.4600 C.3    72  LEU72       0.0001
     69  N         14.5700   17.7200    8.1220 N.3   100  SER100     -0.1217
     70  CA        13.2850   17.2140    7.7080 C.3   100  SER100      0.1889
     71  C         12.6150   18.1840    6.7150 C.2   100  SER100      0.2288
     72  O         11.5320   18.7250    7.0260 O.2   100  SER100     -0.2866
     73  CB        12.4100   17.0640    8.9540 C.3   100  SER100      0.2089
     74  OG        11.1590   16.5940    8.5480 O.3   100  SER100     -0.2183
     75  N         10.6280   19.9140    3.5410 N.3   102  LEU102     -0.1245
     76  CA         9.2740   19.6510    3.0520 C.3   102  LEU102      0.1561
     77  C          9.1600   19.1240    1.6040 C.2   102  LEU102      0.2260
     78  O          8.0580   18.8680    1.1390 O.2   102  LEU102     -0.2867
     79  CB         8.3650   20.8820    3.2380 C.3   102  LEU102      0.0270
     80  CG         8.2270   21.4470    4.6820 C.3   102  LEU102      0.0019
     81  CD1        6.9970   22.3400    4.7610 C.3   102  LEU102      0.0001
     82  CD2        8.1350   20.3420    5.7260 C.3   102  LEU102      0.0001
     83  N         15.0870   12.6970    8.3550 N.3   128  ASN128     -0.1240
     84  CA        13.7900   12.2830    8.8050 C.3   128  ASN128      0.1653
     85  C         12.8660   11.9620    7.6310 C.2   128  ASN128      0.2266
     86  O         12.4240   12.8290    6.9630 O.2   128  ASN128     -0.2867
     87  CB        13.1830   13.3640    9.7100 C.3   128  ASN128      0.1155
     88  CG        11.8530   12.9870   10.3170 C.2   128  ASN128      0.2627
     89  OD1       11.3430   11.9600   10.1270 O.2   128  ASN128     -0.2716
     90  ND2       11.3210   13.8860   11.0680 N.am  128  ASN128     -0.0877
     91  N          9.9640   10.2700    8.0470 N.3   130  SER130     -0.1202
     92  CA         8.6480   10.1010    8.6160 C.3   130  SER130      0.2020
     93  C          8.1150   11.4640    8.6500 C.2   130  SER130      0.2619
     94  O          8.0340   12.0500    9.6730 O.2   130  SER130     -0.2717
     95  CB         8.7280    9.4650   10.0030 C.3   130  SER130      0.2103
     96  OG        10.0390    9.0420   10.3380 O.3   130  SER130     -0.2182
     97  N          7.8460   12.0070    7.4800 N.am  131  CYS131     -0.1956
     98  CA         7.6190   13.4080    7.2690 C.3   131  CYS131      0.1828
     99  C          6.6660   13.6840    6.0970 C.2   131  CYS131      0.2467
    100  O          6.6720   12.9620    5.1340 O.2   131  CYS131     -0.2730
    101  CB         8.9680   14.0540    6.9670 C.3   131  CYS131      0.0996
    102  SG         8.8740   15.6150    6.0940 S.3   131  CYS131     -0.0797
    103  N          5.8980   14.8700    6.1840 N.am  132  PRO132     -0.2726
    104  CA         5.0150   15.1120    5.0270 C.3   132  PRO132      0.1402
    105  C          5.6830   15.3620    3.6820 C.2   132  PRO132      0.2269
    106  O          6.6600   16.0520    3.6070 O.2   132  PRO132     -0.2865
    107  CB         4.2630   16.4080    5.3940 C.3   132  PRO132      0.0296
    108  CG         4.3400   16.5060    6.8650 C.3   132  PRO132      0.0237
    109  CD         5.7340   16.0870    7.1180 C.3   132  PRO132      0.0939
    110  N          9.8280    6.5690   14.5870 N.3   195  ASN195     -0.1225
    111  CA         9.1980    7.8140   14.8460 C.3   195  ASN195      0.1785
    112  C          7.8670    7.4960   15.5230 C.2   195  ASN195      0.2597
    113  O          7.5430    6.2990   15.8150 O.2   195  ASN195     -0.2718
    114  CB         9.0350    8.6250   13.5290 C.3   195  ASN195      0.1169
    115  CG         9.0110   10.1350   13.7600 C.2   195  ASN195      0.2627
    116  OD1        8.2490   10.6310   14.5730 O.2   195  ASN195     -0.2716
    117  ND2        9.8650   10.8800   13.0150 N.am  195  ASN195     -0.0877
    118  N          7.0880    8.5510   15.8210 N.am  196  SER196     -0.1952
    119  CA         5.8180    8.3430   16.4930 C.3   196  SER196      0.1924
    120  C          4.8000    7.4670   15.6920 C.2   196  SER196      0.2314
    121  O          4.8410    7.3620   14.4550 O.2   196  SER196     -0.2863
    122  CB         5.2400    9.7250   16.9690 C.3   196  SER196      0.2116
    123  OG         5.0340   10.5400   15.8360 O.3   196  SER196     -0.2180
    124  N         -5.4170   19.3890   13.7230 N.3   215  LYS215     -0.1245
    125  CA        -5.8490   18.1550   13.0090 C.3   215  LYS215      0.1561
    126  C         -6.9720   17.4630   13.7680 C.2   215  LYS215      0.2260
    127  O         -7.0190   16.2480   13.8180 O.2   215  LYS215     -0.2867
    128  CB        -4.6270   17.1870   12.8440 C.3   215  LYS215      0.0271
    129  CG        -3.4460   17.7410   12.0130 C.3   215  LYS215      0.0035
    130  CD        -2.3900   16.6490   11.7630 C.3   215  LYS215      0.0206
    131  CE        -3.0680   15.3050   11.3860 C.3   215  LYS215      0.1093
    132  NZ        -2.1030   14.1960   11.1230 N.3   215  LYS215     -0.1314
    133  N          0.6740   12.1860   16.6500 N.3   220  GLY220     -0.1225
    134  CA         1.5430   11.0340   16.7250 C.3   220  GLY220      0.1811
    135  C          1.7170   10.5900   18.1690 C.2   220  GLY220      0.2280
    136  O          1.8760   11.3950   19.1050 O.2   220  GLY220     -0.2866
@<TRIPOS>BOND
     1    78    77    2
     2    77    76    1
     3    76    79    1
     4    76    75    1
     5    79    80    1
     6   106   105    2
     7   105   104    1
     8    80    81    1
     9    80    82    1
    10   104   107    1
    11   104   103    1
    12   100    99    2
    13   107   108    1
    14   102   101    1
    15    99   103   am
    16    99    98    1
    17   103   109    1
    18    71    72    2
    19    71    70    1
    20   108   109    1
    21    86    85    2
    22   101    98    1
    23    98    97    1
    24    97    93   am
    25    85    84    1
    26    70    69    1
    27    70    73    1
    28    25    24    1
    29    91    92    1
    30    83    84    1
    31    74    73    1
    32    92    93    1
    33    92    95    1
    34    93    94    2
    35    84    87    1
    36    24    26    1
    37    24    23    2
    38    22    21    1
    39    22    23    1
    40    68    66    1
    41    21    20    1
    42    87    88    1
    43    95    96    1
    44    89    88    2
    45    88    90   am
    46    66    65    1
    47    66    67    1
    48   132   131    1
    49    20    17    1
    50    65    62    1
    51   131   130    1
    52    16    17    1
    53    17    18    1
    54   130   129    1
    55   129   128    1
    56    60    59    2
    57    12    13    2
    58    12    11    1
    59    14    15    1
    60    14    11    1
    61    64    63    2
    62    33    32    2
    63    59    58    1
    64    59    61   am
    65    11    10    1
    66   128   125    1
    67    62    61    1
    68    62    63    1
    69    58    57    1
    70   125   124    1
    71   125   126    1
    72   117   115   am
    73    18    19    2
    74   114   115    1
    75   114   111    1
    76    32    34   am
    77    32    31    1
    78   115   116    2
    79   126   127    2
    80     4     3    2
    81    10     3   am
    82    57    51   am
    83   121   120    2
    84    48    47    1
    85   110   111    1
    86    27    28    1
    87     3     2    1
    88    28    31    1
    89    28    29    1
    90   111   112    1
    91    51    52    2
    92    51    50    1
    93     8     9    1
    94     8     7    1
    95   112   113    2
    96   112   118   am
    97   120   119    1
    98   118   119    1
    99   123   122    1
   100    47    44    1
   101     6     7    1
   102     6     5    1
   103    29    30    2
   104    46    45    2
   105     2     5    1
   106     2     1    1
   107    45    44    1
   108    45    49   am
   109    44    43    1
   110   119   122    1
   111    49    50    1
   112   133   134    1
   113    50    53    1
   114   134   135    1
   115    53    54    1
   116    38    37    2
   117    41    40    2
   118    43    37   am
   119    37    36    1
   120   135   136    2
   121    54    55    1
   122    40    42   am
   123    40    39    1
   124    36    39    1
   125    36    35    1
   126    55    56    1
