@<TRIPOS>MOLECULE
tmp/3w86B00.pdb
 157 146 0 0 0
SMALL
GASTEIGER

@<TRIPOS>ATOM
      1  N        -14.9340   12.9520  -18.5780 N.3    20  ALA20      -0.1245
      2  CA       -14.7690   14.2190  -17.9360 C.3    20  ALA20       0.1562
      3  C        -13.4350   14.8530  -18.2960 C.2    20  ALA20       0.2260
      4  O        -12.3950   14.2110  -18.3760 O.2    20  ALA20      -0.2867
      5  CB       -14.8750   14.0910  -16.4160 C.3    20  ALA20       0.0290
      6  N        -16.7140   19.2290  -16.9980 N.3    44  LYS44      -0.1231
      7  CA       -15.3370   19.2540  -16.4610 C.3    44  LYS44       0.1693
      8  C        -15.3440   19.1510  -14.9270 C.2    44  LYS44       0.2592
      9  O        -16.0780   19.8700  -14.2910 O.2    44  LYS44      -0.2718
     10  CB       -14.6690   20.5400  -16.8610 C.3    44  LYS44       0.0285
     11  CG       -13.2970   20.8120  -16.2280 C.3    44  LYS44       0.0035
     12  CD       -12.2030   19.8030  -16.5270 C.3    44  LYS44       0.0206
     13  CE       -10.9480   19.9510  -15.6690 C.3    44  LYS44       0.1093
     14  NZ        -9.9040   19.0100  -16.2270 N.3    44  LYS44      -0.1314
     15  N        -14.4280   18.3590  -14.3390 N.am   45  SER45      -0.1952
     16  CA       -14.3410   18.2950  -12.8900 C.3    45  SER45       0.1924
     17  C        -14.1410   19.6910  -12.3630 C.2    45  SER45       0.2314
     18  O        -13.3050   20.4130  -12.8770 O.2    45  SER45      -0.2863
     19  CB       -13.2160   17.4030  -12.4260 C.3    45  SER45       0.2116
     20  OG       -13.5400   16.0530  -12.6660 O.3    45  SER45      -0.2180
     21  N        -10.3470   27.9360  -11.5180 N.3    51  ARG51      -0.1245
     22  CA        -8.8840   27.6760  -11.5900 C.3    51  ARG51       0.1563
     23  C         -8.3880   27.8710  -12.9860 C.2    51  ARG51       0.2260
     24  O         -9.0060   27.4080  -13.9740 O.2    51  ARG51      -0.2867
     25  CB        -8.5590   26.2250  -11.1760 C.3    51  ARG51       0.0307
     26  CG        -8.8140   25.9350   -9.7640 C.3    51  ARG51       0.0489
     27  CD        -8.6300   24.4720   -9.4080 C.3    51  ARG51       0.2205
     28  NE        -7.2920   23.9950   -9.7920 N.pl3  51  ARG51      -0.0865
     29  CZ        -6.2290   24.0020   -8.9930 C.cat  51  ARG51       0.5346
     30  NH1       -6.2900   24.5310   -7.7610 N.pl3  51  ARG51       0.1354
     31  NH2       -5.0820   23.5450   -9.4270 N.pl3  51  ARG51       0.1354
     32  N         -2.6540   24.4570  -14.8180 N.3    54  ASN54      -0.1240
     33  CA        -1.2120   24.4370  -14.9780 C.3    54  ASN54       0.1653
     34  C         -0.7570   25.2090  -16.2240 C.2    54  ASN54       0.2266
     35  O         -1.4710   25.4520  -17.1190 O.2    54  ASN54      -0.2867
     36  CB        -0.7070   22.9800  -15.0450 C.3    54  ASN54       0.1155
     37  CG        -0.6970   22.2960  -13.6990 C.2    54  ASN54       0.2627
     38  OD1       -0.7790   22.9510  -12.6950 O.2    54  ASN54      -0.2716
     39  ND2       -0.6170   20.9950  -13.6880 N.am   54  ASN54      -0.0877
     40  N         -1.4060   14.2300  -20.0390 N.3    68  ASN68      -0.1225
     41  CA        -1.8220   15.5510  -19.5210 C.3    68  ASN68       0.1785
     42  C         -1.4900   15.7750  -18.0620 C.2    68  ASN68       0.2598
     43  O         -1.4920   14.8660  -17.2320 O.2    68  ASN68      -0.2718
     44  CB        -3.3250   15.7800  -19.7640 C.3    68  ASN68       0.1169
     45  CG        -4.1780   15.2450  -18.6580 C.2    68  ASN68       0.2627
     46  OD1       -4.3950   15.9040  -17.6370 O.2    68  ASN68      -0.2716
     47  ND2       -4.6750   14.0160  -18.8220 N.am   68  ASN68      -0.0877
     48  N         -1.1630   17.0220  -17.7500 N.am   69  SER69      -0.1938
     49  CA        -1.2690   17.5150  -16.3900 C.3    69  SER69       0.2055
     50  C         -1.9630   18.8430  -16.4700 C.2    69  SER69       0.2643
     51  O         -1.3650   19.8950  -16.4170 O.2    69  SER69      -0.2714
     52  CB         0.1110   17.6000  -15.7300 C.3    69  SER69       0.2130
     53  OG        -0.0280   18.1520  -14.4370 O.3    69  SER69      -0.2179
     54  N         -3.2550   18.8170  -16.6440 N.am   70  MET70      -0.1962
     55  CA        -3.9870   20.0100  -16.8870 C.3    70  MET70       0.1736
     56  C         -4.0030   20.9150  -15.6490 C.2    70  MET70       0.2617
     57  O         -4.0660   22.1280  -15.7730 O.2    70  MET70      -0.2715
     58  CB        -5.4500   19.6840  -17.2350 C.3    70  MET70       0.0427
     59  CG        -5.6760   18.9040  -18.5050 C.3    70  MET70       0.0599
     60  SD        -4.9250   19.5580  -19.9790 S.3    70  MET70      -0.1393
     61  CE        -5.9370   20.9110  -20.3050 C.3    70  MET70       0.0692
     62  N         -4.0330   20.2970  -14.4560 N.am   71  GLY71      -0.1940
     63  CA        -4.0780   21.0180  -13.1890 C.3    71  GLY71       0.2014
     64  C         -5.4360   21.5250  -12.8040 C.2    71  GLY71       0.2638
     65  O         -5.5970   22.5650  -12.1130 O.2    71  GLY71      -0.2714
     66  N         -6.4600   20.8350  -13.2300 N.am   72  LEU72      -0.1977
     67  CA        -7.8380   21.1090  -12.8760 C.3    72  LEU72       0.1596
     68  C         -8.3420   22.5140  -13.2830 C.2    72  LEU72       0.2287
     69  O         -9.0100   23.2150  -12.4780 O.2    72  LEU72      -0.2864
     70  CB        -8.0410   20.7590  -11.3980 C.3    72  LEU72       0.0297
     71  CG        -9.3580   20.5200  -10.7660 C.3    72  LEU72       0.0022
     72  CD1      -10.3820   19.8330  -11.6220 C.3    72  LEU72       0.0001
     73  CD2       -9.1660   19.8210   -9.3830 C.3    72  LEU72       0.0001
     74  N        -14.4730   17.6580   -8.2150 N.3   100  SER100     -0.1217
     75  CA       -13.1610   17.1620   -7.7990 C.3   100  SER100      0.1889
     76  C        -12.5800   18.1660   -6.7910 C.2   100  SER100      0.2288
     77  O        -11.5620   18.7980   -7.0260 O.2   100  SER100     -0.2866
     78  CB       -12.2940   16.9860   -9.0320 C.3   100  SER100      0.2089
     79  OG       -11.0740   16.3910   -8.6590 O.3   100  SER100     -0.2183
     80  N        -10.6100   19.6370   -3.6270 N.3   102  LEU102     -0.1245
     81  CA        -9.2540   19.4040   -3.1810 C.3   102  LEU102      0.1561
     82  C         -9.1210   19.0750   -1.6830 C.2   102  LEU102      0.2260
     83  O         -7.9890   18.8920   -1.1780 O.2   102  LEU102     -0.2867
     84  CB        -8.3370   20.5850   -3.5990 C.3   102  LEU102      0.0270
     85  CG        -8.2170   20.7420   -5.1880 C.3   102  LEU102      0.0019
     86  CD1       -7.2480   21.8350   -5.5520 C.3   102  LEU102      0.0001
     87  CD2       -7.7890   19.4830   -5.8410 C.3   102  LEU102      0.0001
     88  N        -15.0020   12.6950   -8.5600 N.3   128  ASN128     -0.1240
     89  CA       -13.6700   12.2750   -8.9260 C.3   128  ASN128      0.1653
     90  C        -12.8450   11.9260   -7.7270 C.2   128  ASN128      0.2266
     91  O        -12.5150   12.8540   -6.9910 O.2   128  ASN128     -0.2867
     92  CB       -13.0570   13.4020   -9.7690 C.3   128  ASN128      0.1155
     93  CG       -11.7630   13.0430  -10.3640 C.2   128  ASN128      0.2627
     94  OD1      -11.2620   11.9560  -10.2820 O.2   128  ASN128     -0.2716
     95  ND2      -11.3580   14.0400  -11.2600 N.am  128  ASN128     -0.0877
     96  N         -9.7910   10.4380   -8.1710 N.3   130  SER130     -0.1202
     97  CA        -8.3990   10.3730   -8.5620 C.3   130  SER130      0.2020
     98  C         -7.8390   11.7540   -8.5460 C.2   130  SER130      0.2619
     99  O         -7.7340   12.3690   -9.5690 O.2   130  SER130     -0.2717
    100  CB        -8.2260    9.6020   -9.8890 C.3   130  SER130      0.2103
    101  OG        -6.9510    9.6840  -10.4500 O.3   130  SER130     -0.2182
    102  N         -7.5120   12.2000   -7.4230 N.am  131  CYS131     -0.1956
    103  CA        -7.4700   13.5830   -7.0640 C.3   131  CYS131      0.1828
    104  C         -6.6360   13.8110   -5.7520 C.2   131  CYS131      0.2467
    105  O         -6.8100   13.0720   -4.7950 O.2   131  CYS131     -0.2730
    106  CB        -8.9300   13.9780   -6.8040 C.3   131  CYS131      0.0996
    107  SG        -9.1220   15.7400   -6.4660 S.3   131  CYS131     -0.0797
    108  N         -5.7040   14.7800   -5.6790 N.am  132  PRO132     -0.2726
    109  CA        -4.9160   14.9830   -4.4840 C.3   132  PRO132      0.1402
    110  C         -5.7460   15.3120   -3.2700 C.2   132  PRO132      0.2269
    111  O         -6.7730   15.9020   -3.3630 O.2   132  PRO132     -0.2865
    112  CB        -4.0500   16.2000   -4.8400 C.3   132  PRO132      0.0296
    113  CG        -4.8640   16.9160   -5.8370 C.3   132  PRO132      0.0237
    114  CD        -5.4630   15.8350   -6.6740 C.3   132  PRO132      0.0939
    115  N        -15.5900    8.3400  -10.0200 N.3   165  LYS165     -0.1245
    116  CA       -14.5670    8.1430  -11.0890 C.3   165  LYS165      0.1561
    117  C        -13.3170    7.6160  -10.3630 C.2   165  LYS165      0.2260
    118  O        -12.7820    8.2480   -9.4160 O.2   165  LYS165     -0.2867
    119  CB       -14.3030    9.4430  -11.7600 C.3   165  LYS165      0.0271
    120  CG       -13.2550    9.4350  -12.8450 C.3   165  LYS165      0.0035
    121  CD       -13.6900    8.7330  -14.1230 C.3   165  LYS165      0.0206
    122  CE       -12.8010    8.9480  -15.2940 C.3   165  LYS165      0.1093
    123  NZ       -12.7750   10.3210  -15.7690 N.3   165  LYS165     -0.1314
    124  N         -9.9290    6.6090  -14.7790 N.3   195  ASN195     -0.1225
    125  CA        -9.1940    7.8340  -14.9910 C.3   195  ASN195      0.1785
    126  C         -7.8600    7.4870  -15.6550 C.2   195  ASN195      0.2597
    127  O         -7.5850    6.3850  -15.8500 O.2   195  ASN195     -0.2718
    128  CB        -8.9870    8.5730  -13.6590 C.3   195  ASN195      0.1169
    129  CG        -9.0170   10.1010  -13.8190 C.2   195  ASN195      0.2627
    130  OD1       -8.3840   10.5930  -14.6620 O.2   195  ASN195     -0.2716
    131  ND2       -9.7840   10.7870  -13.0030 N.am  195  ASN195     -0.0877
    132  N         -7.0850    8.4890  -15.9960 N.am  196  SER196     -0.1952
    133  CA        -5.8600    8.2410  -16.7000 C.3   196  SER196      0.1924
    134  C         -4.8790    7.4320  -15.8810 C.2   196  SER196      0.2314
    135  O         -4.9470    7.4060  -14.7400 O.2   196  SER196     -0.2863
    136  CB        -5.2200    9.5500  -17.1680 C.3   196  SER196      0.2116
    137  OG        -5.2050   10.4690  -16.1880 O.3   196  SER196     -0.2180
    138  N          4.3030   20.9260  -16.8500 N.3   214  PRO214     -0.2102
    139  CA         4.2060   20.6470  -15.4520 C.3   214  PRO214      0.1504
    140  C          4.8610   19.3530  -15.0230 C.2   214  PRO214      0.2575
    141  O          5.0750   18.4700  -15.8480 O.2   214  PRO214     -0.2718
    142  CB         2.6750   20.5130  -15.2380 C.3   214  PRO214      0.0282
    143  CG         2.1110   21.1620  -16.3660 C.3   214  PRO214      0.0208
    144  CD         2.9660   20.9540  -17.4880 C.3   214  PRO214      0.0893
    145  N          5.1830   19.2400  -13.7390 N.am  215  LYS215     -0.1980
    146  CA         5.5840   17.9770  -13.1520 C.3   215  LYS215      0.1596
    147  C          6.8050   17.3630  -13.8230 C.2   215  LYS215      0.2287
    148  O          6.9230   16.1360  -13.8580 O.2   215  LYS215     -0.2864
    149  CB         4.4190   16.9840  -13.2560 C.3   215  LYS215      0.0298
    150  CG         3.1490   17.4690  -12.5910 C.3   215  LYS215      0.0038
    151  CD         2.9230   16.7530  -11.2670 C.3   215  LYS215      0.0206
    152  CE         2.4590   15.3420  -11.4950 C.3   215  LYS215      0.1093
    153  NZ         3.2790   14.1380  -11.1500 N.3   215  LYS215     -0.1314
    154  N         -0.8310   12.1500  -16.7240 N.3   220  GLY220     -0.1225
    155  CA        -1.6870   10.9940  -16.8690 C.3   220  GLY220      0.1811
    156  C         -1.8580   10.5560  -18.3080 C.2   220  GLY220      0.2280
    157  O         -1.9850   11.3680  -19.1920 O.2   220  GLY220     -0.2866
@<TRIPOS>BOND
     1    61    60    1
     2    40    41    1
     3    60    59    1
     4    44    41    1
     5    44    45    1
     6    41    42    1
     7   157   156    2
     8    47    45   am
     9    45    46    2
    10     1     2    1
    11    59    58    1
    12     4     3    2
    13   156   155    1
    14     3     2    1
    15    42    48   am
    16    42    43    2
    17     2     5    1
    18    48    49    1
    19   144   138    1
    20   144   143    1
    21    58    55    1
    22   136   133    1
    23   136   137    1
    24    35    34    2
    25     6     7    1
    26    55    54    1
    27    55    56    1
    28   155   154    1
    29    10     7    1
    30    10    11    1
    31   138   139    1
    32   133   132    1
    33   133   134    1
    34    54    50   am
    35    12    11    1
    36    12    13    1
    37    50    51    2
    38    50    49    1
    39     7     8    1
    40    49    52    1
    41   143   142    1
    42    14    13    1
    43    34    33    1
    44   132   126   am
    45   134   135    2
    46   127   126    2
    47   141   140    2
    48    57    56    2
    49   123   122    1
    50    52    53    1
    51   126   125    1
    52    56    62   am
    53   139   142    1
    54   139   140    1
    55   122   121    1
    56    36    33    1
    57    36    37    1
    58   140   145   am
    59   125   124    1
    60   125   128    1
    61    33    32    1
    62     8    15   am
    63     8     9    2
    64   130   129    2
    65    62    63    1
    66    15    16    1
    67   121   120    1
    68    24    23    2
    69   148   147    2
    70   147   146    1
    71   129   128    1
    72   129   131   am
    73   145   146    1
    74    37    39   am
    75    37    38    2
    76    68    67    1
    77    68    69    2
    78   149   146    1
    79   149   150    1
    80    66    67    1
    81    66    64   am
    82    63    64    1
    83    23    22    1
    84    16    19    1
    85    16    17    1
    86    18    17    2
    87    67    70    1
    88   120   119    1
    89    64    65    2
    90    20    19    1
    91   150   151    1
    92   119   116    1
    93    72    71    1
    94    22    21    1
    95    22    25    1
    96   152   151    1
    97   152   153    1
    98    70    71    1
    99    95    93   am
   100    25    26    1
   101   116   117    1
   102   116   115    1
   103    71    73    1
   104   101   100    1
   105    93    94    2
   106    93    92    1
   107   117   118    2
   108   100    97    1
   109    28    27    1
   110    28    29    2
   111    92    89    1
   112    26    27    1
   113    99    98    2
   114    31    29    1
   115    78    79    1
   116    78    75    1
   117    29    30    1
   118    89    88    1
   119    89    90    1
   120    97    98    1
   121    97    96    1
   122    98   102   am
   123    74    75    1
   124    75    76    1
   125    90    91    2
   126   102   103    1
   127   103   106    1
   128   103   104    1
   129    77    76    2
   130   106   107    1
   131   114   113    1
   132   114   108    1
   133    87    85    1
   134   113   112    1
   135   104   108   am
   136   104   105    2
   137   108   109    1
   138    86    85    1
   139    85    84    1
   140   112   109    1
   141   109   110    1
   142    80    81    1
   143    84    81    1
   144   111   110    2
   145    81    82    1
   146    82    83    2
