@<TRIPOS>MOLECULE
tmp/3w87A03.pdb
 156 146 0 0 0
SMALL
GASTEIGER

@<TRIPOS>ATOM
      1  N         14.1150  -10.4050  -17.7750 N.3    21  ALA21      -0.1245
      2  CA        13.8990  -11.6920  -17.0960 C.3    21  ALA21       0.1562
      3  C         12.6000  -12.3210  -17.5270 C.2    21  ALA21       0.2260
      4  O         11.5720  -11.6810  -17.7360 O.2    21  ALA21      -0.2867
      5  CB        13.9340  -11.5130  -15.5720 C.3    21  ALA21       0.0290
      6  N         15.5970  -16.7050  -16.1010 N.3    45  LYS45      -0.1231
      7  CA        14.1730  -16.6680  -15.6770 C.3    45  LYS45       0.1693
      8  C         14.1260  -16.6020  -14.1660 C.2    45  LYS45       0.2592
      9  O         14.9050  -17.2960  -13.4560 O.2    45  LYS45      -0.2718
     10  CB        13.5550  -18.0290  -16.0800 C.3    45  LYS45       0.0285
     11  CG        12.1590  -18.3040  -15.5130 C.3    45  LYS45       0.0035
     12  CD        11.1270  -17.3370  -16.0230 C.3    45  LYS45       0.0206
     13  CE         9.7960  -17.4450  -15.2350 C.3    45  LYS45       0.1093
     14  NZ         8.7960  -16.3960  -15.7700 N.3    45  LYS45      -0.1314
     15  N         13.2670  -15.7970  -13.6190 N.am   46  SER46      -0.1952
     16  CA        13.1520  -15.7970  -12.1210 C.3    46  SER46       0.1924
     17  C         12.8430  -17.2350  -11.6220 C.2    46  SER46       0.2314
     18  O         11.9950  -17.9670  -12.1650 O.2    46  SER46      -0.2863
     19  CB        11.9460  -14.9700  -11.6580 C.3    46  SER46       0.2116
     20  OG        12.2300  -13.5720  -11.9430 O.3    46  SER46      -0.2180
     21  N          9.0160  -25.4500  -11.1250 N.3    52  ARG52      -0.1197
     22  CA         7.5570  -25.2800  -11.3040 C.3    52  ARG52       0.1779
     23  C          7.1560  -25.3880  -12.7320 C.2    52  ARG52       0.2305
     24  O          7.8490  -24.8910  -13.6460 O.2    52  ARG52      -0.2863
     25  CB         7.1430  -23.8460  -10.8930 C.2    52  ARG52      -0.0007
     26  CG         7.3500  -23.4480   -9.4620 C.2    52  ARG52       0.0176
     27  CD         7.0680  -21.9760   -9.0840 C.3    52  ARG52       0.2464
     28  NE         5.7910  -21.5070   -9.6310 N.pl3  52  ARG52      -0.0815
     29  CZ         4.6560  -21.7650   -9.0170 C.cat  52  ARG52       0.5349
     30  NH1        4.6850  -22.2790   -7.7700 N.pl3  52  ARG52       0.1354
     31  NH2        3.5130  -21.3600   -9.5590 N.pl3  52  ARG52       0.1354
     32  N          1.4690  -21.9290  -14.8570 N.3    55  ASN55      -0.1240
     33  CA         0.0450  -21.9750  -15.0900 C.3    55  ASN55       0.1653
     34  C         -0.3440  -22.6970  -16.3440 C.2    55  ASN55       0.2266
     35  O          0.4670  -22.8900  -17.2250 O.2    55  ASN55      -0.2867
     36  CB        -0.4490  -20.5100  -15.1780 C.3    55  ASN55       0.1155
     37  CG        -0.4920  -19.8560  -13.8790 C.2    55  ASN55       0.2627
     38  OD1       -0.5650  -20.5020  -12.8040 O.2    55  ASN55      -0.2716
     39  ND2       -0.4510  -18.4940  -13.8790 N.am   55  ASN55      -0.0877
     40  N          0.6400  -11.5910  -20.1150 N.3    69  ASN69      -0.1225
     41  CA         1.0620  -12.9300  -19.5870 C.3    69  ASN69       0.1785
     42  C          0.6610  -13.1490  -18.1620 C.2    69  ASN69       0.2598
     43  O          0.6430  -12.2770  -17.3260 O.2    69  ASN69      -0.2718
     44  CB         2.5660  -13.1680  -19.7200 C.3    69  ASN69       0.1169
     45  CG         3.3910  -12.6620  -18.5030 C.2    69  ASN69       0.2627
     46  OD1        3.5650  -13.3130  -17.4750 O.2    69  ASN69      -0.2716
     47  ND2        3.8880  -11.4180  -18.5900 N.am   69  ASN69      -0.0877
     48  N          0.3640  -14.4330  -17.8820 N.am   70  SER70      -0.1938
     49  CA         0.2550  -14.9660  -16.5450 C.3    70  SER70       0.2055
     50  C          0.9650  -16.2830  -16.5400 C.2    70  SER70       0.2643
     51  O          0.3040  -17.3440  -16.5820 O.2    70  SER70      -0.2714
     52  CB        -1.2020  -15.1250  -16.1080 C.3    70  SER70       0.2130
     53  OG        -1.1670  -15.4640  -14.7360 O.3    70  SER70      -0.2179
     54  N          2.3040  -16.2260  -16.5880 N.am   71  MET71      -0.1962
     55  CA         3.0590  -17.4560  -16.7510 C.3    71  MET71       0.1736
     56  C          2.9140  -18.2920  -15.5250 C.2    71  MET71       0.2617
     57  O          2.9420  -19.5740  -15.6810 O.2    71  MET71      -0.2715
     58  CB         4.5060  -17.1830  -17.0460 C.3    71  MET71       0.0427
     59  CG         4.8360  -16.3190  -18.2800 C.3    71  MET71       0.0599
     60  SD         4.0930  -16.9580  -19.8050 S.3    71  MET71      -0.1393
     61  CE         5.1540  -18.2340  -20.1610 C.3    71  MET71       0.0692
     62  N          2.8570  -17.7070  -14.3440 N.am   72  GLY72      -0.1940
     63  CA         2.8820  -18.5340  -13.1000 C.3    72  GLY72       0.2014
     64  C          4.2410  -18.9740  -12.6900 C.2    72  GLY72       0.2638
     65  O          4.3120  -20.0220  -12.0260 O.2    72  GLY72      -0.2714
     66  N          5.3140  -18.2590  -13.0280 N.am   73  LEU73      -0.1977
     67  CA         6.6600  -18.5980  -12.5570 C.3    73  LEU73       0.1596
     68  C          7.0670  -20.0190  -12.9560 C.2    73  LEU73       0.2287
     69  O          7.6840  -20.7160  -12.0900 O.2    73  LEU73      -0.2864
     70  CB         6.7380  -18.3240  -11.0350 C.3    73  LEU73       0.0297
     71  CG         8.0340  -18.2260  -10.3430 C.3    73  LEU73       0.0022
     72  CD1        9.1420  -17.3340  -11.0780 C.3    73  LEU73       0.0001
     73  CD2        7.7250  -17.4890   -9.0020 C.3    73  LEU73       0.0001
     74  N         12.9730  -15.2590   -7.4260 N.3   101  SER101     -0.1217
     75  CA        11.5770  -14.8460   -7.0160 C.3   101  SER101      0.1889
     76  C         10.9890  -15.9240   -6.1150 C.2   101  SER101      0.2288
     77  O         10.0070  -16.5260   -6.4900 O.2   101  SER101     -0.2866
     78  CB        10.6960  -14.5400   -8.2760 C.3   101  SER101      0.2089
     79  OG         9.5460  -13.9840   -7.8600 O.3   101  SER101     -0.2183
     80  N          8.8170  -17.6750   -3.1710 N.3   103  LEU103     -0.1245
     81  CA         7.4190  -17.3960   -2.7200 C.3   103  LEU103      0.1561
     82  C          7.3770  -16.8640   -1.2630 C.2   103  LEU103      0.2260
     83  O          6.3260  -16.4520   -0.8090 O.2   103  LEU103     -0.2867
     84  CB         6.5960  -18.6380   -2.9670 C.3   103  LEU103      0.0270
     85  CG         6.7190  -19.2140   -4.4130 C.3   103  LEU103      0.0019
     86  CD1        6.0510  -20.5710   -4.6410 C.3   103  LEU103      0.0001
     87  CD2        6.2270  -18.2110   -5.4120 C.3   103  LEU103      0.0001
     88  N         13.6390  -10.3010   -7.7060 N.3   129  ASN129     -0.1240
     89  CA        12.3190   -9.9010   -8.2580 C.3   129  ASN129      0.1653
     90  C         11.3400   -9.6320   -7.1410 C.2   129  ASN129      0.2266
     91  O         10.9390  -10.5560   -6.4880 O.2   129  ASN129     -0.2867
     92  CB        11.8610  -10.9950   -9.1910 C.3   129  ASN129      0.1155
     93  CG        10.5470  -10.7290   -9.8560 C.2   129  ASN129      0.2627
     94  OD1        9.9370   -9.7120   -9.6450 O.2   129  ASN129     -0.2716
     95  ND2       10.1110  -11.6510  -10.6810 N.am  129  ASN129     -0.0877
     96  N          8.3600   -8.6390   -7.2780 N.3   131  SER131     -0.1202
     97  CA         6.9330   -9.1540   -7.5970 C.3   131  SER131      0.2020
     98  C          6.4770  -10.6330   -6.8930 C.2   131  SER131      0.2619
     99  O          7.3740  -11.4080   -6.4300 O.2   131  SER131     -0.2717
    100  CB         6.6550   -8.8340   -9.1500 C.3   131  SER131      0.2103
    101  OG         6.6330   -7.3630   -9.4940 O.3   131  SER131     -0.2182
    102  N          5.1850  -10.9860   -6.7600 N.am  132  CYS132     -0.1956
    103  CA         4.7110  -12.1870   -5.9410 C.3   132  CYS132      0.1828
    104  C          3.3400  -12.8040   -6.4140 C.2   132  CYS132      0.2467
    105  O          2.5620  -12.0960   -7.0820 O.2   132  CYS132     -0.2730
    106  CB         4.5480  -11.7810   -4.4540 C.3   132  CYS132      0.0996
    107  SG         5.0760  -12.9630   -3.1490 S.3   132  CYS132     -0.0797
    108  N          3.0200  -14.0950   -6.0560 N.am  133  PRO133     -0.2715
    109  CA         1.6040  -14.5280   -6.3600 C.3   133  PRO133      0.1536
    110  C          0.5570  -13.6300   -5.6340 C.2   133  PRO133      0.2598
    111  O          0.8920  -12.9860   -4.5620 O.2   133  PRO133     -0.2715
    112  CB         1.4670  -15.9930   -5.7720 C.3   133  PRO133      0.0310
    113  CG         2.6810  -16.2310   -4.9840 C.3   133  PRO133      0.0237
    114  CD         3.7900  -15.1710   -5.3790 C.3   133  PRO133      0.0939
    115  N         -0.6780  -13.6000   -6.1560 N.am  134  ASN134     -0.1973
    116  CA        -1.8020  -13.0470   -5.3500 C.3   134  ASN134      0.1688
    117  C         -2.0250  -13.8200   -4.0500 C.2   134  ASN134      0.2292
    118  O         -2.2060  -15.0350   -4.0850 O.2   134  ASN134     -0.2864
    119  CB        -3.1440  -12.9940   -6.1030 C.3   134  ASN134      0.1181
    120  CG        -4.1660  -12.1280   -5.3770 C.2   134  ASN134      0.2629
    121  OD1       -3.8430  -10.9710   -5.0410 O.2   134  ASN134     -0.2716
    122  ND2       -5.3580  -12.6860   -5.0380 N.am  134  ASN134     -0.0877
    123  N          8.9250   -4.1230  -14.1980 N.3   196  ASN196     -0.1225
    124  CA         8.1600   -5.3570  -14.5250 C.3   196  ASN196      0.1785
    125  C          6.8750   -4.9810  -15.2800 C.2   196  ASN196      0.2597
    126  O          6.5690   -3.8150  -15.5500 O.2   196  ASN196     -0.2718
    127  CB         7.8760   -6.0970  -13.1660 C.3   196  ASN196      0.1169
    128  CG         7.8970   -7.5990  -13.3420 C.2   196  ASN196      0.2627
    129  OD1        7.2720   -8.1350  -14.2510 O.2   196  ASN196     -0.2716
    130  ND2        8.5540   -8.2770  -12.4550 N.am  196  ASN196     -0.0877
    131  N          6.1410   -6.0200  -15.6400 N.am  197  SER197     -0.1952
    132  CA         4.9070   -5.7810  -16.4120 C.3   197  SER197      0.1924
    133  C          3.9440   -4.9410  -15.6300 C.2   197  SER197      0.2314
    134  O          3.9000   -4.8720  -14.4040 O.2   197  SER197     -0.2863
    135  CB         4.3230   -7.1370  -16.8640 C.3   197  SER197      0.2116
    136  OG         4.1980   -8.0160  -15.8350 O.3   197  SER197     -0.2180
    137  N         -5.2260  -18.4450  -17.3460 N.3   215  PRO215     -0.2102
    138  CA        -5.2120  -18.1280  -15.9290 C.3   215  PRO215      0.1504
    139  C         -5.9100  -16.8760  -15.4860 C.2   215  PRO215      0.2575
    140  O         -6.0130  -15.9550  -16.3230 O.2   215  PRO215     -0.2718
    141  CB        -3.6860  -18.0220  -15.5370 C.3   215  PRO215      0.0282
    142  CG        -3.0090  -18.5910  -16.7070 C.3   215  PRO215      0.0208
    143  CD        -3.8790  -18.4070  -17.9380 C.3   215  PRO215      0.0893
    144  N         -6.3260  -16.8070  -14.2290 N.am  216  LYS216     -0.1980
    145  CA        -6.7820  -15.5390  -13.6000 C.3   216  LYS216      0.1596
    146  C         -7.9020  -14.9050  -14.4060 C.2   216  LYS216      0.2287
    147  O         -7.9660  -13.6660  -14.4880 O.2   216  LYS216     -0.2864
    148  CB        -5.6130  -14.5390  -13.4360 C.3   216  LYS216      0.0298
    149  CG        -4.6230  -15.0730  -12.3530 C.3   216  LYS216      0.0038
    150  CD        -3.3850  -14.1520  -12.3020 C.3   216  LYS216      0.0206
    151  CE        -3.7540  -12.6200  -12.1220 C.3   216  LYS216      0.1093
    152  NZ        -2.4840  -11.8520  -11.8290 N.3   216  LYS216     -0.1314
    153  N         -0.0770   -9.5640  -16.7540 N.3   221  GLY221     -0.1225
    154  CA         0.7960   -8.3860  -16.7900 C.3   221  GLY221      0.1811
    155  C          1.0180   -8.0060  -18.2280 C.2   221  GLY221      0.2280
    156  O          1.1950   -8.8260  -19.1770 O.2   221  GLY221     -0.2866
@<TRIPOS>BOND
     1    61    60    1
     2    40    41    1
     3    60    59    1
     4    44    41    1
     5    44    45    1
     6    41    42    1
     7   156   155    2
     8    47    45   am
     9    45    46    2
    10    59    58    1
    11   155   154    1
    12    42    48   am
    13    42    43    2
    14   143   137    1
    15   143   142    1
    16    48    49    1
    17     1     2    1
    18     4     3    2
    19     3     2    1
    20   137   138    1
    21    35    34    2
    22     2     5    1
    23    58    55    1
    24   135   132    1
    25   135   136    1
    26   154   153    1
    27    55    54    1
    28    55    56    1
    29   142   141    1
    30    54    50   am
    31    51    50    2
    32    49    50    1
    33    49    52    1
    34   132   131    1
    35   132   133    1
    36    34    33    1
    37   140   139    2
    38    52    53    1
    39     6     7    1
    40    10     7    1
    41    10    11    1
    42    12    11    1
    43    12    13    1
    44   138   141    1
    45   138   139    1
    46    14    13    1
    47    57    56    2
    48     7     8    1
    49   131   125   am
    50   133   134    2
    51   126   125    2
    52    56    62   am
    53   139   144   am
    54   125   124    1
    55    36    33    1
    56    36    37    1
    57    33    32    1
    58   124   123    1
    59   124   127    1
    60   147   146    2
    61   146   145    1
    62    62    63    1
    63   129   128    2
    64   144   145    1
    65     8    15   am
    66     8     9    2
    67    39    37   am
    68    37    38    2
    69    24    23    2
    70    15    16    1
    71   145   148    1
    72   148   149    1
    73   128   127    1
    74   128   130   am
    75    63    64    1
    76    66    64   am
    77    66    67    1
    78    68    67    1
    79    68    69    2
    80    23    22    1
    81    64    65    2
    82    67    70    1
    83   149   150    1
    84   150   151    1
    85    18    17    2
    86   151   152    1
    87    16    19    1
    88    16    17    1
    89    20    19    1
    90    22    21    1
    91    22    25    1
    92    72    71    1
    93    70    71    1
    94    25    26    2
    95    95    93   am
    96    71    73    1
    97    93    94    2
    98    93    92    1
    99    28    27    1
   100    28    29    2
   101    31    29    1
   102   101   100    1
   103    26    27    1
   104    92    89    1
   105   100    97    1
   106    29    30    1
   107    78    79    1
   108    78    75    1
   109    89    88    1
   110    89    90    1
   111    97    96    1
   112    97    98    1
   113    74    75    1
   114    90    91    2
   115   105   104    2
   116    75    76    1
   117    98   102   am
   118    98    99    2
   119   102   103    1
   120    77    76    2
   121   104   108   am
   122   104   103    1
   123   109   108    1
   124   109   112    1
   125   109   110    1
   126   115   110   am
   127   115   116    1
   128   119   120    1
   129   119   116    1
   130   108   114    1
   131   103   106    1
   132   112   113    1
   133   110   111    2
   134    87    85    1
   135   114   113    1
   136   120   121    2
   137   120   122   am
   138   116   117    1
   139    86    85    1
   140   106   107    1
   141    85    84    1
   142   118   117    2
   143    80    81    1
   144    84    81    1
   145    81    82    1
   146    82    83    2
