@<TRIPOS>MOLECULE
tmp/3w88B04.pdb
 141 130 0 0 0
SMALL
GASTEIGER

@<TRIPOS>ATOM
      1  N        -14.8900   12.9490  -18.5420 N.3    21  ALA21      -0.1245
      2  CA       -14.7960   14.2150  -17.8990 C.3    21  ALA21       0.1562
      3  C        -13.4720   14.8280  -18.2740 C.2    21  ALA21       0.2260
      4  O        -12.3950   14.1890  -18.3470 O.2    21  ALA21      -0.2867
      5  CB       -14.9270   14.0150  -16.4330 C.3    21  ALA21       0.0290
      6  N        -16.6290   19.1770  -16.9520 N.3    45  LYS45      -0.1231
      7  CA       -15.2870   19.2240  -16.4170 C.3    45  LYS45       0.1693
      8  C        -15.2930   19.1260  -14.8890 C.2    45  LYS45       0.2592
      9  O        -16.0700   19.8080  -14.2630 O.2    45  LYS45      -0.2718
     10  CB       -14.6030   20.5390  -16.8700 C.3    45  LYS45       0.0285
     11  CG       -13.2810   20.7870  -16.1800 C.3    45  LYS45       0.0035
     12  CD       -12.1610   19.8350  -16.5800 C.3    45  LYS45       0.0206
     13  CE       -10.8930   19.8700  -15.6540 C.3    45  LYS45       0.1093
     14  NZ        -9.8680   18.9360  -16.2080 N.3    45  LYS45      -0.1314
     15  N        -14.4360   18.3090  -14.3240 N.am   46  SER46      -0.1952
     16  CA       -14.3220   18.2850  -12.8380 C.3    46  SER46       0.1924
     17  C        -14.0700   19.6930  -12.3160 C.2    46  SER46       0.2314
     18  O        -13.2540   20.4080  -12.8000 O.2    46  SER46      -0.2863
     19  CB       -13.2210   17.4140  -12.4060 C.3    46  SER46       0.2116
     20  OG       -13.4570   16.0380  -12.6170 O.3    46  SER46      -0.2180
     21  N        -10.3210   27.8930  -11.4740 N.3    52  ARG52      -0.1245
     22  CA        -8.8680   27.6440  -11.5510 C.3    52  ARG52       0.1563
     23  C         -8.3470   27.8250  -12.9740 C.2    52  ARG52       0.2260
     24  O         -8.9890   27.3620  -13.9380 O.2    52  ARG52      -0.2867
     25  CB        -8.5330   26.1820  -11.1920 C.3    52  ARG52       0.0307
     26  CG        -8.8150   25.8600   -9.7370 C.3    52  ARG52       0.0489
     27  CD        -8.6040   24.4030   -9.4110 C.3    52  ARG52       0.2205
     28  NE        -7.2390   23.9670   -9.8010 N.pl3  52  ARG52      -0.0865
     29  CZ        -6.1790   23.9460   -8.9990 C.cat  52  ARG52       0.5346
     30  NH1       -6.2400   24.4860   -7.7890 N.pl3  52  ARG52       0.1354
     31  NH2       -5.0490   23.4800   -9.4250 N.pl3  52  ARG52       0.1354
     32  N         -2.5790   24.4720  -14.8510 N.3    55  ASN55      -0.1240
     33  CA        -1.1340   24.4760  -14.9240 C.3    55  ASN55       0.1653
     34  C         -0.6750   25.1950  -16.1660 C.2    55  ASN55       0.2266
     35  O         -1.4080   25.4550  -17.1130 O.2    55  ASN55      -0.2867
     36  CB        -0.6350   23.0190  -15.0130 C.3    55  ASN55       0.1155
     37  CG        -0.5610   22.3350  -13.7710 C.2    55  ASN55       0.2627
     38  OD1       -0.5840   23.0160  -12.6720 O.2    55  ASN55      -0.2716
     39  ND2       -0.6090   21.0270  -13.7190 N.am   55  ASN55      -0.0877
     40  N         -1.3490   14.1800  -20.0330 N.3    69  ASN69      -0.1225
     41  CA        -1.7930   15.4810  -19.5370 C.3    69  ASN69       0.1785
     42  C         -1.4250   15.7350  -18.0980 C.2    69  ASN69       0.2598
     43  O         -1.4430   14.8510  -17.2800 O.2    69  ASN69      -0.2718
     44  CB        -3.3300   15.7180  -19.7350 C.3    69  ASN69       0.1169
     45  CG        -4.1460   15.1590  -18.6530 C.2    69  ASN69       0.2627
     46  OD1       -4.3590   15.8600  -17.6230 O.2    69  ASN69      -0.2716
     47  ND2       -4.6560   13.9510  -18.7730 N.am   69  ASN69      -0.0877
     48  N         -1.1750   16.9890  -17.8320 N.am   70  SER70      -0.1938
     49  CA        -1.2100   17.4800  -16.4660 C.3    70  SER70       0.2055
     50  C         -1.9110   18.8170  -16.4370 C.2    70  SER70       0.2643
     51  O         -1.3150   19.7970  -16.2370 O.2    70  SER70      -0.2714
     52  CB         0.2070   17.5630  -15.8770 C.3    70  SER70       0.2130
     53  OG         0.1380   17.9380  -14.5290 O.3    70  SER70      -0.2179
     54  N         -3.2170   18.7670  -16.6400 N.am   71  MET71      -0.1962
     55  CA        -3.9400   19.9920  -16.8350 C.3    71  MET71       0.1736
     56  C         -3.9690   20.8570  -15.5830 C.2    71  MET71       0.2617
     57  O         -3.9590   22.0820  -15.7120 O.2    71  MET71      -0.2715
     58  CB        -5.3680   19.7110  -17.2400 C.3    71  MET71       0.0427
     59  CG        -5.6250   18.9210  -18.5110 C.3    71  MET71       0.0599
     60  SD        -4.8900   19.5080  -19.9380 S.3    71  MET71      -0.1393
     61  CE        -5.9090   20.7960  -20.2760 C.3    71  MET71       0.0692
     62  N         -4.0130   20.2660  -14.4080 N.am   72  GLY72      -0.1940
     63  CA        -4.0760   21.0320  -13.1700 C.3    72  GLY72       0.2014
     64  C         -5.4460   21.4870  -12.8080 C.2    72  GLY72       0.2638
     65  O         -5.5900   22.5300  -12.1150 O.2    72  GLY72      -0.2714
     66  N         -6.4380   20.7730  -13.1940 N.am   73  LEU73      -0.1977
     67  CA        -7.8060   21.0440  -12.8430 C.3    73  LEU73       0.1596
     68  C         -8.2650   22.4510  -13.2530 C.2    73  LEU73       0.2287
     69  O         -8.9680   23.1710  -12.4710 O.2    73  LEU73      -0.2864
     70  CB        -7.9960   20.7180  -11.3580 C.3    73  LEU73       0.0297
     71  CG        -9.3000   20.5470  -10.7630 C.3    73  LEU73       0.0022
     72  CD1      -10.3280   19.8190  -11.5770 C.3    73  LEU73       0.0001
     73  CD2       -9.1120   19.8480   -9.3860 C.3    73  LEU73       0.0001
     74  N        -14.4550   17.6730   -8.1670 N.3   101  SER101     -0.1217
     75  CA       -13.1410   17.2300   -7.7040 C.3   101  SER101      0.1889
     76  C        -12.6180   18.2750   -6.7660 C.2   101  SER101      0.2288
     77  O        -11.5830   18.8930   -6.9760 O.2   101  SER101     -0.2866
     78  CB       -12.2360   16.9960   -8.9030 C.3   101  SER101      0.2089
     79  OG       -10.9880   16.5710   -8.4780 O.3   101  SER101     -0.2183
     80  N        -10.7070   19.8060   -3.5180 N.3   103  LEU103     -0.1245
     81  CA        -9.3450   19.6150   -3.0190 C.3   103  LEU103      0.1561
     82  C         -9.2240   19.1770   -1.5320 C.2   103  LEU103      0.2260
     83  O         -8.1520   18.8860   -1.0550 O.2   103  LEU103     -0.2867
     84  CB        -8.4930   20.8670   -3.3110 C.3   103  LEU103      0.0270
     85  CG        -8.3650   21.3250   -4.7920 C.3   103  LEU103      0.0019
     86  CD1       -7.2340   22.3120   -4.9240 C.3   103  LEU103      0.0001
     87  CD2       -8.0780   20.1240   -5.5990 C.3   103  LEU103      0.0001
     88  N        -15.0540   12.6950   -8.5170 N.3   129  ASN129     -0.1240
     89  CA       -13.7520   12.3000   -8.9190 C.3   129  ASN129      0.1653
     90  C        -12.8800   11.9480   -7.7360 C.2   129  ASN129      0.2266
     91  O        -12.4910   12.8930   -7.0460 O.2   129  ASN129     -0.2867
     92  CB       -13.1320   13.4530   -9.7530 C.3   129  ASN129      0.1155
     93  CG       -11.8590   13.1280  -10.3590 C.2   129  ASN129      0.2627
     94  OD1      -11.2680   12.1200  -10.1650 O.2   129  ASN129     -0.2716
     95  ND2      -11.4400   14.0920  -11.2450 N.am  129  ASN129     -0.0877
     96  N         -9.7800   10.6960   -7.9490 N.3   131  SER131     -0.1202
     97  CA        -8.3730   10.9930   -8.1730 C.3   131  SER131      0.2020
     98  C         -8.1210   12.4280   -7.6760 C.2   131  SER131      0.2619
     99  O         -7.1650   13.0380   -7.9650 O.2   131  SER131     -0.2717
    100  CB        -8.0030   10.7800   -9.6030 C.3   131  SER131      0.2103
    101  OG        -8.0620    9.4430   -9.9030 O.3   131  SER131     -0.2182
    102  N         -8.8530   13.1780   -6.9100 N.am  132  CYS132     -0.1956
    103  CA        -8.3650   14.3850   -6.2520 C.3   132  CYS132      0.1828
    104  C         -6.9570   14.1280   -5.4020 C.2   132  CYS132      0.2467
    105  O         -6.8610   13.0740   -4.8760 O.2   132  CYS132     -0.2730
    106  CB        -9.6250   14.7890   -5.3840 C.3   132  CYS132      0.0996
    107  SG       -10.8400   13.7200   -4.4440 S.3   132  CYS132     -0.0797
    108  N         -5.8410   14.9720   -5.4090 N.am  133  PRO133     -0.2726
    109  CA        -5.0110   14.9470   -4.2280 C.3   133  PRO133      0.1402
    110  C         -5.8100   15.3030   -2.9990 C.2   133  PRO133      0.2269
    111  O         -6.7730   15.9960   -3.0580 O.2   133  PRO133     -0.2865
    112  CB        -4.0010   16.0920   -4.4910 C.3   133  PRO133      0.0296
    113  CG        -4.7560   17.0000   -5.3850 C.3   133  PRO133      0.0237
    114  CD        -5.3790   16.0150   -6.3310 C.3   133  PRO133      0.0939
    115  N        -15.6680    8.3290   -9.9980 N.3   166  LYS166     -0.1241
    116  CA       -14.6380    8.1090  -11.0180 C.3   166  LYS166      0.1604
    117  C        -13.3880    7.6090  -10.3540 C.2   166  LYS166      0.2264
    118  O        -12.8610    8.2620   -9.4090 O.2   166  LYS166     -0.2867
    119  CB       -14.3200    9.4260  -11.7310 C.3   166  LYS166      0.0527
    120  CG       -13.2830    9.3960  -12.8450 C.2   166  LYS166     -0.0273
    121  CD       -13.6680    8.6730  -14.0670 C.2   166  LYS166     -0.0103
    122  CE       -12.7820    8.8950  -15.2500 C.3   166  LYS166      0.1350
    123  NZ       -12.7880   10.2980  -15.7700 N.3   166  LYS166     -0.1262
    124  N         -9.9470    6.6180  -14.7760 N.3   196  ASN196     -0.1225
    125  CA        -9.1470    7.8050  -14.9510 C.3   196  ASN196      0.1785
    126  C         -7.8480    7.4190  -15.6440 C.2   196  ASN196      0.2597
    127  O         -7.5950    6.3240  -15.8750 O.2   196  ASN196     -0.2718
    128  CB        -8.9140    8.5590  -13.6090 C.3   196  ASN196      0.1169
    129  CG        -8.9800   10.1130  -13.8080 C.2   196  ASN196      0.2627
    130  OD1       -8.3510   10.6610  -14.6170 O.2   196  ASN196     -0.2716
    131  ND2       -9.7780   10.7440  -12.9980 N.am  196  ASN196     -0.0877
    132  N         -7.1000    8.4560  -15.9430 N.am  197  SER197     -0.1952
    133  CA        -5.8420    8.2870  -16.6450 C.3   197  SER197      0.1924
    134  C         -4.8550    7.4240  -15.8480 C.2   197  SER197      0.2314
    135  O         -4.9490    7.3140  -14.6960 O.2   197  SER197     -0.2863
    136  CB        -5.2660    9.7080  -17.0140 C.3   197  SER197      0.2116
    137  OG        -5.1210   10.4620  -15.9380 O.3   197  SER197     -0.2180
    138  N         -0.7970   12.1400  -16.6910 N.3   221  GLY221     -0.1225
    139  CA        -1.6780   10.9660  -16.7970 C.3   221  GLY221      0.1811
    140  C         -1.8410   10.5730  -18.2690 C.2   221  GLY221      0.2280
    141  O         -1.9590   11.3950  -19.1740 O.2   221  GLY221     -0.2866
@<TRIPOS>BOND
     1    61    60    1
     2    40    41    1
     3    60    59    1
     4    44    41    1
     5    44    45    1
     6    41    42    1
     7   141   140    2
     8    47    45   am
     9    45    46    2
    10     1     2    1
    11    59    58    1
    12     4     3    2
    13     3     2    1
    14   140   139    1
    15    42    48   am
    16    42    43    2
    17     2     5    1
    18    48    49    1
    19    58    55    1
    20    35    34    2
    21   136   133    1
    22   136   137    1
    23     6     7    1
    24    10     7    1
    25    10    11    1
    26    55    54    1
    27    55    56    1
    28   139   138    1
    29   133   132    1
    30   133   134    1
    31    54    50   am
    32    12    11    1
    33    12    13    1
    34    49    50    1
    35    49    52    1
    36    50    51    2
    37     7     8    1
    38    14    13    1
    39    34    33    1
    40   132   126   am
    41    52    53    1
    42   127   126    2
    43   134   135    2
    44   123   122    1
    45    57    56    2
    46   126   125    1
    47    56    62   am
    48   122   121    1
    49    36    33    1
    50    36    37    1
    51   125   124    1
    52   125   128    1
    53    33    32    1
    54     8    15   am
    55     8     9    2
    56   130   129    2
    57    62    63    1
    58    15    16    1
    59   121   120    2
    60    24    23    2
    61   129   128    1
    62   129   131   am
    63    37    39   am
    64    37    38    2
    65    68    67    1
    66    68    69    2
    67    66    67    1
    68    66    64   am
    69    63    64    1
    70    23    22    1
    71   120   119    1
    72    67    70    1
    73    16    19    1
    74    16    17    1
    75    64    65    2
    76    18    17    2
    77    20    19    1
    78   119   116    1
    79    72    71    1
    80    22    21    1
    81    22    25    1
    82    70    71    1
    83    95    93   am
    84    25    26    1
    85   116   117    1
    86   116   115    1
    87    71    73    1
    88    93    94    2
    89    93    92    1
    90   117   118    2
    91   101   100    1
    92    28    27    1
    93    28    29    2
    94    92    89    1
    95    26    27    1
    96   100    97    1
    97    31    29    1
    98    29    30    1
    99    89    88    1
   100    89    90    1
   101    78    79    1
   102    78    75    1
   103    97    96    1
   104    97    98    1
   105    74    75    1
   106    99    98    2
   107    90    91    2
   108    75    76    1
   109    98   102   am
   110    77    76    2
   111   102   103    1
   112   114   108    1
   113   114   113    1
   114   103   104    1
   115   103   106    1
   116    87    85    1
   117   108   104   am
   118   108   109    1
   119   104   105    2
   120   113   112    1
   121   106   107    1
   122    86    85    1
   123    85    84    1
   124   112   109    1
   125   109   110    1
   126    80    81    1
   127    84    81    1
   128   111   110    2
   129    81    82    1
   130    82    83    2
