@<TRIPOS>MOLECULE
tmp/3w8jB00.pdb
 98 99 0 0 0
SMALL
GASTEIGER

@<TRIPOS>ATOM
      1  N         31.5980   49.6010   55.3050 N.3    36  TRP36      -0.1227
      2  CA        31.5880   50.3670   56.5430 C.3    36  TRP36       0.1737
      3  C         32.2200   51.7460   56.3990 C.2    36  TRP36       0.2596
      4  O         32.2000   52.5320   57.3370 O.2    36  TRP36      -0.2718
      5  CB        32.2940   49.5830   57.6510 C.3    36  TRP36       0.0564
      6  CG        33.5620   48.9160   57.2020 C.ar   36  TRP36       0.0003
      7  CD1       33.7490   47.5820   56.9740 C.ar   36  TRP36       0.0946
      8  CD2       34.8120   49.5550   56.8950 C.ar   36  TRP36       0.0152
      9  NE1       35.0430   47.3480   56.5570 N.ar   36  TRP36      -0.2442
     10  CE2       35.7160   48.5430   56.5160 C.ar   36  TRP36       0.0810
     11  CE3       35.2580   50.8860   56.9190 C.ar   36  TRP36       0.0012
     12  CZ2       37.0310   48.8150   56.1680 C.ar   36  TRP36       0.0191
     13  CZ3       36.5550   51.1510   56.5720 C.ar   36  TRP36       0.0001
     14  CH2       37.4300   50.1200   56.1930 C.ar   36  TRP36       0.0015
     15  N         32.7900   52.0380   55.2300 N.am   37  CYS37      -0.1956
     16  CA        33.4930   53.3000   55.0390 C.3    37  CYS37       0.1843
     17  C         32.5030   54.4140   54.7320 C.2    37  CYS37       0.2626
     18  O         31.7630   54.3410   53.7450 O.2    37  CYS37      -0.2714
     19  CB        34.5320   53.1920   53.9130 C.3    37  CYS37       0.0997
     20  SG        35.3370   54.7650   53.5250 S.3    37  CYS37      -0.0797
     21  N         32.5000   55.4380   55.5840 N.am   38  GLY38      -0.1940
     22  CA        31.6280   56.5880   55.4260 C.3    38  GLY38       0.2014
     23  C         31.7110   57.2100   54.0430 C.2    38  GLY38       0.2638
     24  O         30.6780   57.4920   53.4270 O.2    38  GLY38      -0.2714
     25  N         32.9350   57.4060   53.5460 N.am   39  HIS39      -0.1973
     26  CA        33.1460   58.0180   52.2270 C.3    39  HIS39       0.1656
     27  C         32.5960   57.1410   51.1030 C.2    39  HIS39       0.2291
     28  O         32.0460   57.6500   50.1300 O.2    39  HIS39      -0.2864
     29  CB        34.6310   58.3040   51.9780 C.3    39  HIS39       0.0771
     30  CG        35.2750   59.1190   53.0530 C.ar   39  HIS39       0.0820
     31  ND1       34.7920   60.3490   53.4440 N.ar   39  HIS39      -0.2267
     32  CD2       36.3580   58.8770   53.8280 C.ar   39  HIS39       0.1154
     33  CE1       35.5490   60.8290   54.4150 C.ar   39  HIS39       0.1986
     34  NE2       36.5080   59.9560   54.6650 N.ar   39  HIS39      -0.2212
     35  N         37.4940   45.1730   51.1110 N.3    66  ASP66      -0.1239
     36  CA        37.8010   44.8210   52.4790 C.3    66  ASP66       0.1674
     37  C         37.5600   43.3250   52.6560 C.2    66  ASP66       0.2266
     38  O         38.4180   42.6130   53.1720 O.2    66  ASP66      -0.2867
     39  CB        36.9790   45.6550   53.4680 C.3    66  ASP66       0.1410
     40  CG        37.1440   45.1900   54.9170 C.2    66  ASP66       0.3668
     41  OD1       38.2580   45.3210   55.4760 O.co2  66  ASP66      -0.2456
     42  OD2       36.1450   44.7090   55.4950 O.co2  66  ASP66      -0.2456
     43  N         45.0090   49.0310   46.0010 N.3    77  VAL77      -0.1231
     44  CA        43.9930   49.8640   46.6250 C.3    77  VAL77       0.1692
     45  C         44.3720   50.1630   48.0720 C.2    77  VAL77       0.2592
     46  O         44.4490   49.2670   48.9060 O.2    77  VAL77      -0.2718
     47  CB        42.6040   49.1920   46.5640 C.3    77  VAL77       0.0266
     48  CG1       41.5990   49.9480   47.4140 C.3    77  VAL77       0.0020
     49  CG2       42.1160   49.0960   45.1060 C.3    77  VAL77       0.0020
     50  N         44.6160   51.4300   48.3680 N.am   78  GLN78      -0.1966
     51  CA        45.0830   51.8060   49.6910 C.3    78  GLN78       0.1733
     52  C         44.0320   52.5490   50.4870 C.2    78  GLN78       0.2617
     53  O         44.2050   52.7870   51.6750 O.2    78  GLN78      -0.2715
     54  CB        46.3470   52.6440   49.5870 C.3    78  GLN78       0.0408
     55  CG        47.5290   51.8630   49.0860 C.3    78  GLN78       0.0908
     56  CD        48.8170   52.6100   49.2850 C.2    78  GLN78       0.2608
     57  OE1       49.0290   53.6740   48.6970 O.2    78  GLN78      -0.2717
     58  NE2       49.6900   52.0670   50.1330 N.am   78  GLN78      -0.0878
     59  N         42.9410   52.9200   49.8280 N.am   79  GLY79      -0.1940
     60  CA        41.8410   53.5700   50.5130 C.3    79  GLY79       0.2014
     61  C         40.5220   53.3470   49.8090 C.2    79  GLY79       0.2639
     62  O         40.4840   52.9870   48.6300 O.2    79  GLY79      -0.2714
     63  N         39.4330   53.5570   50.5320 N.am   80  PHE80      -0.1960
     64  CA        38.1070   53.3800   49.9650 C.3    80  PHE80       0.1756
     65  C         37.3650   54.7180   49.9520 C.2    80  PHE80       0.2461
     66  O         37.4840   55.4950   50.8940 O.2    80  PHE80      -0.2730
     67  CB        37.3240   52.3660   50.7980 C.3    80  PHE80       0.0574
     68  CG        38.1200   51.1420   51.1710 C.ar   80  PHE80      -0.0200
     69  CD1       38.6570   50.3280   50.1980 C.ar   80  PHE80      -0.0042
     70  CD2       38.3050   50.7950   52.5010 C.ar   80  PHE80      -0.0042
     71  CE1       39.3790   49.2080   50.5360 C.ar   80  PHE80      -0.0003
     72  CE2       39.0250   49.6660   52.8480 C.ar   80  PHE80      -0.0003
     73  CZ        39.5590   48.8690   51.8640 C.ar   80  PHE80      -0.0000
     74  N         36.5990   54.9910   48.8820 N.am   81  PRO81      -0.2716
     75  CA        36.5250   54.1690   47.6780 C.3    81  PRO81       0.1536
     76  C         37.6570   54.5570   46.7640 C.2    81  PRO81       0.2599
     77  O         38.1100   55.7170   46.7900 O.2    81  PRO81      -0.2715
     78  CB        35.2110   54.6120   47.0490 C.3    81  PRO81       0.0310
     79  CG        35.1320   56.0710   47.4210 C.3    81  PRO81       0.0237
     80  CD        35.6470   56.1120   48.8290 C.3    81  PRO81       0.0939
     81  N         38.1230   53.5880   45.9860 N.am   82  THR82      -0.1951
     82  CA        39.0250   53.8490   44.8780 C.3    82  THR82       0.1897
     83  C         38.3650   53.4190   43.5780 C.2    82  THR82       0.2313
     84  O         37.8590   52.3080   43.4820 O.2    82  THR82      -0.2863
     85  CB        40.3230   53.0740   45.0450 C.3    82  THR82       0.1794
     86  OG1       41.0720   53.6440   46.1270 O.3    82  THR82      -0.2208
     87  CG2       41.1450   53.1320   43.7670 C.3    82  THR82       0.0378
     88  N         33.0630   62.9290   42.7430 N.3   100  ARG100     -0.1245
     89  CA        32.2590   61.7320   42.9780 C.3   100  ARG100      0.1563
     90  C         30.7700   61.9320   42.7040 C.2   100  ARG100      0.2260
     91  O         29.9260   61.4270   43.4320 O.2   100  ARG100     -0.2867
     92  CB        32.4740   61.2260   44.4010 C.3   100  ARG100      0.0307
     93  CG        33.8520   60.6610   44.6080 C.3   100  ARG100      0.0489
     94  CD        34.1090   60.2920   46.0510 C.3   100  ARG100      0.2205
     95  NE        35.4830   59.8310   46.2000 N.pl3 100  ARG100     -0.0865
     96  CZ        36.1410   59.7740   47.3520 C.cat 100  ARG100      0.5346
     97  NH1       35.5540   60.1370   48.4830 N.pl3 100  ARG100      0.1354
     98  NH2       37.3930   59.3450   47.3710 N.pl3 100  ARG100      0.1354
@<TRIPOS>BOND
     1    90    89    1
     2    90    91    2
     3    88    89    1
     4    89    92    1
     5    84    83    2
     6    83    82    1
     7    87    85    1
     8    92    93    1
     9    93    94    1
    10    82    85    1
    11    82    81    1
    12    85    86    1
    13    49    47    1
    14    81    76   am
    15    43    44    1
    16    94    95    1
    17    95    96    2
    18    47    44    1
    19    47    48    1
    20    44    45    1
    21    76    77    2
    22    76    75    1
    23    78    79    1
    24    78    75    1
    25    96    98    1
    26    96    97    1
    27    79    80    1
    28    75    74    1
    29    45    50   am
    30    45    46    2
    31    50    51    1
    32    62    61    2
    33    57    56    2
    34    80    74    1
    35    74    65   am
    36    55    56    1
    37    55    54    1
    38    56    58   am
    39    54    51    1
    40    51    52    1
    41    61    60    1
    42    61    63   am
    43    59    52   am
    44    59    60    1
    45    65    64    1
    46    65    66    2
    47    64    63    1
    48    64    67    1
    49    28    27    2
    50    69    71   ar
    51    69    68   ar
    52    52    53    2
    53    71    73   ar
    54    67    68    1
    55    27    26    1
    56    35    36    1
    57    68    70   ar
    58    73    72   ar
    59    29    26    1
    60    29    30    1
    61    26    25    1
    62    36    37    1
    63    36    39    1
    64    70    72   ar
    65    37    38    2
    66    30    31   ar
    67    30    32   ar
    68    24    23    2
    69    31    33   ar
    70    39    40    1
    71    20    19    1
    72    25    23   am
    73    18    17    2
    74    32    34   ar
    75    19    16    1
    76    23    22    1
    77    33    34   ar
    78    17    16    1
    79    17    21   am
    80    40    41   ar
    81    40    42   ar
    82    16    15    1
    83    15     3   am
    84     1     2    1
    85    22    21    1
    86    12    14   ar
    87    12    10   ar
    88    14    13   ar
    89     3     2    1
    90     3     4    2
    91    10     9   ar
    92    10     8   ar
    93     2     5    1
    94     9     7   ar
    95    13    11   ar
    96     8    11   ar
    97     8     6   ar
    98     7     6   ar
    99     6     5    1
