@<TRIPOS>MOLECULE
tmp/3w8mA00.pdb
 189 185 0 0 0
SMALL
GASTEIGER

@<TRIPOS>ATOM
      1  N        -12.8580  -45.1940    9.6580 N.3    32  HIS32      -0.1226
      2  CA       -13.9630  -44.6140    8.9010 C.3    32  HIS32       0.1752
      3  C        -14.5750  -45.7550    8.0920 C.2    32  HIS32       0.2596
      4  O        -14.3180  -45.9130    6.8980 O.2    32  HIS32      -0.2718
      5  CB       -13.4150  -43.4770    8.0420 C.3    32  HIS32       0.0759
      6  CG       -14.4590  -42.6570    7.3650 C.ar   32  HIS32       0.0818
      7  ND1      -14.6810  -41.3330    7.6680 N.ar   32  HIS32      -0.2268
      8  CD2      -15.3170  -42.9670    6.3730 C.ar   32  HIS32       0.1154
      9  CE1      -15.6380  -40.8640    6.8900 C.ar   32  HIS32       0.1986
     10  NE2      -16.0430  -41.8370    6.1000 N.ar   32  HIS32      -0.2212
     11  N        -15.3710  -46.5790    8.7790 N.am   33  ARG33      -0.1966
     12  CA       -15.8200  -47.8830    8.3050 C.3    33  ARG33       0.1714
     13  C        -17.3090  -48.0160    8.6620 C.2    33  ARG33       0.2458
     14  O        -17.8070  -47.2500    9.4760 O.2    33  ARG33      -0.2730
     15  CB       -15.0070  -49.0180    8.9790 C.3    33  ARG33       0.0347
     16  CG       -13.5100  -48.9580    8.6900 C.3    33  ARG33       0.0492
     17  CD       -12.6830  -50.0280    9.4040 C.3    33  ARG33       0.2205
     18  NE       -11.2630  -49.8810    9.0670 N.pl3  33  ARG33      -0.0865
     19  CZ       -10.7070  -50.2160    7.8930 C.cat  33  ARG33       0.5346
     20  NH1      -11.4330  -50.7150    6.8980 N.pl3  33  ARG33       0.1354
     21  NH2       -9.4030  -50.0310    7.6930 N.pl3  33  ARG33       0.1354
     22  N        -18.0190  -48.9910    8.0770 N.am   34  PRO34      -0.2727
     23  CA       -19.4520  -49.0990    8.3770 C.3    34  PRO34       0.1402
     24  C        -19.7460  -49.2670    9.8690 C.2    34  PRO34       0.2269
     25  O        -19.1560  -50.1210   10.5310 O.2    34  PRO34      -0.2865
     26  CB       -19.8870  -50.3340    7.5940 C.3    34  PRO34       0.0296
     27  CG       -18.8880  -50.4510    6.5090 C.3    34  PRO34       0.0237
     28  CD       -17.5980  -50.0150    7.1050 C.3    34  PRO34       0.0939
     29  N        -18.3250  -44.6020   11.3820 N.3    37  VAL37      -0.1245
     30  CA       -18.1320  -43.2200   10.9850 C.3    37  VAL37       0.1561
     31  C        -18.8560  -42.3520   11.9900 C.2    37  VAL37       0.2260
     32  O        -20.0590  -42.4890   12.1480 O.2    37  VAL37      -0.2867
     33  CB       -18.6580  -42.9550    9.5700 C.3    37  VAL37       0.0252
     34  CG1      -18.5200  -41.4820    9.2260 C.3    37  VAL37       0.0019
     35  CG2      -17.9090  -43.8380    8.5650 C.3    37  VAL37       0.0019
     36  N        -19.5360  -38.4680   13.5130 N.3    39  ASP39      -0.1239
     37  CA       -19.3850  -37.0410   13.2450 C.3    39  ASP39       0.1674
     38  C        -18.6410  -36.3660   14.4030 C.2    39  ASP39       0.2266
     39  O        -18.7480  -36.7620   15.5770 O.2    39  ASP39      -0.2867
     40  CB       -20.7200  -36.3250   12.9110 C.3    39  ASP39       0.1410
     41  CG       -21.2420  -36.6720   11.5140 C.2    39  ASP39       0.3668
     42  OD1      -20.9050  -35.9790   10.4830 O.co2  39  ASP39      -0.2456
     43  OD2      -22.0080  -37.6620   11.4660 O.co2  39  ASP39      -0.2456
     44  N        -14.9260  -38.1270   10.5420 N.3    43  THR43      -0.1203
     45  CA       -15.5490  -37.8520    9.2450 C.3    43  THR43       0.1994
     46  C        -14.6730  -37.0260    8.3230 C.2    43  THR43       0.2618
     47  O        -14.7540  -37.1880    7.0980 O.2    43  THR43      -0.2717
     48  CB       -16.8820  -37.0890    9.3880 C.3    43  THR43       0.1784
     49  OG1      -16.6590  -35.8910   10.1350 O.3    43  THR43      -0.2211
     50  CG2      -17.9670  -37.9620   10.0380 C.3    43  THR43       0.0376
     51  N        -13.8770  -36.1410    8.9010 N.am   44  GLY44      -0.1942
     52  CA       -13.2180  -35.1020    8.1280 C.3    44  GLY44       0.2014
     53  C        -14.2310  -34.0330    7.7980 C.2    44  GLY44       0.2639
     54  O        -15.3390  -34.0170    8.3390 O.2    44  GLY44      -0.2714
     55  N        -13.8460  -33.1090    6.9280 N.am   45  GLY45      -0.1939
     56  CA       -14.7000  -31.9940    6.5760 C.3    45  GLY45       0.2014
     57  C        -14.3360  -31.4560    5.2100 C.2    45  GLY45       0.2638
     58  O        -13.1950  -31.6510    4.7340 O.2    45  GLY45      -0.2714
     59  N        -15.3130  -30.8000    4.5880 N.am   46  PHE46      -0.1973
     60  CA       -15.1950  -30.2460    3.2420 C.3    46  PHE46       0.1639
     61  C        -15.1500  -28.7170    3.2870 C.2    46  PHE46       0.2290
     62  O        -15.7880  -28.0670    4.1410 O.2    46  PHE46      -0.2864
     63  CB       -16.3570  -30.6910    2.3690 C.3    46  PHE46       0.0560
     64  CG       -16.3420  -32.1560    2.0530 C.ar   46  PHE46      -0.0200
     65  CD1      -17.0730  -33.0410    2.8200 C.ar   46  PHE46      -0.0042
     66  CD2      -15.5880  -32.6520    0.9950 C.ar   46  PHE46      -0.0042
     67  CE1      -17.0710  -34.3860    2.5380 C.ar   46  PHE46      -0.0003
     68  CE2      -15.5740  -34.0090    0.7210 C.ar   46  PHE46      -0.0003
     69  CZ       -16.3200  -34.8710    1.4950 C.ar   46  PHE46      -0.0000
     70  N        -20.9130  -31.4890    0.6030 N.3    51  PHE51      -0.1241
     71  CA       -20.1570  -32.7370    0.4230 C.3    51  PHE51       0.1605
     72  C        -19.3780  -32.6800   -0.8790 C.2    51  PHE51       0.2264
     73  O        -19.2250  -33.6620   -1.6050 O.2    51  PHE51      -0.2867
     74  CB       -21.1010  -33.9320    0.5370 C.3    51  PHE51       0.0534
     75  CG       -21.8020  -33.9680    1.8610 C.ar   51  PHE51      -0.0203
     76  CD1      -23.0960  -33.4780    1.9900 C.ar   51  PHE51      -0.0042
     77  CD2      -21.1280  -34.3750    2.9950 C.ar   51  PHE51      -0.0042
     78  CE1      -23.7150  -33.4500    3.2250 C.ar   51  PHE51      -0.0003
     79  CE2      -21.7440  -34.3480    4.2420 C.ar   51  PHE51      -0.0003
     80  CZ       -23.0460  -33.8840    4.3520 C.ar   51  PHE51      -0.0000
     81  N        -10.7770  -31.5070    1.0800 N.3    56  TYR56      -0.1241
     82  CA       -11.2790  -32.4430    2.0800 C.3    56  TYR56       0.1605
     83  C        -10.1310  -32.7010    3.0320 C.2    56  TYR56       0.2264
     84  O         -9.0300  -33.0810    2.5930 O.2    56  TYR56      -0.2867
     85  CB       -11.7480  -33.7380    1.4400 C.3    56  TYR56       0.0534
     86  CG       -12.0450  -34.8010    2.4620 C.ar   56  TYR56      -0.0201
     87  CD1      -13.1580  -34.7040    3.2870 C.ar   56  TYR56      -0.0009
     88  CD2      -11.1960  -35.8870    2.6370 C.ar   56  TYR56      -0.0009
     89  CE1      -13.4150  -35.6650    4.2460 C.ar   56  TYR56       0.0417
     90  CE2      -11.4570  -36.8540    3.5900 C.ar   56  TYR56       0.0417
     91  CZ       -12.5710  -36.7360    4.3920 C.ar   56  TYR56       0.1957
     92  OH       -12.8250  -37.6940    5.3450 O.3    56  TYR56      -0.2866
     93  N        -18.3130  -35.8990   -3.0030 N.3    75  TYR75      -0.1241
     94  CA       -18.5370  -37.0550   -2.1650 C.3    75  TYR75       0.1605
     95  C        -20.0220  -37.3630   -2.1840 C.2    75  TYR75       0.2264
     96  O        -20.8430  -36.4840   -1.8980 O.2    75  TYR75      -0.2867
     97  CB       -18.0570  -36.7790   -0.7450 C.3    75  TYR75       0.0534
     98  CG       -18.2550  -37.9480    0.1890 C.ar   75  TYR75      -0.0201
     99  CD1      -17.5860  -39.1520   -0.0310 C.ar   75  TYR75      -0.0009
    100  CD2      -19.1000  -37.8530    1.3080 C.ar   75  TYR75      -0.0009
    101  CE1      -17.7790  -40.2320    0.7890 C.ar   75  TYR75       0.0417
    102  CE2      -19.2710  -38.9250    2.1540 C.ar   75  TYR75       0.0417
    103  CZ       -18.6080  -40.1100    1.8890 C.ar   75  TYR75       0.1957
    104  OH       -18.7590  -41.1930    2.7160 O.3    75  TYR75      -0.2866
    105  N        -21.8400  -39.3600   -0.3060 N.3    77  LEU77      -0.1231
    106  CA       -22.4700  -39.6210    0.9770 C.3    77  LEU77       0.1693
    107  C        -23.3900  -40.8480    0.8760 C.2    77  LEU77       0.2592
    108  O        -22.9010  -41.9470    0.6070 O.2    77  LEU77      -0.2718
    109  CB       -23.1490  -38.3510    1.5160 C.3    77  LEU77       0.0284
    110  CG       -23.5710  -38.4100    2.9880 C.3    77  LEU77       0.0019
    111  CD1      -22.4100  -38.6140    3.9520 C.3    77  LEU77       0.0001
    112  CD2      -24.3700  -37.1600    3.3270 C.3    77  LEU77       0.0001
    113  N        -24.7050  -40.7150    1.0520 N.am   78  PHE78      -0.1976
    114  CA       -25.5600  -41.8990    1.0900 C.3    78  PHE78       0.1639
    115  C        -26.1190  -42.2800   -0.2800 C.2    78  PHE78       0.2290
    116  O        -26.7260  -43.3460   -0.4370 O.2    78  PHE78      -0.2864
    117  CB       -26.7200  -41.6930    2.0720 C.3    78  PHE78       0.0560
    118  CG       -26.2820  -41.2400    3.4450 C.ar   78  PHE78      -0.0200
    119  CD1      -25.5640  -42.1010    4.2620 C.ar   78  PHE78      -0.0042
    120  CD2      -26.5890  -39.9640    3.9110 C.ar   78  PHE78      -0.0042
    121  CE1      -25.1420  -41.7000    5.5230 C.ar   78  PHE78      -0.0003
    122  CE2      -26.1800  -39.5610    5.1650 C.ar   78  PHE78      -0.0003
    123  CZ       -25.4500  -40.4270    5.9660 C.ar   78  PHE78      -0.0000
    124  N        -20.9590  -43.3930   -0.6160 N.3    83  HIS83      -0.1241
    125  CA       -19.6680  -43.1510    0.0140 C.3    83  HIS83       0.1621
    126  C        -18.5020  -43.1860   -0.9510 C.2    83  HIS83       0.2264
    127  O        -17.4350  -43.7220   -0.6410 O.2    83  HIS83      -0.2867
    128  CB       -19.4740  -44.1200    1.1810 C.3    83  HIS83       0.0745
    129  CG       -20.5790  -44.0330    2.1770 C.ar   83  HIS83       0.0817
    130  ND1      -20.8520  -42.8740    2.8610 N.ar   83  HIS83      -0.2268
    131  CD2      -21.5420  -44.9150    2.5240 C.ar   83  HIS83       0.1154
    132  CE1      -21.9090  -43.0580    3.6320 C.ar   83  HIS83       0.1986
    133  NE2      -22.3350  -44.2940    3.4580 N.ar   83  HIS83      -0.2212
    134  N        -15.8430  -40.8250   -3.0120 N.3    85  LEU85      -0.1245
    135  CA       -15.1120  -39.5970   -3.2760 C.3    85  LEU85       0.1561
    136  C        -14.5890  -39.6690   -4.7010 C.2    85  LEU85       0.2260
    137  O        -13.8450  -40.5820   -5.0490 O.2    85  LEU85      -0.2867
    138  CB       -13.9290  -39.4250   -2.3250 C.3    85  LEU85       0.0270
    139  CG       -13.2290  -38.0560   -2.4270 C.3    85  LEU85       0.0019
    140  CD1      -14.0530  -36.9600   -1.7430 C.3    85  LEU85       0.0001
    141  CD2      -11.8150  -38.1140   -1.8840 C.3    85  LEU85       0.0001
    142  N        -16.4380  -46.6210   -5.3800 N.3   129  ARG129     -0.1245
    143  CA       -15.2760  -46.7550   -4.5110 C.3   129  ARG129      0.1563
    144  C        -14.1340  -47.5440   -5.1690 C.2   129  ARG129      0.2260
    145  O        -13.0970  -47.7530   -4.5610 O.2   129  ARG129     -0.2867
    146  CB       -15.6790  -47.3760   -3.1870 C.3   129  ARG129      0.0307
    147  CG       -16.6760  -46.5140   -2.4240 C.3   129  ARG129      0.0489
    148  CD       -16.9690  -47.1160   -1.0590 C.3   129  ARG129      0.2205
    149  NE       -18.4030  -47.2010   -0.8280 N.pl3 129  ARG129     -0.0865
    150  CZ       -18.9750  -47.6710    0.2780 C.cat 129  ARG129      0.5346
    151  NH1      -18.2300  -48.1000    1.2810 N.pl3 129  ARG129      0.1354
    152  NH2      -20.2940  -47.7130    0.3720 N.pl3 129  ARG129      0.1354
    153  N        -10.7210  -42.1520   -5.0130 N.3   134  HIS134     -0.1241
    154  CA       -11.2750  -42.7220   -3.7990 C.3   134  HIS134      0.1621
    155  C        -10.2470  -43.5670   -3.0820 C.2   134  HIS134      0.2264
    156  O        -10.0490  -43.4190   -1.8700 O.2   134  HIS134     -0.2867
    157  CB       -12.4940  -43.5810   -4.0850 C.3   134  HIS134      0.0745
    158  CG       -13.2180  -43.9630   -2.8430 C.ar  134  HIS134      0.0817
    159  ND1      -12.8950  -45.0660   -2.0900 N.ar  134  HIS134     -0.2268
    160  CD2      -14.2180  -43.3360   -2.1900 C.ar  134  HIS134      0.1154
    161  CE1      -13.6780  -45.1010   -1.0250 C.ar  134  HIS134      0.1986
    162  NE2      -14.4910  -44.0650   -1.0690 N.ar  134  HIS134     -0.2212
    163  N         -7.3870  -41.3980   -1.3850 N.3   137  VAL137     -0.1231
    164  CA        -7.7360  -40.6660   -0.1690 C.3   137  VAL137      0.1692
    165  C         -8.1930  -41.5890    0.9350 C.2   137  VAL137      0.2592
    166  O         -7.7420  -41.4420    2.0790 O.2   137  VAL137     -0.2718
    167  CB        -8.7910  -39.5820   -0.4620 C.3   137  VAL137      0.0266
    168  CG1       -9.2540  -38.9000    0.8200 C.3   137  VAL137      0.0020
    169  CG2       -8.2120  -38.5460   -1.4090 C.3   137  VAL137      0.0020
    170  N         -9.0110  -42.5720    0.5930 N.am  138  TYR138     -0.1976
    171  CA        -9.4570  -43.5350    1.6080 C.3   138  TYR138      0.1639
    172  C         -8.2710  -44.3240    2.1660 C.2   138  TYR138      0.2290
    173  O         -8.2550  -44.6630    3.3400 O.2   138  TYR138     -0.2864
    174  CB       -10.5450  -44.4670    1.0860 C.3   138  TYR138      0.0560
    175  CG       -11.1800  -45.2790    2.1920 C.ar  138  TYR138     -0.0198
    176  CD1      -11.9560  -44.6660    3.1710 C.ar  138  TYR138     -0.0009
    177  CD2      -10.9710  -46.6420    2.2800 C.ar  138  TYR138     -0.0009
    178  CE1      -12.5190  -45.3980    4.2020 C.ar  138  TYR138      0.0417
    179  CE2      -11.5360  -47.3880    3.3010 C.ar  138  TYR138      0.0417
    180  CZ       -12.3170  -46.7560    4.2530 C.ar  138  TYR138      0.1957
    181  OH       -12.8580  -47.5150    5.2750 O.3   138  TYR138     -0.2866
    182  N         -6.8500  -42.4990    4.9410 N.3   141  MET141     -0.1245
    183  CA        -7.7670  -42.4980    6.0680 C.3   141  MET141      0.1570
    184  C         -7.6770  -43.8010    6.8290 C.2   141  MET141      0.2261
    185  O         -8.0150  -43.8460    8.0190 O.2   141  MET141     -0.2867
    186  CB        -9.2020  -42.2930    5.5760 C.3   141  MET141      0.0387
    187  CG        -9.4100  -40.9340    4.9550 C.3   141  MET141      0.0595
    188  SD       -10.9180  -40.8250    3.9750 S.3   141  MET141     -0.1393
    189  CE       -12.1660  -40.9700    5.2480 C.3   141  MET141      0.0692
@<TRIPOS>BOND
     1   142   143    1
     2   144   145    2
     3   144   143    1
     4   137   136    2
     5   153   154    1
     6   136   135    1
     7   143   146    1
     8   157   154    1
     9   157   158    1
    10   154   155    1
    11   135   134    1
    12   135   138    1
    13   146   147    1
    14   155   156    2
    15    93    94    1
    16   158   160   ar
    17   158   159   ar
    18   139   138    1
    19   139   141    1
    20   139   140    1
    21   147   148    1
    22   160   162   ar
    23    95    94    1
    24    95    96    2
    25    94    97    1
    26   159   161   ar
    27    73    72    2
    28   169   167    1
    29   163   164    1
    30   162   161   ar
    31   148   149    1
    32   126   127    2
    33   126   125    1
    34    72    71    1
    35   149   150    2
    36    97    98    1
    37   124   125    1
    38   167   164    1
    39   167   168    1
    40   116   115    2
    41   105   106    1
    42   115   114    1
    43   164   165    1
    44    99    98   ar
    45    99   101   ar
    46   125   128    1
    47    98   100   ar
    48   150   152    1
    49   150   151    1
    50    71    74    1
    51    71    70    1
    52    74    75    1
    53   170   165   am
    54   170   171    1
    55   108   107    2
    56    68    66   ar
    57    68    69   ar
    58   101   103   ar
    59   107   106    1
    60   107   113   am
    61   165   166    2
    62   106   109    1
    63    66    64   ar
    64   113   114    1
    65    81    82    1
    66   174   171    1
    67   174   175    1
    68   114   117    1
    69   128   129    1
    70   100   102   ar
    71    85    82    1
    72    85    86    1
    73    69    67   ar
    74   109   110    1
    75   171   172    1
    76    75    76   ar
    77    75    77   ar
    78   103   102   ar
    79   103   104    1
    80    76    78   ar
    81    64    63    1
    82    64    65   ar
    83   117   118    1
    84    82    83    1
    85   172   173    2
    86   129   131   ar
    87   129   130   ar
    88   175   177   ar
    89   175   176   ar
    90   177   179   ar
    91    63    60    1
    92    86    88   ar
    93    86    87   ar
    94   131   133   ar
    95    67    65   ar
    96    84    83    2
    97    88    90   ar
    98   130   132   ar
    99   110   112    1
   100   110   111    1
   101    77    79   ar
   102   176   178   ar
   103    78    80   ar
   104    60    61    1
   105    60    59    1
   106    61    62    2
   107    87    89   ar
   108   179   180   ar
   109   118   120   ar
   110   118   119   ar
   111   133   132   ar
   112    90    91   ar
   113   120   122   ar
   114   188   187    1
   115   188   189    1
   116   178   180   ar
   117    79    80   ar
   118    89    91   ar
   119   180   181    1
   120   119   121   ar
   121    91    92    1
   122    59    57   am
   123    58    57    2
   124   182   183    1
   125   187   186    1
   126   122   123   ar
   127    57    56    1
   128   121   123   ar
   129   186   183    1
   130   183   184    1
   131    10     8   ar
   132    10     9   ar
   133     8     6   ar
   134    27    28    1
   135    27    26    1
   136    56    55    1
   137   184   185    2
   138     9     7   ar
   139     4     3    2
   140    20    19    1
   141    55    53   am
   142    47    46    2
   143    28    22    1
   144     6     7   ar
   145     6     5    1
   146    26    23    1
   147    21    19    1
   148    53    52    1
   149    53    54    2
   150    19    18    2
   151     5     2    1
   152    22    23    1
   153    22    13   am
   154     3    11   am
   155     3     2    1
   156    52    51    1
   157    12    13    1
   158    12    11    1
   159    12    15    1
   160    46    51   am
   161    46    45    1
   162    23    24    1
   163    35    33    1
   164    13    14    2
   165    16    15    1
   166    16    17    1
   167     2     1    1
   168    18    17    1
   169    34    33    1
   170    45    48    1
   171    45    44    1
   172    48    50    1
   173    48    49    1
   174    33    30    1
   175    24    25    2
   176    42    41   ar
   177    30    29    1
   178    30    31    1
   179    43    41   ar
   180    41    40    1
   181    31    32    2
   182    40    37    1
   183    37    36    1
   184    37    38    1
   185    38    39    2
