@<TRIPOS>MOLECULE
tmp/3w8xA01.pdb
 174 169 0 0 0
SMALL
GASTEIGER

@<TRIPOS>ATOM
      1  N         13.1180   23.1640   30.1180 N.3    36  TRP36      -0.1241
      2  CA        11.6940   23.1790   29.7490 C.3    36  TRP36       0.1605
      3  C         10.9500   24.3780   30.3700 C.2    36  TRP36       0.2264
      4  O         10.1270   25.1040   29.7230 O.2    36  TRP36      -0.2867
      5  CB        11.0850   21.8440   30.1750 C.3    36  TRP36       0.0550
      6  CG         9.5570   21.7850   29.9100 C.ar   36  TRP36       0.0003
      7  CD1        8.9160   21.5430   28.7090 C.ar   36  TRP36       0.0946
      8  CD2        8.5710   21.8550   30.8760 C.ar   36  TRP36       0.0152
      9  NE1        7.5570   21.5620   28.9030 N.ar   36  TRP36      -0.2442
     10  CE2        7.3280   21.7620   30.2300 C.ar   36  TRP36       0.0810
     11  CE3        8.5940   22.0460   32.2250 C.ar   36  TRP36       0.0012
     12  CZ2        6.1410   21.8030   30.9130 C.ar   36  TRP36       0.0191
     13  CZ3        7.3760   22.0550   32.9120 C.ar   36  TRP36       0.0001
     14  CH2        6.1980   21.9310   32.2530 C.ar   36  TRP36       0.0015
     15  N         10.3620   21.3720   37.2630 N.3    79  MET79      -0.1245
     16  CA         9.3880   22.4950   37.4410 C.3    79  MET79       0.1570
     17  C          9.9820   23.6590   38.2240 C.2    79  MET79       0.2261
     18  O          9.5660   24.8220   38.0700 O.2    79  MET79      -0.2867
     19  CB         8.0460   21.9840   38.0040 C.3    79  MET79       0.0387
     20  CG         7.4850   21.0450   36.9710 C.3    79  MET79       0.0595
     21  SD         5.8670   20.5500   37.2710 S.3    79  MET79      -0.1393
     22  CE         5.6070   19.4190   35.8570 C.3    79  MET79       0.0692
     23  N          6.2150    8.4290   33.6680 N.3   133  GLY133     -0.1210
     24  CA         5.2480    9.4880   33.4480 C.3   133  GLY133      0.1956
     25  C          4.6060    9.4800   32.0910 C.2   133  GLY133      0.2612
     26  O          4.9070    8.6370   31.2320 O.2   133  GLY133     -0.2717
     27  N          3.6930   10.4170   31.9060 N.am  134  VAL134     -0.1965
     28  CA         2.7940   10.3700   30.7280 C.3   134  VAL134      0.1727
     29  C          3.2750   11.2540   29.5200 C.2   134  VAL134      0.2616
     30  O          2.6490   11.1970   28.4760 O.2   134  VAL134     -0.2715
     31  CB         1.3470   10.8150   31.1360 C.3   134  VAL134      0.0290
     32  CG1        0.8120    9.9870   32.3000 C.3   134  VAL134      0.0023
     33  CG2        1.3410   12.2990   31.4680 C.3   134  VAL134      0.0023
     34  N          4.3780   12.0230   29.6550 N.am  135  VAL135     -0.1977
     35  CA         4.8810   12.8760   28.5640 C.3   135  VAL135      0.1596
     36  C          6.2370   12.3700   28.1340 C.2   135  VAL135      0.2287
     37  O          7.1940   12.2510   28.9550 O.2   135  VAL135     -0.2864
     38  CB         4.9220   14.3760   28.8940 C.3   135  VAL135      0.0276
     39  CG1        5.6050   15.1460   27.7270 C.3   135  VAL135      0.0022
     40  CG2        3.4980   14.9160   29.0940 C.3   135  VAL135      0.0022
     41  N          5.1310    8.5350   38.5600 N.3   149  PHE149     -0.1227
     42  CA         3.7930    7.9170   38.3820 C.3   149  PHE149      0.1736
     43  C          3.2590    8.1860   36.9880 C.2   149  PHE149      0.2596
     44  O          3.5710    9.1710   36.3330 O.2   149  PHE149     -0.2718
     45  CB         2.7920    8.2000   39.5220 C.3   149  PHE149      0.0547
     46  CG         2.6270    9.6500   39.8860 C.ar  149  PHE149     -0.0202
     47  CD1        1.9820   10.5100   39.0480 C.ar  149  PHE149     -0.0042
     48  CD2        3.1050   10.1010   41.0610 C.ar  149  PHE149     -0.0042
     49  CE1        1.8280   11.8720   39.3740 C.ar  149  PHE149     -0.0003
     50  CE2        2.9190   11.4090   41.4460 C.ar  149  PHE149     -0.0003
     51  CZ         2.3110   12.2960   40.5770 C.ar  149  PHE149     -0.0000
     52  N          2.4350    7.2740   36.5080 N.am  150  GLY150     -0.1942
     53  CA         1.6720    7.5000   35.2800 C.3   150  GLY150      0.2014
     54  C          0.6750    6.4140   35.0270 C.2   150  GLY150      0.2638
     55  O          0.1500    5.8760   36.0060 O.2   150  GLY150     -0.2714
     56  N          0.4000    6.1250   33.7550 N.am  151  TRP151     -0.1973
     57  CA        -0.6980    5.2020   33.3900 C.3   151  TRP151      0.1640
     58  C         -0.6460    3.8040   34.0290 C.2   151  TRP151      0.2290
     59  O         -1.6920    3.2300   34.3480 O.2   151  TRP151     -0.2864
     60  CB        -0.8000    5.0630   31.8390 C.3   151  TRP151      0.0576
     61  CG        -1.0710    6.3220   31.1440 C.ar  151  TRP151      0.0006
     62  CD1       -0.2410    6.9700   30.2660 C.ar  151  TRP151      0.0946
     63  CD2       -2.2570    7.1180   31.2430 C.ar  151  TRP151      0.0152
     64  NE1       -0.8700    8.1160   29.7960 N.ar  151  TRP151     -0.2442
     65  CE2       -2.0970    8.2270   30.3900 C.ar  151  TRP151      0.0810
     66  CE3       -3.4250    7.0060   31.9800 C.ar  151  TRP151      0.0012
     67  CZ2       -3.0620    9.2650   30.2800 C.ar  151  TRP151      0.0191
     68  CZ3       -4.4270    8.0100   31.8410 C.ar  151  TRP151      0.0001
     69  CH2       -4.2260    9.1410   31.0110 C.ar  151  TRP151      0.0015
     70  N         -7.4520    3.4750   35.0370 N.3   244  THR244     -0.1218
     71  CA        -6.8680    4.7630   35.4120 C.3   244  THR244      0.1862
     72  C         -7.7510    5.8150   34.7330 C.2   244  THR244      0.2287
     73  O         -8.1490    5.6210   33.5830 O.2   244  THR244     -0.2866
     74  CB        -5.3810    4.8550   34.9960 C.3   244  THR244      0.1770
     75  OG1       -4.6360    3.9790   35.8480 O.3   244  THR244     -0.2211
     76  CG2       -4.8550    6.2170   35.2180 C.3   244  THR244      0.0375
     77  N         -8.2110   10.1640   34.7790 N.3   246  ALA246     -0.1245
     78  CA        -7.6850   11.4820   35.1940 C.3   246  ALA246      0.1562
     79  C         -8.5230   12.5790   34.5880 C.2   246  ALA246      0.2260
     80  O         -9.0590   12.3730   33.4990 O.2   246  ALA246     -0.2867
     81  CB        -6.2330   11.6080   34.7340 C.3   246  ALA246      0.0290
     82  N         -8.6500   16.7660   33.5580 N.3   248  TYR248     -0.1241
     83  CA        -7.8340   17.9600   33.2470 C.3   248  TYR248      0.1605
     84  C         -8.8380   19.0410   32.9610 C.2   248  TYR248      0.2264
     85  O         -9.5660   19.0000   31.9810 O.2   248  TYR248     -0.2867
     86  CB        -6.9180   17.6840   32.0450 C.3   248  TYR248      0.0534
     87  CG        -5.9390   16.6230   32.2930 C.ar  248  TYR248     -0.0201
     88  CD1       -4.7190   16.8990   32.8270 C.ar  248  TYR248     -0.0009
     89  CD2       -6.2290   15.3000   31.9620 C.ar  248  TYR248     -0.0009
     90  CE1       -3.7990   15.9000   33.0630 C.ar  248  TYR248      0.0417
     91  CE2       -5.3540   14.3160   32.1940 C.ar  248  TYR248      0.0417
     92  CZ        -4.1350   14.6130   32.7400 C.ar  248  TYR248      0.1957
     93  OH        -3.2530   13.5960   32.9540 O.3   248  TYR248     -0.2866
     94  N          0.3760   15.4560   25.1610 N.3   312  PHE312     -0.1241
     95  CA        -1.0130   15.8610   24.8070 C.3   312  PHE312      0.1605
     96  C         -0.9810   16.4060   23.3150 C.2   312  PHE312      0.2264
     97  O          0.0570   16.9120   22.8530 O.2   312  PHE312     -0.2867
     98  CB        -1.4480   17.0370   25.7570 C.3   312  PHE312      0.0534
     99  CG        -1.4350   16.6820   27.2210 C.ar  312  PHE312     -0.0203
    100  CD1       -2.5060   15.9960   27.7820 C.ar  312  PHE312     -0.0042
    101  CD2       -0.3510   16.9830   28.0500 C.ar  312  PHE312     -0.0042
    102  CE1       -2.5080   15.6070   29.1160 C.ar  312  PHE312     -0.0003
    103  CE2       -0.3420   16.5850   29.3750 C.ar  312  PHE312     -0.0003
    104  CZ        -1.4450   15.8980   29.9190 C.ar  312  PHE312     -0.0000
    105  N         -3.6650   23.9990   32.8130 N.3   352  GLN352     -0.1245
    106  CA        -4.6430   23.0010   33.2460 C.3   352  GLN352      0.1566
    107  C         -4.6550   22.8890   34.7480 C.2   352  GLN352      0.2260
    108  O         -3.6400   23.0620   35.3890 O.2   352  GLN352     -0.2867
    109  CB        -4.3960   21.6010   32.7110 C.3   352  GLN352      0.0367
    110  CG        -3.4270   21.3870   31.6090 C.3   352  GLN352      0.0905
    111  CD        -3.4080   19.9480   31.1200 C.2   352  GLN352      0.2608
    112  OE1       -2.5630   19.1170   31.5320 O.2   352  GLN352     -0.2717
    113  NE2       -4.2810   19.6620   30.2040 N.am  352  GLN352     -0.0878
    114  N         -5.2660   19.9300   37.0620 N.3   354  GLU354     -0.1245
    115  CA        -5.2700   18.4760   36.9550 C.3   354  GLU354      0.1567
    116  C         -5.7500   17.8210   38.2410 C.2   354  GLU354      0.2260
    117  O         -5.3670   18.2340   39.3430 O.2   354  GLU354     -0.2867
    118  CB        -3.8600   18.0010   36.6940 C.3   354  GLU354      0.0388
    119  CG        -3.1960   18.7640   35.5690 C.3   354  GLU354      0.1160
    120  CD        -1.7230   18.3750   35.3670 C.2   354  GLU354      0.3649
    121  OE1       -1.1450   17.7070   36.2550 O.co2 354  GLU354     -0.2457
    122  OE2       -1.1540   18.8230   34.3260 O.co2 354  GLU354     -0.2457
    123  N         -5.7640   13.9690   39.6680 N.3   356  LEU356     -0.1231
    124  CA        -5.2500   12.6370   39.4900 C.3   356  LEU356      0.1693
    125  C         -5.7640   11.7740   40.6400 C.2   356  LEU356      0.2592
    126  O         -5.8620   12.2480   41.7430 O.2   356  LEU356     -0.2718
    127  CB        -3.6740   12.6140   39.4160 C.3   356  LEU356      0.0284
    128  CG        -3.1130   13.7230   38.4740 C.3   356  LEU356      0.0019
    129  CD1       -1.5630   13.6430   38.5140 C.3   356  LEU356      0.0001
    130  CD2       -3.7340   13.5680   37.0770 C.3   356  LEU356      0.0001
    131  N         -5.9090   10.4850   40.3740 N.am  357  TYR357     -0.1962
    132  CA        -6.1990    9.5150   41.4390 C.3   357  TYR357      0.1771
    133  C         -5.1640    8.3740   41.3390 C.2   357  TYR357      0.2619
    134  O         -5.1130    7.6600   40.3190 O.2   357  TYR357     -0.2715
    135  CB        -7.6250    8.9670   41.2590 C.3   357  TYR357      0.0574
    136  CG        -8.1350    8.2280   42.4320 C.ar  357  TYR357     -0.0198
    137  CD1       -8.8690    8.8550   43.3900 C.ar  357  TYR357     -0.0009
    138  CD2       -7.7530    6.9140   42.6940 C.ar  357  TYR357     -0.0009
    139  CE1       -9.3300    8.1790   44.5340 C.ar  357  TYR357      0.0417
    140  CE2       -8.2020    6.2470   43.8160 C.ar  357  TYR357      0.0417
    141  CZ        -9.0010    6.8890   44.7330 C.ar  357  TYR357      0.1957
    142  OH        -9.3990    6.2260   45.8540 O.3   357  TYR357     -0.2866
    143  N         -4.3530    8.2190   42.3870 N.am  358  LEU358     -0.1977
    144  CA        -3.3110    7.2200   42.4100 C.3   358  LEU358      0.1596
    145  C         -3.8330    6.0080   43.2070 C.2   358  LEU358      0.2287
    146  O         -4.6950    5.2940   42.6980 O.2   358  LEU358     -0.2864
    147  CB        -2.0250    7.8180   43.0090 C.3   358  LEU358      0.0297
    148  CG        -1.4160    8.9510   42.2150 C.3   358  LEU358      0.0022
    149  CD1       -0.1590    9.4220   42.9460 C.3   358  LEU358      0.0001
    150  CD2       -1.0610    8.4390   40.8570 C.3   358  LEU358      0.0001
    151  N         -2.9570   19.5620   40.6470 N.3   382  ASN382     -0.1240
    152  CA        -1.8210   20.3430   40.1950 C.3   382  ASN382      0.1653
    153  C         -2.3920   21.4980   39.4370 C.2   382  ASN382      0.2266
    154  O         -3.0400   21.2800   38.4340 O.2   382  ASN382     -0.2867
    155  CB        -0.9040   19.5010   39.2870 C.3   382  ASN382      0.1155
    156  CG         0.4020   20.2280   38.9500 C.2   382  ASN382      0.2627
    157  OD1        0.7490   21.2060   39.6200 O.2   382  ASN382     -0.2716
    158  ND2        1.1300   19.7580   37.9150 N.am  382  ASN382     -0.0877
    159  N         -1.4010   23.8340   37.0280 N.3   384  ALA384     -0.1245
    160  CA        -0.2830   23.8770   36.0960 C.3   384  ALA384      0.1562
    161  C         -0.4970   24.9740   35.1010 C.2   384  ALA384      0.2260
    162  O         -1.1100   24.8010   34.0060 O.2   384  ALA384     -0.2867
    163  CB        -0.1200   22.5370   35.4130 C.3   384  ALA384      0.0290
    164  N          6.6760   18.0840   41.4430 N.3   418  PHE418     -0.1241
    165  CA         5.8030   19.1540   40.9510 C.3   418  PHE418      0.1605
    166  C          6.0490   20.4850   41.6240 C.2   418  PHE418      0.2264
    167  O          5.2440   21.4130   41.4810 O.2   418  PHE418     -0.2867
    168  CB         4.2910   18.8010   41.1480 C.3   418  PHE418      0.0534
    169  CG         3.7810   17.6830   40.2750 C.ar  418  PHE418     -0.0203
    170  CD1        4.4600   17.2490   39.1680 C.ar  418  PHE418     -0.0042
    171  CD2        2.5520   17.0880   40.5970 C.ar  418  PHE418     -0.0042
    172  CE1        3.9270   16.2270   38.3680 C.ar  418  PHE418     -0.0003
    173  CE2        1.9940   16.0890   39.8010 C.ar  418  PHE418     -0.0003
    174  CZ         2.7220   15.6250   38.7080 C.ar  418  PHE418     -0.0000
@<TRIPOS>BOND
     1    97    96    2
     2    96    95    1
     3    95    94    1
     4    95    98    1
     5    98    99    1
     6    99   100   ar
     7    99   101   ar
     8    39    38    1
     9   100   102   ar
    10   101   103   ar
    11    36    35    1
    12    36    37    2
    13    30    29    2
    14    35    38    1
    15    35    34    1
    16     7     9   ar
    17     7     6   ar
    18    38    40    1
    19     9    10   ar
    20   102   104   ar
    21   103   104   ar
    22    29    34   am
    23    29    28    1
    24     4     3    2
    25     2     1    1
    26     2     5    1
    27     2     3    1
    28    64    62   ar
    29    64    65   ar
    30     6     5    1
    31     6     8   ar
    32   113   111   am
    33    10     8   ar
    34    10    12   ar
    35    62    61   ar
    36    67    65   ar
    37    67    69   ar
    38    65    63   ar
    39    28    31    1
    40    28    27    1
    41     8    11   ar
    42    12    14   ar
    43    69    68   ar
    44   111   112    2
    45   111   110    1
    46    31    33    1
    47    31    32    1
    48    61    63   ar
    49    61    60    1
    50    26    25    2
    51    63    66   ar
    52   110   109    1
    53    60    57    1
    54    68    66   ar
    55    27    25   am
    56    89    91   ar
    57    89    87   ar
    58    85    84    2
    59    86    87    1
    60    86    83    1
    61    25    24    1
    62    91    92   ar
    63    11    13   ar
    64    14    13   ar
    65    87    88   ar
    66   109   106    1
    67    92    93    1
    68    92    90   ar
    69   105   106    1
    70    88    90   ar
    71    84    83    1
    72   106   107    1
    73    83    82    1
    74    57    56    1
    75    57    58    1
    76    24    23    1
    77    80    79    2
    78    73    72    2
    79    56    54   am
    80   162   161    2
    81    58    59    2
    82   122   120   ar
    83    79    78    1
    84    72    71    1
    85    81    78    1
    86   107   108    2
    87    77    78    1
    88    74    76    1
    89    74    71    1
    90    74    75    1
    91    54    53    1
    92    54    55    2
    93    70    71    1
    94   161   160    1
    95    53    52    1
    96   120   119    1
    97   120   121   ar
    98   163   160    1
    99   119   118    1
   100    22    21    1
   101   160   159    1
   102    44    43    2
   103    52    43   am
   104   118   115    1
   105   115   114    1
   106   115   116    1
   107    20    21    1
   108    20    19    1
   109    43    42    1
   110   130   128    1
   111    15    16    1
   112    16    19    1
   113    16    17    1
   114   158   156   am
   115    18    17    2
   116   116   117    2
   117   172   174   ar
   118   172   170   ar
   119    42    41    1
   120    42    45    1
   121   154   153    2
   122   128   129    1
   123   128   127    1
   124   174   173   ar
   125   156   155    1
   126   156   157    2
   127    47    49   ar
   128    47    46   ar
   129   170   169   ar
   130   155   152    1
   131    49    51   ar
   132   127   124    1
   133   153   152    1
   134   124   123    1
   135   124   125    1
   136    45    46    1
   137   173   171   ar
   138    46    48   ar
   139   152   151    1
   140   169   171   ar
   141   169   168    1
   142   134   133    2
   143   131   125   am
   144   131   132    1
   145    51    50   ar
   146   125   126    2
   147   150   148    1
   148   165   168    1
   149   165   164    1
   150   165   166    1
   151    48    50   ar
   152   135   132    1
   153   135   136    1
   154   133   132    1
   155   133   143   am
   156   167   166    2
   157   148   149    1
   158   148   147    1
   159   143   144    1
   160   144   147    1
   161   144   145    1
   162   136   138   ar
   163   136   137   ar
   164   138   140   ar
   165   146   145    2
   166   137   139   ar
   167   140   141   ar
   168   139   141   ar
   169   141   142    1
