@<TRIPOS>MOLECULE
tmp/3w8zA01.pdb
 181 175 0 0 0
SMALL
GASTEIGER

@<TRIPOS>ATOM
      1  N         12.9770   23.0960   30.0680 N.3    36  TRP36      -0.1241
      2  CA        11.5220   23.0970   29.7270 C.3    36  TRP36       0.1605
      3  C         10.7820   24.3120   30.3250 C.2    36  TRP36       0.2264
      4  O          9.9970   25.0490   29.6250 O.2    36  TRP36      -0.2867
      5  CB        10.9260   21.7640   30.1960 C.3    36  TRP36       0.0550
      6  CG         9.3880   21.7240   29.9910 C.ar   36  TRP36       0.0003
      7  CD1        8.7410   21.5470   28.8010 C.ar   36  TRP36       0.0946
      8  CD2        8.4100   21.8460   30.9800 C.ar   36  TRP36       0.0152
      9  NE1        7.3620   21.5330   29.0000 N.ar   36  TRP36      -0.2442
     10  CE2        7.1480   21.7240   30.3430 C.ar   36  TRP36       0.0810
     11  CE3        8.4560   21.9820   32.3580 C.ar   36  TRP36       0.0012
     12  CZ2        5.9480   21.7810   31.0400 C.ar   36  TRP36       0.0191
     13  CZ3        7.2380   22.0170   33.0610 C.ar   36  TRP36       0.0001
     14  CH2        6.0160   21.9130   32.4010 C.ar   36  TRP36       0.0015
     15  N         10.1780   21.3140   37.3040 N.3    79  MET79      -0.1245
     16  CA         9.2320   22.4610   37.4560 C.3    79  MET79       0.1570
     17  C          9.8470   23.6100   38.2790 C.2    79  MET79       0.2261
     18  O          9.4070   24.7820   38.1820 O.2    79  MET79      -0.2867
     19  CB         7.8490   21.9570   38.0000 C.3    79  MET79       0.0387
     20  CG         6.9700   21.4570   36.8240 C.3    79  MET79       0.0595
     21  SD         5.6880   20.3860   37.3380 S.3    79  MET79      -0.1393
     22  CE         5.4080   19.4300   35.7870 C.3    79  MET79       0.0692
     23  N          6.1350    8.4560   33.6120 N.3   133  GLY133     -0.1210
     24  CA         5.1870    9.5150   33.4550 C.3   133  GLY133      0.1956
     25  C          4.4830    9.5090   32.0740 C.2   133  GLY133      0.2612
     26  O          4.8230    8.7360   31.2120 O.2   133  GLY133     -0.2717
     27  N          3.5570   10.4120   31.8590 N.am  134  VAL134     -0.1965
     28  CA         2.6960   10.3330   30.6560 C.3   134  VAL134      0.1727
     29  C          3.1840   11.2390   29.5000 C.2   134  VAL134      0.2616
     30  O          2.5700   11.1640   28.4300 O.2   134  VAL134     -0.2715
     31  CB         1.2280   10.8090   31.0310 C.3   134  VAL134      0.0290
     32  CG1        0.6380    9.9100   32.1390 C.3   134  VAL134      0.0023
     33  CG2        1.3080   12.2950   31.4990 C.3   134  VAL134      0.0023
     34  N          4.2900   12.0560   29.6350 N.am  135  VAL135     -0.1977
     35  CA         4.7540   12.8580   28.4900 C.3   135  VAL135      0.1596
     36  C          6.1400   12.3530   28.0380 C.2   135  VAL135      0.2287
     37  O          7.0270   12.3200   28.8880 O.2   135  VAL135     -0.2864
     38  CB         4.8210   14.3740   28.8230 C.3   135  VAL135      0.0276
     39  CG1        5.4500   15.1260   27.5990 C.3   135  VAL135      0.0022
     40  CG2        3.3650   14.8750   28.9900 C.3   135  VAL135      0.0022
     41  N          4.9600    8.5220   38.5430 N.3   149  PHE149     -0.1227
     42  CA         3.6630    7.8220   38.3350 C.3   149  PHE149      0.1736
     43  C          3.0840    8.0910   36.9400 C.2   149  PHE149      0.2596
     44  O          3.3730    9.0980   36.3090 O.2   149  PHE149     -0.2718
     45  CB         2.6680    8.1320   39.4310 C.3   149  PHE149      0.0547
     46  CG         2.5280    9.6030   39.7780 C.ar  149  PHE149     -0.0202
     47  CD1        1.8710   10.5010   38.9460 C.ar  149  PHE149     -0.0042
     48  CD2        2.9880   10.0420   41.0250 C.ar  149  PHE149     -0.0042
     49  CE1        1.7370   11.8770   39.3380 C.ar  149  PHE149     -0.0003
     50  CE2        2.8440   11.3650   41.4330 C.ar  149  PHE149     -0.0003
     51  CZ         2.2110   12.2640   40.5900 C.ar  149  PHE149     -0.0000
     52  N          2.3030    7.1710   36.4020 N.am  150  GLY150     -0.1942
     53  CA         1.6490    7.4650   35.1450 C.3   150  GLY150      0.2014
     54  C          0.6030    6.3930   34.9400 C.2   150  GLY150      0.2638
     55  O          0.0510    5.8280   35.9440 O.2   150  GLY150     -0.2714
     56  N          0.3260    6.1080   33.6770 N.am  151  TRP151     -0.1973
     57  CA        -0.7890    5.1830   33.3680 C.3   151  TRP151      0.1640
     58  C         -0.7110    3.7960   33.9780 C.2   151  TRP151      0.2290
     59  O         -1.7690    3.2380   34.2670 O.2   151  TRP151     -0.2864
     60  CB        -0.9480    5.0080   31.8070 C.3   151  TRP151      0.0576
     61  CG        -1.1650    6.2880   31.1170 C.ar  151  TRP151      0.0006
     62  CD1       -0.3380    6.8800   30.1670 C.ar  151  TRP151      0.0946
     63  CD2       -2.3130    7.1210   31.2150 C.ar  151  TRP151      0.0152
     64  NE1       -0.9060    8.0510   29.7070 N.ar  151  TRP151     -0.2442
     65  CE2       -2.1030    8.2290   30.3440 C.ar  151  TRP151      0.0810
     66  CE3       -3.4640    7.0960   32.0210 C.ar  151  TRP151      0.0012
     67  CZ2       -3.0290    9.3330   30.2540 C.ar  151  TRP151      0.0191
     68  CZ3       -4.4290    8.1780   31.8850 C.ar  151  TRP151      0.0001
     69  CH2       -4.1860    9.2760   31.0280 C.ar  151  TRP151      0.0015
     70  N         -7.4830    3.4290   35.0210 N.3   244  THR244     -0.1218
     71  CA        -6.9390    4.7340   35.4060 C.3   244  THR244      0.1862
     72  C         -7.8300    5.7970   34.7280 C.2   244  THR244      0.2287
     73  O         -8.2310    5.6070   33.5750 O.2   244  THR244     -0.2866
     74  CB        -5.4360    4.8300   35.0010 C.3   244  THR244      0.1770
     75  OG1       -4.7560    3.9370   35.8440 O.3   244  THR244     -0.2211
     76  CG2       -4.8870    6.2010   35.2670 C.3   244  THR244      0.0375
     77  N         -8.3180   10.1140   34.7470 N.3   246  ALA246     -0.1245
     78  CA        -7.7640   11.4450   35.2290 C.3   246  ALA246      0.1562
     79  C         -8.6180   12.5400   34.6110 C.2   246  ALA246      0.2260
     80  O         -9.1340   12.3710   33.4650 O.2   246  ALA246     -0.2867
     81  CB        -6.2780   11.6390   34.7500 C.3   246  ALA246      0.0290
     82  N         -8.8110   16.7390   33.5300 N.3   248  TYR248     -0.1241
     83  CA        -7.9860   17.9400   33.2670 C.3   248  TYR248      0.1605
     84  C         -8.9660   19.0650   32.9760 C.2   248  TYR248      0.2264
     85  O         -9.7130   19.0380   32.0020 O.2   248  TYR248     -0.2867
     86  CB        -7.0720   17.6720   32.0700 C.3   248  TYR248      0.0534
     87  CG        -6.0900   16.5440   32.3030 C.ar  248  TYR248     -0.0201
     88  CD1       -4.8440   16.7750   32.8440 C.ar  248  TYR248     -0.0009
     89  CD2       -6.4270   15.2090   31.9680 C.ar  248  TYR248     -0.0009
     90  CE1       -3.9220   15.7100   33.0300 C.ar  248  TYR248      0.0417
     91  CE2       -5.5740   14.1790   32.1770 C.ar  248  TYR248      0.0417
     92  CZ        -4.2980   14.4460   32.7080 C.ar  248  TYR248      0.1957
     93  OH        -3.4240   13.4050   32.8770 O.3   248  TYR248     -0.2866
     94  N          0.0830   15.3790   25.0400 N.3   312  PHE312     -0.1241
     95  CA        -1.3510   15.7140   24.7330 C.3   312  PHE312      0.1605
     96  C         -1.2750   16.2720   23.2580 C.2   312  PHE312      0.2264
     97  O         -0.2580   16.8880   22.8740 O.2   312  PHE312     -0.2867
     98  CB        -1.8450   16.8460   25.6890 C.3   312  PHE312      0.0534
     99  CG        -1.7000   16.5430   27.2040 C.ar  312  PHE312     -0.0203
    100  CD1       -2.7580   15.8930   27.9290 C.ar  312  PHE312     -0.0042
    101  CD2       -0.5370   16.8770   27.9380 C.ar  312  PHE312     -0.0042
    102  CE1       -2.6430   15.5940   29.3010 C.ar  312  PHE312     -0.0003
    103  CE2       -0.4160   16.5390   29.3050 C.ar  312  PHE312     -0.0003
    104  CZ        -1.4710   15.9020   29.9850 C.ar  312  PHE312     -0.0000
    105  N          3.6730   25.8470   38.5190 N.3   323  THR323     -0.1218
    106  CA         2.7900   24.8030   39.1240 C.3   323  THR323      0.1862
    107  C          2.6250   24.9360   40.6120 C.2   323  THR323      0.2287
    108  O          3.5960   25.2520   41.3480 O.2   323  THR323     -0.2866
    109  CB         3.3090   23.3780   38.8550 C.3   323  THR323      0.1770
    110  OG1        4.6260   23.3120   39.4350 O.3   323  THR323     -0.2211
    111  CG2        3.4650   23.1830   37.3500 C.3   323  THR323      0.0375
    112  N         -3.9200   24.0210   32.8410 N.3   352  GLN352     -0.1245
    113  CA        -4.8200   22.9330   33.2490 C.3   352  GLN352      0.1566
    114  C         -4.8510   22.9070   34.7590 C.2   352  GLN352      0.2260
    115  O         -3.8420   23.1520   35.3750 O.2   352  GLN352     -0.2867
    116  CB        -4.2830   21.5730   32.8370 C.3   352  GLN352      0.0367
    117  CG        -3.9520   21.4330   31.3840 C.3   352  GLN352      0.0905
    118  CD        -3.8160   19.9900   30.9750 C.2   352  GLN352      0.2608
    119  OE1       -2.9700   19.2400   31.4850 O.2   352  GLN352     -0.2717
    120  NE2       -4.6360   19.5950   30.0390 N.am  352  GLN352     -0.0878
    121  N         -5.3300   19.8880   37.0690 N.3   354  GLU354     -0.1245
    122  CA        -5.4070   18.4360   36.8900 C.3   354  GLU354      0.1567
    123  C         -5.9310   17.7890   38.1810 C.2   354  GLU354      0.2260
    124  O         -5.5740   18.2350   39.3000 O.2   354  GLU354     -0.2867
    125  CB        -4.0110   17.9440   36.6330 C.3   354  GLU354      0.0388
    126  CG        -3.3520   18.6990   35.5050 C.3   354  GLU354      0.1160
    127  CD        -1.8700   18.3220   35.2920 C.2   354  GLU354      0.3649
    128  OE1       -1.2940   17.5680   36.1320 O.co2 354  GLU354     -0.2457
    129  OE2       -1.3080   18.8190   34.2550 O.co2 354  GLU354     -0.2457
    130  N         -5.8830   13.9520   39.6480 N.3   356  LEU356     -0.1231
    131  CA        -5.4090   12.6010   39.5050 C.3   356  LEU356      0.1693
    132  C         -5.8690   11.7310   40.6350 C.2   356  LEU356      0.2592
    133  O         -6.0450   12.1920   41.7400 O.2   356  LEU356     -0.2718
    134  CB        -3.8380   12.5700   39.3670 C.3   356  LEU356      0.0284
    135  CG        -3.3440   13.7120   38.4170 C.3   356  LEU356      0.0019
    136  CD1       -1.8100   13.6420   38.5100 C.3   356  LEU356      0.0001
    137  CD2       -3.7890   13.5010   36.9830 C.3   356  LEU356      0.0001
    138  N         -6.0630   10.4360   40.3460 N.am  357  TYR357     -0.1962
    139  CA        -6.3860    9.4780   41.4370 C.3   357  TYR357      0.1771
    140  C         -5.2970    8.3600   41.3210 C.2   357  TYR357      0.2619
    141  O         -5.2380    7.6730   40.2720 O.2   357  TYR357     -0.2715
    142  CB        -7.7940    8.9040   41.2360 C.3   357  TYR357      0.0574
    143  CG        -8.2580    8.1630   42.4140 C.ar  357  TYR357     -0.0198
    144  CD1       -9.0510    8.7840   43.3290 C.ar  357  TYR357     -0.0009
    145  CD2       -7.8950    6.8310   42.6290 C.ar  357  TYR357     -0.0009
    146  CE1       -9.4830    8.1300   44.4930 C.ar  357  TYR357      0.0417
    147  CE2       -8.2760    6.1790   43.7750 C.ar  357  TYR357      0.0417
    148  CZ        -9.1090    6.8290   44.6910 C.ar  357  TYR357      0.1957
    149  OH        -9.5010    6.2240   45.8340 O.3   357  TYR357     -0.2866
    150  N         -4.4610    8.2200   42.3580 N.am  358  LEU358     -0.1977
    151  CA        -3.4160    7.1980   42.3910 C.3   358  LEU358      0.1596
    152  C         -3.9680    5.9690   43.1660 C.2   358  LEU358      0.2287
    153  O         -4.8860    5.3090   42.6470 O.2   358  LEU358     -0.2864
    154  CB        -2.1270    7.8100   42.9740 C.3   358  LEU358      0.0297
    155  CG        -1.4980    8.8610   42.0590 C.3   358  LEU358      0.0022
    156  CD1       -0.3100    9.4290   42.8350 C.3   358  LEU358      0.0001
    157  CD2       -0.9880    8.2000   40.7530 C.3   358  LEU358      0.0001
    158  N         -3.1050   19.5140   40.6460 N.3   382  ASN382     -0.1240
    159  CA        -1.9630   20.3230   40.1660 C.3   382  ASN382      0.1653
    160  C         -2.5830   21.4800   39.4150 C.2   382  ASN382      0.2266
    161  O         -3.2510   21.2200   38.3880 O.2   382  ASN382     -0.2867
    162  CB        -1.1090   19.4470   39.2040 C.3   382  ASN382      0.1155
    163  CG         0.2770   20.0780   38.8910 C.2   382  ASN382      0.2627
    164  OD1        0.6890   21.0560   39.5490 O.2   382  ASN382     -0.2716
    165  ND2        0.9920   19.5320   37.8730 N.am  382  ASN382     -0.0877
    166  N         -1.6400   23.7750   37.0130 N.3   384  ALA384     -0.1245
    167  CA        -0.4450   23.8380   36.1510 C.3   384  ALA384      0.1562
    168  C         -0.6390   24.9720   35.1620 C.2   384  ALA384      0.2260
    169  O         -1.2230   24.7940   34.0460 O.2   384  ALA384     -0.2867
    170  CB        -0.2010   22.5010   35.4790 C.3   384  ALA384      0.0290
    171  N          6.5380   18.0560   41.4320 N.3   418  PHE418     -0.1241
    172  CA         5.7000   19.1380   40.9530 C.3   418  PHE418      0.1605
    173  C          5.9650   20.4510   41.6310 C.2   418  PHE418      0.2264
    174  O          5.1800   21.3810   41.4460 O.2   418  PHE418     -0.2867
    175  CB         4.1720   18.8250   41.1160 C.3   418  PHE418      0.0534
    176  CG         3.6800   17.6720   40.2660 C.ar  418  PHE418     -0.0203
    177  CD1        4.3540   17.2440   39.1400 C.ar  418  PHE418     -0.0042
    178  CD2        2.4420   17.0920   40.5830 C.ar  418  PHE418     -0.0042
    179  CE1        3.8600   16.1700   38.3330 C.ar  418  PHE418     -0.0003
    180  CE2        1.9370   16.0420   39.8110 C.ar  418  PHE418     -0.0003
    181  CZ         2.6710   15.5540   38.6910 C.ar  418  PHE418     -0.0000
@<TRIPOS>BOND
     1    97    96    2
     2    96    95    1
     3    95    94    1
     4    95    98    1
     5    98    99    1
     6    99   100   ar
     7    99   101   ar
     8    39    38    1
     9   100   102   ar
    10   101   103   ar
    11    36    35    1
    12    36    37    2
    13    30    29    2
    14    35    38    1
    15    35    34    1
    16     7     9   ar
    17     7     6   ar
    18    38    40    1
    19     9    10   ar
    20   102   104   ar
    21   103   104   ar
    22    29    34   am
    23    29    28    1
    24     4     3    2
    25    64    62   ar
    26    64    65   ar
    27     2     1    1
    28     2     5    1
    29     2     3    1
    30     6     5    1
    31     6     8   ar
    32   120   118   am
    33    62    61   ar
    34    67    65   ar
    35    67    69   ar
    36    10     8   ar
    37    10    12   ar
    38    65    63   ar
    39    28    31    1
    40    28    27    1
    41   118   117    1
    42   118   119    2
    43     8    11   ar
    44    69    68   ar
    45    31    33    1
    46    31    32    1
    47    12    14   ar
    48    61    63   ar
    49    61    60    1
    50    26    25    2
    51    63    66   ar
    52   117   116    1
    53    60    57    1
    54    27    25   am
    55    68    66   ar
    56    89    91   ar
    57    89    87   ar
    58    85    84    2
    59    86    87    1
    60    86    83    1
    61    25    24    1
    62    91    92   ar
    63    87    88   ar
    64    11    13   ar
    65    14    13   ar
    66    92    93    1
    67    92    90   ar
    68   116   113    1
    69   112   113    1
    70    88    90   ar
    71    84    83    1
    72   113   114    1
    73    83    82    1
    74    57    56    1
    75    57    58    1
    76    24    23    1
    77    80    79    2
    78    73    72    2
    79    56    54   am
    80    58    59    2
    81   169   168    2
    82   129   127   ar
    83    79    78    1
    84    72    71    1
    85    77    78    1
    86    81    78    1
    87   114   115    2
    88    54    53    1
    89    54    55    2
    90    74    76    1
    91    74    71    1
    92    74    75    1
    93    70    71    1
    94    53    52    1
    95   168   167    1
    96   127   126    1
    97   127   128   ar
    98   170   167    1
    99   126   125    1
   100    22    21    1
   101   167   166    1
   102    44    43    2
   103    52    43   am
   104   125   122    1
   105    20    21    1
   106    20    19    1
   107   122   121    1
   108   122   123    1
   109    43    42    1
   110   137   135    1
   111    15    16    1
   112   111   109    1
   113    16    19    1
   114    16    17    1
   115   165   163   am
   116   123   124    2
   117    18    17    2
   118   179   181   ar
   119   179   177   ar
   120    42    41    1
   121    42    45    1
   122   161   160    2
   123   135   136    1
   124   135   134    1
   125   105   106    1
   126   181   180   ar
   127   109   106    1
   128   109   110    1
   129   163   162    1
   130   163   164    2
   131    47    49   ar
   132    47    46   ar
   133   106   107    1
   134   177   176   ar
   135   162   159    1
   136    49    51   ar
   137   134   131    1
   138   160   159    1
   139    45    46    1
   140   131   130    1
   141   131   132    1
   142    46    48   ar
   143   180   178   ar
   144   159   158    1
   145   176   178   ar
   146   176   175    1
   147   141   140    2
   148   138   132   am
   149   138   139    1
   150    51    50   ar
   151   107   108    2
   152   132   133    2
   153   157   155    1
   154   172   175    1
   155   172   171    1
   156   172   173    1
   157    48    50   ar
   158   142   139    1
   159   142   143    1
   160   140   139    1
   161   140   150   am
   162   174   173    2
   163   155   156    1
   164   155   154    1
   165   150   151    1
   166   151   154    1
   167   151   152    1
   168   143   145   ar
   169   143   144   ar
   170   145   147   ar
   171   153   152    2
   172   144   146   ar
   173   147   148   ar
   174   146   148   ar
   175   148   149    1
