@<TRIPOS>MOLECULE
tmp/3w9bA00.pdb
 115 103 0 0 0
SMALL
GASTEIGER

@<TRIPOS>ATOM
      1  N         20.4020   28.9430   -6.3140 N.3    40  THR40      -0.1218
      2  CA        21.5520   28.2000   -6.7820 C.3    40  THR40       0.1862
      3  C         22.6450   28.2930   -5.7300 C.2    40  THR40       0.2287
      4  O         22.9960   29.3990   -5.2940 O.2    40  THR40      -0.2866
      5  CB        22.0550   28.7510   -8.1270 C.3    40  THR40       0.1770
      6  OG1       20.9680   28.7680   -9.0650 O.3    40  THR40      -0.2211
      7  CG2       23.1770   27.9010   -8.6820 C.3    40  THR40       0.0375
      8  N         15.7210   33.0960   -6.8730 N.3   105  SER105     -0.1217
      9  CA        16.6320   32.7830   -7.9790 C.3   105  SER105      0.1889
     10  C         16.1320   31.5940   -8.8130 C.2   105  SER105      0.2288
     11  O         15.0210   31.6320   -9.3490 O.2   105  SER105     -0.2866
     12  CB        18.0410   32.5390   -7.4340 C.3   105  SER105      0.2089
     13  OG        18.9830   32.3820   -8.4830 O.3   105  SER105     -0.2183
     14  N         14.8430   33.6520  -12.7970 N.3   134  ASP134     -0.1239
     15  CA        15.6000   33.7700  -14.0410 C.3   134  ASP134      0.1674
     16  C         14.9990   32.8930  -15.1340 C.2   134  ASP134      0.2266
     17  O         15.6490   31.9710  -15.6280 O.2   134  ASP134     -0.2867
     18  CB        17.0850   33.4380  -13.7970 C.3   134  ASP134      0.1410
     19  CG        17.2960   32.0700  -13.1370 C.2   134  ASP134      0.3668
     20  OD1       16.4040   31.5690  -12.4150 O.co2 134  ASP134     -0.2456
     21  OD2       18.3790   31.4930  -13.3530 O.co2 134  ASP134     -0.2456
     22  N         20.4230   33.9240  -17.5660 N.3   138  THR138     -0.1218
     23  CA        21.2220   35.1290  -17.4090 C.3   138  THR138      0.1862
     24  C         22.4080   35.0690  -18.3460 C.2   138  THR138      0.2287
     25  O         23.0090   34.0190  -18.5440 O.2   138  THR138     -0.2866
     26  CB        21.7210   35.3200  -15.9560 C.3   138  THR138      0.1770
     27  OG1       22.5400   36.4980  -15.8770 O.3   138  THR138     -0.2211
     28  CG2       22.5320   34.1150  -15.4860 C.3   138  THR138      0.0375
     29  N         25.0040   36.5250  -17.6650 N.3   140  LEU140     -0.1231
     30  CA        26.1400   36.6930  -16.7640 C.3   140  LEU140      0.1693
     31  C         26.8150   35.3830  -16.4020 C.2   140  LEU140      0.2591
     32  O         27.8410   35.3720  -15.7130 O.2   140  LEU140     -0.2718
     33  CB        25.7300   37.4740  -15.4980 C.3   140  LEU140      0.0284
     34  CG        25.4350   38.9740  -15.6980 C.3   140  LEU140      0.0019
     35  CD1       24.8120   39.5700  -14.4570 C.3   140  LEU140      0.0001
     36  CD2       26.6850   39.7400  -16.0900 C.3   140  LEU140      0.0001
     37  N         26.2440   34.2820  -16.8810 N.am  141  ALA141     -0.1980
     38  CA        26.8270   32.9570  -16.7000 C.3   141  ALA141      0.1597
     39  C         27.8800   32.6660  -17.7780 C.2   141  ALA141      0.2287
     40  O         28.6150   31.6680  -17.6940 O.2   141  ALA141     -0.2864
     41  CB        25.7340   31.8960  -16.7240 C.3   141  ALA141      0.0319
     42  N         31.6290   31.9620  -16.8220 N.3   144  LEU144     -0.1245
     43  CA        31.6790   30.6710  -16.1330 C.3   144  LEU144      0.1561
     44  C         31.6160   29.5130  -17.1520 C.2   144  LEU144      0.2260
     45  O         32.4080   28.5630  -17.0750 O.2   144  LEU144     -0.2867
     46  CB        30.5150   30.5500  -15.1490 C.3   144  LEU144      0.0270
     47  CG        30.6950   30.2450  -13.6590 C.3   144  LEU144      0.0019
     48  CD1       32.0850   29.7010  -13.3700 C.3   144  LEU144      0.0001
     49  CD2       30.4120   31.4600  -12.7900 C.3   144  LEU144      0.0001
     50  N         23.9380   25.8060  -13.5980 N.3   154  VAL154     -0.1245
     51  CA        24.4980   27.0550  -14.0820 C.3   154  VAL154      0.1561
     52  C         24.4790   27.0730  -15.6080 C.2   154  VAL154      0.2260
     53  O         24.1870   28.1040  -16.2170 O.2   154  VAL154     -0.2867
     54  CB        25.9150   27.3120  -13.5450 C.3   154  VAL154      0.0252
     55  CG1       26.4990   28.5900  -14.1500 C.3   154  VAL154      0.0019
     56  CG2       25.9010   27.4090  -12.0210 C.3   154  VAL154      0.0019
     57  N         20.9380   27.7490  -16.5940 N.3   157  GLN157     -0.1245
     58  CA        20.4930   29.1080  -16.2880 C.3   157  GLN157      0.1566
     59  C         21.2120   30.1680  -17.1410 C.2   157  GLN157      0.2260
     60  O         21.1660   31.3530  -16.8410 O.2   157  GLN157     -0.2867
     61  CB        20.6970   29.4160  -14.7920 C.3   157  GLN157      0.0367
     62  CG        19.8480   28.5780  -13.8510 C.3   157  GLN157      0.0905
     63  CD        20.2130   28.8110  -12.4090 C.2   157  GLN157      0.2608
     64  OE1       21.0510   28.1060  -11.8420 O.2   157  GLN157     -0.2717
     65  NE2       19.5930   29.8130  -11.8030 N.am  157  GLN157     -0.0878
     66  N         23.1640   41.6860  -10.0620 N.3   188  GLU188     -0.1231
     67  CA        24.5270   41.3950  -10.5210 C.3   188  GLU188      0.1699
     68  C         24.7190   39.9280  -10.9250 C.2   188  GLU188      0.2592
     69  O         25.8030   39.5300  -11.3450 O.2   188  GLU188     -0.2718
     70  CB        25.5370   41.7840   -9.4290 C.3   188  GLU188      0.0402
     71  CG        25.7340   40.7650   -8.3060 C.3   188  GLU188      0.1161
     72  CD        24.5880   40.7160   -7.3110 C.2   188  GLU188      0.3649
     73  OE1       23.4120   40.9040   -7.7080 O.co2 188  GLU188     -0.2457
     74  OE2       24.8720   40.4720   -6.1180 O.co2 188  GLU188     -0.2457
     75  N         23.6560   39.1390  -10.7690 N.am  189  ILE189     -0.1966
     76  CA        23.6430   37.7070  -11.0680 C.3   189  ILE189      0.1727
     77  C         22.7940   37.4460  -12.3180 C.2   189  ILE189      0.2616
     78  O         23.2220   36.7380  -13.2370 O.2   189  ILE189     -0.2715
     79  CB        23.0530   36.8970   -9.8880 C.3   189  ILE189      0.0290
     80  CG1       23.8030   37.1940   -8.5730 C.3   189  ILE189      0.0022
     81  CG2       22.9990   35.4040  -10.2010 C.3   189  ILE189      0.0023
     82  CD1       25.1130   36.4700   -8.3710 C.3   189  ILE189      0.0001
     83  N         21.5980   38.0360  -12.3480 N.am  190  VAL190     -0.1977
     84  CA        20.6540   37.8620  -13.4470 C.3   190  VAL190      0.1596
     85  C         20.5010   39.1480  -14.2730 C.2   190  VAL190      0.2287
     86  O         20.2130   40.2080  -13.7330 O.2   190  VAL190     -0.2864
     87  CB        19.2710   37.4090  -12.9390 C.3   190  VAL190      0.0276
     88  CG1       18.3080   37.1820  -14.0970 C.3   190  VAL190      0.0022
     89  CG2       19.3980   36.1430  -12.1150 C.3   190  VAL190      0.0022
     90  N         24.7530   35.5860   -0.0980 N.3   278  LEU278     -0.1231
     91  CA        25.4890   35.1380   -1.2820 C.3   278  LEU278      0.1693
     92  C         26.8120   34.4190   -1.0040 C.2   278  LEU278      0.2591
     93  O         27.2970   33.6860   -1.8550 O.2   278  LEU278     -0.2718
     94  CB        25.7700   36.3340   -2.1940 C.3   278  LEU278      0.0284
     95  CG        25.1100   36.4290   -3.5630 C.3   278  LEU278      0.0019
     96  CD1       23.6540   36.0090   -3.5490 C.3   278  LEU278      0.0001
     97  CD2       25.2560   37.8520   -4.0800 C.3   278  LEU278      0.0001
     98  N         27.4010   34.6350    0.1670 N.am  279  ALA279     -0.1980
     99  CA        28.7340   34.1090    0.4530 C.3   279  ALA279      0.1597
    100  C         28.7890   32.5660    0.5610 C.2   279  ALA279      0.2287
    101  O         29.6380   31.9270   -0.0760 O.2   279  ALA279     -0.2864
    102  CB        29.3310   34.7820    1.6920 C.3   279  ALA279      0.0319
    103  N         28.2910   31.1880   -2.9570 N.3   282  ALA282     -0.1245
    104  CA        29.4870   31.3190   -3.7780 C.3   282  ALA282      0.1562
    105  C         30.4820   30.2080   -3.4590 C.2   282  ALA282      0.2260
    106  O         31.0620   29.5990   -4.3600 O.2   282  ALA282     -0.2867
    107  CB        30.1160   32.6880   -3.5710 C.3   282  ALA282      0.0290
    108  N         29.4220   26.8570   -4.9350 N.3   285  ILE285     -0.1245
    109  CA        29.6060   26.8030   -6.3760 C.3   285  ILE285      0.1561
    110  C         31.0670   26.4950   -6.7140 C.2   285  ILE285      0.2260
    111  O         31.3580   25.6280   -7.5470 O.2   285  ILE285     -0.2867
    112  CB        29.1000   28.1070   -7.0520 C.3   285  ILE285      0.0252
    113  CG1       27.5770   28.1620   -6.9730 C.3   285  ILE285      0.0019
    114  CG2       29.5460   28.1830   -8.5050 C.3   285  ILE285      0.0019
    115  CD1       26.9490   29.4720   -7.4030 C.3   285  ILE285      0.0001
@<TRIPOS>BOND
     1    25    24    2
     2    24    23    1
     3    39    40    2
     4    39    38    1
     5    29    30    1
     6    22    23    1
     7    23    26    1
     8    44    45    2
     9    44    43    1
    10    59    60    2
    11    59    58    1
    12    37    38    1
    13    37    31   am
    14    42    43    1
    15    30    31    1
    16    30    33    1
    17    41    38    1
    18    57    58    1
    19    31    32    2
    20    58    61    1
    21    53    52    2
    22    43    46    1
    23    36    34    1
    24    26    27    1
    25    26    28    1
    26    34    33    1
    27    34    35    1
    28    17    16    2
    29    52    51    1
    30    46    47    1
    31    16    15    1
    32    61    62    1
    33    85    86    2
    34    85    84    1
    35    55    54    1
    36    88    87    1
    37    51    50    1
    38    51    54    1
    39    15    18    1
    40    15    14    1
    41    62    63    1
    42    18    19    1
    43    47    48    1
    44    47    49    1
    45    54    56    1
    46    84    87    1
    47    84    83    1
    48    21    19   ar
    49    78    77    2
    50    19    20   ar
    51    87    89    1
    52    63    64    2
    53    63    65   am
    54    83    77   am
    55    77    76    1
    56    69    68    2
    57    76    75    1
    58    76    79    1
    59    68    75   am
    60    68    67    1
    61    67    66    1
    62    67    70    1
    63    81    79    1
    64    79    80    1
    65    70    71    1
    66    11    10    2
    67     6     5    1
    68    10     9    1
    69     7     5    1
    70    80    82    1
    71   114   112    1
    72    13    12    1
    73    71    72    1
    74     5     2    1
    75     9    12    1
    76     9     8    1
    77    73    72   ar
    78   111   110    2
    79   115   113    1
    80    72    74   ar
    81   112   113    1
    82   112   109    1
    83     2     1    1
    84     2     3    1
    85   110   109    1
    86   109   108    1
    87     3     4    2
    88   106   105    2
    89    97    95    1
    90   104   107    1
    91   104   105    1
    92   104   103    1
    93    95    96    1
    94    95    94    1
    95    94    91    1
    96    93    92    2
    97    91    92    1
    98    91    90    1
    99    92    98   am
   100   101   100    2
   101    98    99    1
   102    99   100    1
   103    99   102    1
