@<TRIPOS>MOLECULE
tmp/3w9bA01.pdb
 86 81 0 0 0
SMALL
GASTEIGER

@<TRIPOS>ATOM
      1  N         20.4020   28.9430   -6.3140 N.3    40  THR40      -0.1218
      2  CA        21.5520   28.2000   -6.7820 C.3    40  THR40       0.1862
      3  C         22.6450   28.2930   -5.7300 C.2    40  THR40       0.2287
      4  O         22.9960   29.3990   -5.2940 O.2    40  THR40      -0.2866
      5  CB        22.0550   28.7510   -8.1270 C.3    40  THR40       0.1770
      6  OG1       20.9680   28.7680   -9.0650 O.3    40  THR40      -0.2211
      7  CG2       23.1770   27.9010   -8.6820 C.3    40  THR40       0.0375
      8  N         13.3680   31.7610   -4.5580 N.3   104  TRP104     -0.1227
      9  CA        14.4800   32.6690   -4.8490 C.3   104  TRP104      0.1737
     10  C         15.2710   32.1680   -6.0210 C.2   104  TRP104      0.2596
     11  O         15.4770   30.9520   -6.1580 O.2   104  TRP104     -0.2718
     12  CB        15.3980   32.8250   -3.6340 C.3   104  TRP104      0.0564
     13  CG        16.5170   33.8010   -3.8490 C.ar  104  TRP104      0.0003
     14  CD1       16.4400   35.0480   -4.4350 C.ar  104  TRP104      0.0946
     15  CD2       17.9240   33.6500   -3.4800 C.ar  104  TRP104      0.0152
     16  NE1       17.6640   35.6630   -4.4560 N.ar  104  TRP104     -0.2442
     17  CE2       18.5960   34.8760   -3.9030 C.ar  104  TRP104      0.0810
     18  CE3       18.6640   32.6660   -2.8720 C.ar  104  TRP104      0.0012
     19  CZ2       19.9520   35.0760   -3.7030 C.ar  104  TRP104      0.0191
     20  CZ3       20.0280   32.8840   -2.6760 C.ar  104  TRP104      0.0001
     21  CH2       20.6520   34.0580   -3.0840 C.ar  104  TRP104      0.0015
     22  N         15.7210   33.0960   -6.8730 N.am  105  SER105     -0.1952
     23  CA        16.6320   32.7830   -7.9790 C.3   105  SER105      0.1924
     24  C         16.1320   31.5940   -8.8130 C.2   105  SER105      0.2314
     25  O         15.0210   31.6320   -9.3490 O.2   105  SER105     -0.2863
     26  CB        18.0410   32.5390   -7.4340 C.3   105  SER105      0.2116
     27  OG        18.9830   32.3820   -8.4830 O.3   105  SER105     -0.2180
     28  N         31.6290   31.9620  -16.8220 N.3   144  LEU144     -0.1245
     29  CA        31.6790   30.6710  -16.1330 C.3   144  LEU144      0.1561
     30  C         31.6160   29.5130  -17.1520 C.2   144  LEU144      0.2260
     31  O         32.4080   28.5630  -17.0750 O.2   144  LEU144     -0.2867
     32  CB        30.5150   30.5500  -15.1490 C.3   144  LEU144      0.0270
     33  CG        30.6950   30.2450  -13.6590 C.3   144  LEU144      0.0019
     34  CD1       32.0850   29.7010  -13.3700 C.3   144  LEU144      0.0001
     35  CD2       30.4120   31.4600  -12.7900 C.3   144  LEU144      0.0001
     36  N         23.6560   39.1390  -10.7690 N.3   189  ILE189     -0.1245
     37  CA        23.6430   37.7070  -11.0680 C.3   189  ILE189      0.1561
     38  C         22.7940   37.4460  -12.3180 C.2   189  ILE189      0.2260
     39  O         23.2220   36.7380  -13.2370 O.2   189  ILE189     -0.2867
     40  CB        23.0530   36.8970   -9.8880 C.3   189  ILE189      0.0252
     41  CG1       23.8030   37.1940   -8.5730 C.3   189  ILE189      0.0019
     42  CG2       22.9990   35.4040  -10.2010 C.3   189  ILE189      0.0019
     43  CD1       25.1130   36.4700   -8.3710 C.3   189  ILE189      0.0001
     44  N         20.9280   40.8690   -6.3080 N.3   224  HIS224     -0.1241
     45  CA        20.2260   39.5960   -6.4260 C.3   224  HIS224      0.1621
     46  C         19.7480   39.0720   -5.1070 C.2   224  HIS224      0.2264
     47  O         18.6510   38.5160   -5.0120 O.2   224  HIS224     -0.2867
     48  CB        21.1290   38.5730   -7.0910 C.3   224  HIS224      0.0745
     49  CG        20.4150   37.3340   -7.5610 C.ar  224  HIS224      0.0817
     50  ND1       19.4040   37.3670   -8.4460 N.ar  224  HIS224     -0.2268
     51  CD2       20.6200   36.0030   -7.2560 C.ar  224  HIS224      0.1154
     52  CE1       18.9700   36.1220   -8.6730 C.ar  224  HIS224      0.1986
     53  NE2       19.7160   35.2880   -7.9480 N.ar  224  HIS224     -0.2212
     54  N         24.7530   35.5860   -0.0980 N.3   278  LEU278     -0.1245
     55  CA        25.4890   35.1380   -1.2820 C.3   278  LEU278      0.1561
     56  C         26.8120   34.4190   -1.0040 C.2   278  LEU278      0.2260
     57  O         27.2970   33.6860   -1.8550 O.2   278  LEU278     -0.2867
     58  CB        25.7700   36.3340   -2.1940 C.3   278  LEU278      0.0270
     59  CG        25.1100   36.4290   -3.5630 C.3   278  LEU278      0.0019
     60  CD1       23.6540   36.0090   -3.5490 C.3   278  LEU278      0.0001
     61  CD2       25.2560   37.8520   -4.0800 C.3   278  LEU278      0.0001
     62  N         26.6310   30.6070   -0.7480 N.3   281  ALA281     -0.1231
     63  CA        26.2600   30.1780   -2.0910 C.3   281  ALA281      0.1694
     64  C         27.4930   30.1230   -3.0040 C.2   281  ALA281      0.2591
     65  O         27.7140   29.1290   -3.7180 O.2   281  ALA281     -0.2718
     66  CB        25.2030   31.1040   -2.6710 C.3   281  ALA281      0.0304
     67  N         28.2910   31.1880   -2.9570 N.am  282  ALA282     -0.1980
     68  CA        29.4870   31.3190   -3.7780 C.3   282  ALA282      0.1597
     69  C         30.4820   30.2080   -3.4590 C.2   282  ALA282      0.2287
     70  O         31.0620   29.5990   -4.3600 O.2   282  ALA282     -0.2864
     71  CB        30.1160   32.6880   -3.5710 C.3   282  ALA282      0.0319
     72  N         29.4220   26.8570   -4.9350 N.3   285  ILE285     -0.1231
     73  CA        29.6060   26.8030   -6.3760 C.3   285  ILE285      0.1692
     74  C         31.0670   26.4950   -6.7140 C.2   285  ILE285      0.2591
     75  O         31.3580   25.6280   -7.5470 O.2   285  ILE285     -0.2718
     76  CB        29.1000   28.1070   -7.0520 C.3   285  ILE285      0.0266
     77  CG1       27.5770   28.1620   -6.9730 C.3   285  ILE285      0.0019
     78  CG2       29.5460   28.1830   -8.5050 C.3   285  ILE285      0.0020
     79  CD1       26.9490   29.4720   -7.4030 C.3   285  ILE285      0.0001
     80  N         31.9720   27.2070   -6.0490 N.am  286  VAL286     -0.1980
     81  CA        33.4010   26.9980   -6.2050 C.3   286  VAL286      0.1595
     82  C         33.7500   25.5450   -5.8640 C.2   286  VAL286      0.2287
     83  O         34.6000   24.9290   -6.5080 O.2   286  VAL286     -0.2864
     84  CB        34.1950   27.9850   -5.3180 C.3   286  VAL286      0.0276
     85  CG1       35.6840   27.6840   -5.3300 C.3   286  VAL286      0.0022
     86  CG2       33.9580   29.4110   -5.7730 C.3   286  VAL286      0.0022
@<TRIPOS>BOND
     1    30    31    2
     2    30    29    1
     3    28    29    1
     4    29    32    1
     5    32    33    1
     6    33    34    1
     7    33    35    1
     8    39    38    2
     9    38    37    1
    10    37    36    1
    11    37    40    1
    12    42    40    1
    13    40    41    1
    14    25    24    2
    15     6     5    1
    16    24    23    1
    17     7     5    1
    18    52    50   ar
    19    52    53   ar
    20    41    43    1
    21    78    76    1
    22    27    26    1
    23    50    49   ar
    24     5     2    1
    25    23    26    1
    26    23    22    1
    27    53    51   ar
    28    49    51   ar
    29    49    48    1
    30    75    74    2
    31    79    77    1
    32    48    45    1
    33    76    77    1
    34    76    73    1
    35    22    10   am
    36     2     1    1
    37     2     3    1
    38    74    73    1
    39    74    80   am
    40    83    82    2
    41    45    44    1
    42    45    46    1
    43    73    72    1
    44    81    80    1
    45    81    82    1
    46    81    84    1
    47    11    10    2
    48    10     9    1
    49    86    84    1
    50     3     4    2
    51    85    84    1
    52    46    47    2
    53     9     8    1
    54     9    12    1
    55    16    14   ar
    56    16    17   ar
    57    14    13   ar
    58    70    69    2
    59    61    59    1
    60    17    19   ar
    61    17    15   ar
    62    13    12    1
    63    13    15   ar
    64    68    71    1
    65    68    69    1
    66    68    67    1
    67    65    64    2
    68    19    21   ar
    69    59    60    1
    70    59    58    1
    71    15    18   ar
    72    21    20   ar
    73    64    67   am
    74    64    63    1
    75    18    20   ar
    76    66    63    1
    77    58    55    1
    78    63    62    1
    79    57    56    2
    80    55    56    1
    81    55    54    1
