@<TRIPOS>MOLECULE
tmp/3w9kA00.pdb
 162 156 0 0 0
SMALL
GASTEIGER

@<TRIPOS>ATOM
      1  N         -1.1290   10.8520  -19.7970 N.3     1  MET1       -0.1230
      2  CA        -2.1400   11.6460  -18.9850 C.3     1  MET1        0.1702
      3  C         -3.1680   10.7730  -18.2290 C.2     1  MET1        0.2592
      4  O         -4.0540   10.1730  -18.8610 O.2     1  MET1       -0.2718
      5  CB        -2.9440   12.5860  -19.8690 C.3     1  MET1        0.0401
      6  CG        -2.1370   13.7520  -20.4850 C.3     1  MET1        0.0596
      7  SD        -3.1300   14.6800  -21.6940 S.3     1  MET1       -0.1393
      8  CE        -2.9850   13.6370  -23.1900 C.3     1  MET1        0.0692
      9  N         -3.1270   10.8320  -16.9040 N.am    2  LYS2       -0.1966
     10  CA        -3.8900    9.8880  -16.1210 C.3     2  LYS2        0.1728
     11  C         -4.5770   10.4460  -14.9000 C.2     2  LYS2        0.2616
     12  O         -4.1130   11.4140  -14.2660 O.2     2  LYS2       -0.2715
     13  CB        -3.0250    8.6560  -15.7440 C.3     2  LYS2        0.0311
     14  CG        -1.9200    8.8720  -14.7480 C.3     2  LYS2        0.0038
     15  CD        -0.9480    7.6400  -14.7400 C.3     2  LYS2        0.0206
     16  CE         0.4400    7.9500  -14.0370 C.3     2  LYS2        0.1093
     17  NZ         0.3280    7.8150  -12.5540 N.3     2  LYS2       -0.1314
     18  N         -5.6810    9.8130  -14.5390 N.am    3  VAL3       -0.1977
     19  CA        -6.3200   10.1720  -13.2830 C.3     3  VAL3        0.1596
     20  C         -6.5340    8.8250  -12.5520 C.2     3  VAL3        0.2287
     21  O         -6.8500    7.8150  -13.1930 O.2     3  VAL3       -0.2864
     22  CB        -7.6370   10.9560  -13.4810 C.3     3  VAL3        0.0276
     23  CG1       -8.6200   10.1860  -14.2750 C.3     3  VAL3        0.0022
     24  CG2       -8.2440   11.3620  -12.1550 C.3     3  VAL3        0.0022
     25  N        -17.2330    6.5030  -16.5970 N.3    31  PHE31      -0.1228
     26  CA       -17.1440    7.4610  -17.7290 C.3    31  PHE31       0.1721
     27  C        -18.1990    8.5740  -17.5370 C.2    31  PHE31       0.2437
     28  O        -19.1750    8.3700  -16.8260 O.2    31  PHE31      -0.2733
     29  CB       -17.3160    6.7260  -19.0670 C.3    31  PHE31       0.0547
     30  CG       -16.0110    6.1820  -19.6140 C.ar   31  PHE31      -0.0202
     31  CD1      -15.2750    5.2020  -18.9000 C.ar   31  PHE31      -0.0042
     32  CD2      -15.4870    6.6700  -20.8240 C.ar   31  PHE31      -0.0042
     33  CE1      -14.0600    4.6800  -19.4210 C.ar   31  PHE31      -0.0003
     34  CE2      -14.2490    6.1280  -21.3370 C.ar   31  PHE31      -0.0003
     35  CZ       -13.5680    5.1520  -20.6290 C.ar   31  PHE31      -0.0000
     36  N        -17.9930    9.7760  -18.1640 N.am   32  PRO32      -0.2729
     37  CA       -18.9340   10.9060  -17.9330 C.3    32  PRO32       0.1401
     38  C        -20.3090   10.6960  -18.5950 C.2    32  PRO32       0.2269
     39  O        -20.3340   10.5220  -19.7980 O.2    32  PRO32      -0.2865
     40  CB       -18.2590   12.0990  -18.6480 C.3    32  PRO32       0.0296
     41  CG       -16.8390   11.7130  -18.7910 C.3    32  PRO32       0.0237
     42  CD       -16.7920   10.1800  -18.9050 C.3    32  PRO32       0.0939
     43  N        -20.9590   14.9000  -21.9760 N.3    51  PHE51      -0.1241
     44  CA       -20.6920   15.8470  -20.8820 C.3    51  PHE51       0.1605
     45  C        -20.5990   17.2280  -21.5280 C.2    51  PHE51       0.2264
     46  O        -20.0590   17.3470  -22.6330 O.2    51  PHE51      -0.2867
     47  CB       -19.4020   15.5180  -20.1750 C.3    51  PHE51       0.0534
     48  CG       -18.2250   15.4120  -21.0690 C.ar   51  PHE51      -0.0203
     49  CD1      -17.3180   16.4690  -21.1820 C.ar   51  PHE51      -0.0042
     50  CD2      -17.9870   14.2570  -21.7870 C.ar   51  PHE51      -0.0042
     51  CE1      -16.2340   16.3520  -22.0300 C.ar   51  PHE51      -0.0003
     52  CE2      -16.8880   14.1090  -22.6280 C.ar   51  PHE51      -0.0003
     53  CZ       -16.0020   15.1560  -22.7710 C.ar   51  PHE51      -0.0000
     54  N        -20.4570   11.5900  -27.1510 N.3    56  TYR56      -0.1241
     55  CA       -19.3590   10.7760  -27.5880 C.3    56  TYR56       0.1605
     56  C        -19.8130    9.3180  -27.6830 C.2    56  TYR56       0.2264
     57  O        -20.7710    8.8900  -26.9720 O.2    56  TYR56      -0.2867
     58  CB       -18.1380   10.9390  -26.6500 C.3    56  TYR56       0.0534
     59  CG       -18.3330   10.4120  -25.2420 C.ar   56  TYR56      -0.0201
     60  CD1      -17.9750    9.0700  -24.9130 C.ar   56  TYR56      -0.0009
     61  CD2      -18.8440   11.2260  -24.2340 C.ar   56  TYR56      -0.0009
     62  CE1      -18.1470    8.6040  -23.5940 C.ar   56  TYR56       0.0417
     63  CE2      -19.0430   10.7430  -22.9550 C.ar   56  TYR56       0.0417
     64  CZ       -18.6900    9.4390  -22.6470 C.ar   56  TYR56       0.1957
     65  OH       -18.8580    8.9510  -21.3980 O.3    56  TYR56      -0.2866
     66  N        -18.0440    5.5040  -27.3960 N.3    58  VAL58      -0.1245
     67  CA       -16.7710    4.8280  -27.0470 C.3    58  VAL58       0.1561
     68  C        -17.0170    3.3110  -27.1960 C.2    58  VAL58       0.2260
     69  O        -18.1350    2.8310  -26.9540 O.2    58  VAL58      -0.2867
     70  CB       -16.2950    5.1810  -25.6230 C.3    58  VAL58       0.0252
     71  CG1      -17.3800    4.8870  -24.6400 C.3    58  VAL58       0.0019
     72  CG2      -15.0190    4.3780  -25.2070 C.3    58  VAL58       0.0019
     73  N         -9.8560    1.2000  -24.9840 N.3    73  TYR73      -0.1241
     74  CA       -11.0550    1.8020  -25.6060 C.3    73  TYR73       0.1605
     75  C        -10.6440    2.8300  -26.6760 C.2    73  TYR73       0.2264
     76  O         -9.5620    3.3990  -26.5910 O.2    73  TYR73      -0.2867
     77  CB       -12.0040    2.4400  -24.5670 C.3    73  TYR73       0.0534
     78  CG       -11.4210    3.6490  -23.8250 C.ar   73  TYR73      -0.0201
     79  CD1      -11.4940    4.9470  -24.3920 C.ar   73  TYR73      -0.0009
     80  CD2      -10.7530    3.4970  -22.6030 C.ar   73  TYR73      -0.0009
     81  CE1      -10.8930    6.0630  -23.7470 C.ar   73  TYR73       0.0417
     82  CE2      -10.1700    4.5900  -21.9430 C.ar   73  TYR73       0.0417
     83  CZ       -10.2810    5.8850  -22.5120 C.ar   73  TYR73       0.1957
     84  OH        -9.6920    6.9560  -21.8740 O.3    73  TYR73      -0.2866
     85  N        -12.5330    6.1820  -29.0260 N.3    75  SER75      -0.1217
     86  CA       -13.7550    6.9900  -29.1560 C.3    75  SER75       0.1889
     87  C        -13.5100    8.1370  -30.0920 C.2    75  SER75       0.2288
     88  O        -12.3450    8.4690  -30.3450 O.2    75  SER75      -0.2866
     89  CB       -14.2280    7.5620  -27.8050 C.3    75  SER75       0.2089
     90  OG       -13.6340    8.7930  -27.5090 O.3    75  SER75      -0.2183
     91  N        -13.7300   10.9950  -29.1890 N.3    77  ARG77      -0.1245
     92  CA       -13.0830   12.0400  -28.3590 C.3    77  ARG77       0.1563
     93  C        -11.7050   11.6330  -27.8410 C.2    77  ARG77       0.2260
     94  O        -11.1870   12.2590  -26.9440 O.2    77  ARG77      -0.2867
     95  CB       -13.9850   12.4670  -27.1990 C.3    77  ARG77       0.0307
     96  CG       -15.4010   12.8990  -27.5940 C.3    77  ARG77       0.0489
     97  CD       -15.5080   14.0430  -28.5590 C.3    77  ARG77       0.2205
     98  NE       -16.9330   14.4260  -28.7530 N.pl3  77  ARG77      -0.0865
     99  CZ       -17.3200   15.6100  -29.2230 C.cat  77  ARG77       0.5346
    100  NH1      -16.3860   16.5200  -29.4990 N.pl3  77  ARG77       0.1354
    101  NH2      -18.6150   15.8770  -29.4210 N.pl3  77  ARG77       0.1354
    102  N         -7.2040    5.7090  -15.0990 N.3    96  LEU96      -0.1245
    103  CA        -7.7240    5.9800  -16.4290 C.3    96  LEU96       0.1561
    104  C         -6.7000    6.8530  -17.1820 C.2    96  LEU96       0.2260
    105  O         -6.3810    7.9500  -16.7070 O.2    96  LEU96      -0.2867
    106  CB        -9.0680    6.7090  -16.3480 C.3    96  LEU96       0.0270
    107  CG        -9.6500    7.0510  -17.7040 C.3    96  LEU96       0.0019
    108  CD1       -9.9300    5.7980  -18.5020 C.3    96  LEU96       0.0001
    109  CD2      -10.9320    7.9140  -17.5630 C.3    96  LEU96       0.0001
    110  N         -5.8320    8.6970  -20.8710 N.3    98  HIS98      -0.1241
    111  CA        -6.5770    9.0920  -22.0460 C.3    98  HIS98       0.1621
    112  C         -5.6260    9.9090  -22.9790 C.2    98  HIS98       0.2264
    113  O         -4.8340   10.6910  -22.4670 O.2    98  HIS98      -0.2867
    114  CB        -7.8230    9.9000  -21.6320 C.3    98  HIS98       0.0745
    115  CG        -8.7590   10.2030  -22.7810 C.ar   98  HIS98       0.0817
    116  ND1       -9.6290    9.2620  -23.3110 N.ar   98  HIS98      -0.2268
    117  CD2       -8.9550   11.3430  -23.5010 C.ar   98  HIS98       0.1154
    118  CE1      -10.3130    9.8050  -24.3040 C.ar   98  HIS98       0.1986
    119  NE2       -9.8850   11.0520  -24.4730 N.ar   98  HIS98      -0.2212
    120  N         -9.9760   16.6990  -24.4550 N.3   103  THR103     -0.1203
    121  CA       -10.9930   15.8160  -23.8470 C.3   103  THR103      0.1994
    122  C        -10.7150   15.5120  -22.3930 C.2   103  THR103      0.2618
    123  O        -11.6150   15.5860  -21.5660 O.2   103  THR103     -0.2717
    124  CB       -11.0960   14.4880  -24.6100 C.3   103  THR103      0.1784
    125  OG1      -11.4970   14.7720  -25.9700 O.3   103  THR103     -0.2211
    126  CG2      -12.2050   13.5910  -23.9700 C.3   103  THR103      0.0376
    127  N         -9.4690   15.1540  -22.0760 N.am  104  ALA104     -0.1965
    128  CA        -9.0400   14.9950  -20.6600 C.3   104  ALA104      0.1728
    129  C         -9.3260   16.2220  -19.7590 C.2   104  ALA104      0.2616
    130  O         -9.8370   16.1050  -18.6290 O.2   104  ALA104     -0.2715
    131  CB        -7.5850   14.5920  -20.5790 C.3   104  ALA104      0.0334
    132  N         -9.0390   17.4240  -20.2550 N.am  105  PHE105     -0.1974
    133  CA        -9.2670   18.6250  -19.4800 C.3   105  PHE105      0.1639
    134  C        -10.7430   18.8000  -19.1480 C.2   105  PHE105      0.2290
    135  O        -11.1100   19.1600  -18.0040 O.2   105  PHE105     -0.2864
    136  CB        -8.7230   19.8670  -20.2340 C.3   105  PHE105      0.0560
    137  CG        -9.0390   21.1750  -19.5460 C.ar  105  PHE105     -0.0200
    138  CD1       -8.2670   21.6050  -18.4480 C.ar  105  PHE105     -0.0042
    139  CD2      -10.0760   22.0100  -20.0510 C.ar  105  PHE105     -0.0042
    140  CE1       -8.5280   22.8050  -17.8200 C.ar  105  PHE105     -0.0003
    141  CE2      -10.3770   23.2560  -19.4150 C.ar  105  PHE105     -0.0003
    142  CZ        -9.5980   23.6470  -18.2780 C.ar  105  PHE105     -0.0000
    143  N        -13.1620   16.3900  -19.3870 N.3   107  GLY107     -0.1210
    144  CA       -13.8390   15.1840  -18.8450 C.3   107  GLY107      0.1956
    145  C        -13.3920   14.8770  -17.4460 C.2   107  GLY107      0.2611
    146  O        -14.1100   14.2060  -16.6860 O.2   107  GLY107     -0.2717
    147  N        -12.1850   15.3160  -17.0860 N.am  108  LYS108     -0.1979
    148  CA       -11.6050   14.9430  -15.7740 C.3   108  LYS108      0.1596
    149  C        -12.5180   15.2030  -14.5380 C.2   108  LYS108      0.2287
    150  O        -12.6290   14.3010  -13.6930 O.2   108  LYS108     -0.2864
    151  CB       -10.2360   15.6250  -15.5550 C.3   108  LYS108      0.0298
    152  CG        -9.5140   15.0990  -14.3000 C.3   108  LYS108      0.0038
    153  CD        -8.3810   16.0300  -13.9530 C.3   108  LYS108      0.0206
    154  CE        -7.4700   15.3060  -12.9760 C.3   108  LYS108      0.1093
    155  NZ        -6.3560   16.2310  -12.6520 N.3   108  LYS108     -0.1314
    156  N        -15.1310   12.4020  -14.4390 N.3   111  VAL111     -0.1245
    157  CA       -14.4850   11.1470  -14.0520 C.3   111  VAL111      0.1561
    158  C        -14.1000   11.1510  -12.5810 C.2   111  VAL111      0.2260
    159  O        -14.4150   10.1840  -11.8500 O.2   111  VAL111     -0.2867
    160  CB       -13.3010   10.7380  -14.9710 C.3   111  VAL111      0.0252
    161  CG1      -12.5910    9.5050  -14.3990 C.3   111  VAL111      0.0019
    162  CG2      -13.8130   10.3760  -16.3880 C.3   111  VAL111      0.0019
@<TRIPOS>BOND
     1    88    87    2
     2    87    86    1
     3   100    99    1
     4   101    99    1
     5    99    98    2
     6    91    92    1
     7    86    85    1
     8    86    89    1
     9    98    97    1
    10    97    96    1
    11    92    93    1
    12    92    95    1
    13    93    94    2
    14    89    90    1
    15    56    55    1
    16    56    57    2
    17    96    95    1
    18    55    54    1
    19    55    58    1
    20    66    67    1
    21    68    67    1
    22    68    69    2
    23    67    70    1
    24    75    76    2
    25    75    74    1
    26    58    59    1
    27   125   124    1
    28    70    72    1
    29    70    71    1
    30    74    73    1
    31    74    77    1
    32    59    60   ar
    33    59    61   ar
    34    60    62   ar
    35   124   126    1
    36   124   121    1
    37    77    78    1
    38   119   118   ar
    39   119   117   ar
    40   120   121    1
    41    79    78   ar
    42    79    81   ar
    43   118   116   ar
    44    61    63   ar
    45   121   122    1
    46    78    80   ar
    47    81    83   ar
    48    62    64   ar
    49   117   115   ar
    50   116   115   ar
    51     8     7    1
    52   112   113    2
    53   112   111    1
    54    63    64   ar
    55   115   114    1
    56    53    52   ar
    57    53    51   ar
    58    64    65    1
    59    46    45    2
    60    52    50   ar
    61    80    82   ar
    62    83    82   ar
    63    83    84    1
    64   122   127   am
    65   122   123    2
    66   127   128    1
    67   111   114    1
    68   111   110    1
    69    51    49   ar
    70    43    44    1
    71    50    48   ar
    72     7     6    1
    73    45    44    1
    74    34    32   ar
    75    34    35   ar
    76    49    48   ar
    77    48    47    1
    78    44    47    1
    79    32    30   ar
    80   128   131    1
    81   128   129    1
    82    35    33   ar
    83     6     5    1
    84   132   129   am
    85   132   133    1
    86   136   137    1
    87   136   133    1
    88   139   137   ar
    89   139   141   ar
    90     5     2    1
    91    39    38    2
    92     1     2    1
    93   129   130    2
    94    30    29    1
    95    30    31   ar
    96   137   138   ar
    97   133   134    1
    98    33    31   ar
    99   141   142   ar
   100   143   144    1
   101   134   135    2
   102    29    26    1
   103     2     3    1
   104    42    41    1
   105    42    36    1
   106     4     3    2
   107   144   145    1
   108    41    40    1
   109    40    37    1
   110    38    37    1
   111   108   107    1
   112   138   140   ar
   113   142   140   ar
   114     3     9   am
   115    36    37    1
   116    36    27   am
   117    26    27    1
   118    26    25    1
   119   107   109    1
   120   107   106    1
   121    27    28    2
   122   145   147   am
   123   145   146    2
   124   104   105    2
   125   104   103    1
   126   147   148    1
   127     9    10    1
   128   103   106    1
   129   103   102    1
   130   162   160    1
   131    10    13    1
   132    10    11    1
   133   148   151    1
   134   148   149    1
   135    13    14    1
   136   151   152    1
   137   160   161    1
   138   160   157    1
   139    11    18   am
   140    11    12    2
   141    14    15    1
   142    15    16    1
   143    18    19    1
   144   149   150    2
   145   156   157    1
   146   152   153    1
   147    23    22    1
   148   157   158    1
   149    16    17    1
   150   153   154    1
   151    22    19    1
   152    22    24    1
   153    19    20    1
   154    21    20    2
   155   154   155    1
   156   158   159    2
