@<TRIPOS>MOLECULE
tmp/3w9rA01.pdb
 100 96 0 0 0
SMALL
GASTEIGER

@<TRIPOS>ATOM
      1  N         35.2290  -54.2340   -3.4230 N.3    77  LEU77      -0.1231
      2  CA        35.0880  -53.4550   -4.6470 C.3    77  LEU77       0.1678
      3  C         35.5930  -54.2130   -5.8830 C.2    77  LEU77       0.2434
      4  O         36.4270  -55.1050   -5.7550 O.2    77  LEU77      -0.2733
      5  CB        35.8640  -52.1320   -4.4800 C.3    77  LEU77       0.0284
      6  CG        35.3400  -51.1760   -3.4100 C.3    77  LEU77       0.0019
      7  CD1       36.4180  -50.1760   -2.9900 C.3    77  LEU77       0.0001
      8  CD2       34.1120  -50.4470   -3.9260 C.3    77  LEU77       0.0001
      9  N         35.0990  -53.8600   -7.0930 N.am   78  PRO78      -0.2729
     10  CA        35.6170  -54.4890   -8.3260 C.3    78  PRO78       0.1401
     11  C         36.9940  -53.9320   -8.6940 C.2    78  PRO78       0.2269
     12  O         37.2120  -53.5000   -9.8260 O.2    78  PRO78      -0.2865
     13  CB        34.5820  -54.0930   -9.3890 C.3    78  PRO78       0.0296
     14  CG        33.9910  -52.8120   -8.8670 C.3    78  PRO78       0.0237
     15  CD        34.0070  -52.9040   -7.3670 C.3    78  PRO78       0.0939
     16  N         37.8370  -51.2000  -13.6060 N.3   106  ARG106     -0.1231
     17  CA        37.1060  -51.1060  -14.8640 C.3   106  ARG106      0.1694
     18  C         37.0320  -49.6970  -15.4620 C.2   106  ARG106      0.2591
     19  O         36.2760  -49.4700  -16.4020 O.2   106  ARG106     -0.2718
     20  CB        35.6860  -51.6310  -14.6330 C.3   106  ARG106      0.0321
     21  CG        35.6200  -52.6500  -13.5030 C.3   106  ARG106      0.0489
     22  CD        34.2450  -53.2810  -13.3580 C.3   106  ARG106      0.2205
     23  NE        33.2660  -52.4510  -12.6470 N.pl3 106  ARG106     -0.0865
     24  CZ        32.2050  -52.9630  -12.0260 C.cat 106  ARG106      0.5346
     25  NH1       32.0600  -54.2740  -12.0310 N.pl3 106  ARG106      0.1354
     26  NH2       31.3150  -52.1880  -11.3890 N.pl3 106  ARG106      0.1354
     27  N         37.7820  -48.7420  -14.9070 N.am  107  LEU107     -0.1980
     28  CA        37.6660  -47.3530  -15.3600 C.3   107  LEU107      0.1596
     29  C         38.8380  -46.9770  -16.2640 C.2   107  LEU107      0.2287
     30  O         39.9610  -46.7820  -15.7910 O.2   107  LEU107     -0.2864
     31  CB        37.6010  -46.3960  -14.1600 C.3   107  LEU107      0.0297
     32  CG        36.4510  -46.6200  -13.1620 C.3   107  LEU107      0.0022
     33  CD1       36.4730  -45.5830  -12.0430 C.3   107  LEU107      0.0001
     34  CD2       35.1060  -46.5880  -13.8900 C.3   107  LEU107      0.0001
     35  N         32.7370  -49.1780  -19.8030 N.3   138  PRO138     -0.2116
     36  CA        33.3370  -50.4890  -20.0630 C.3   138  PRO138      0.1372
     37  C         32.4520  -51.3740  -20.9550 C.2   138  PRO138      0.2244
     38  O         31.2270  -51.2270  -20.9820 O.2   138  PRO138     -0.2868
     39  CB        33.5450  -51.0960  -18.6620 C.3   138  PRO138      0.0268
     40  CG        32.7810  -50.2520  -17.7200 C.3   138  PRO138      0.0207
     41  CD        32.3900  -48.9680  -18.3820 C.3   138  PRO138      0.0892
     42  N         30.5730  -54.0940  -21.7690 N.3   140  GLY140     -0.1210
     43  CA        29.1790  -54.5310  -21.6680 C.3   140  GLY140      0.1956
     44  C         28.2490  -53.6670  -20.8270 C.2   140  GLY140      0.2611
     45  O         27.1970  -54.1330  -20.4140 O.2   140  GLY140     -0.2717
     46  N         28.6200  -52.4090  -20.5720 N.am  141  ASN141     -0.1974
     47  CA        27.7720  -51.5130  -19.7750 C.3   141  ASN141      0.1688
     48  C         27.1920  -50.3550  -20.5870 C.2   141  ASN141      0.2292
     49  O         27.5190  -50.1860  -21.7530 O.2   141  ASN141     -0.2864
     50  CB        28.5780  -50.9220  -18.6040 C.3   141  ASN141      0.1181
     51  CG        28.8640  -51.9400  -17.5140 C.2   141  ASN141      0.2629
     52  OD1       30.0120  -52.3340  -17.3240 O.2   141  ASN141     -0.2716
     53  ND2       27.8220  -52.3830  -16.8020 N.am  141  ASN141     -0.0877
     54  N         24.6380  -46.5850  -16.3330 N.3   145  GLU145     -0.1231
     55  CA        25.1690  -47.4510  -15.2740 C.3   145  GLU145      0.1699
     56  C         26.5230  -46.9620  -14.8380 C.2   145  GLU145      0.2592
     57  O         26.8320  -46.8880  -13.6400 O.2   145  GLU145     -0.2718
     58  CB        25.3270  -48.8810  -15.7840 C.3   145  GLU145      0.0402
     59  CG        24.0050  -49.5590  -16.0940 C.3   145  GLU145      0.1161
     60  CD        24.1580  -50.7200  -17.0560 C.2   145  GLU145      0.3649
     61  OE1       25.2980  -51.0090  -17.4920 O.co2 145  GLU145     -0.2457
     62  OE2       23.1200  -51.3490  -17.3740 O.co2 145  GLU145     -0.2457
     63  N         27.3520  -46.6400  -15.8180 N.am  146  THR146     -0.1953
     64  CA        28.7260  -46.2180  -15.5100 C.3   146  THR146      0.1897
     65  C         28.7020  -44.9270  -14.7330 C.2   146  THR146      0.2313
     66  O         29.3600  -44.7830  -13.7040 O.2   146  THR146     -0.2863
     67  CB        29.5400  -46.0490  -16.8140 C.3   146  THR146      0.1794
     68  OG1       29.5140  -47.2870  -17.5370 O.3   146  THR146     -0.2208
     69  CG2       31.0230  -45.6370  -16.5040 C.3   146  THR146      0.0378
     70  N         27.3450  -45.3940  -11.0400 N.3   149  PHE149     -0.1227
     71  CA        28.2680  -46.1040  -10.1400 C.3   149  PHE149      0.1736
     72  C         29.4490  -45.1910   -9.7550 C.2   149  PHE149      0.2595
     73  O         29.8450  -45.0950   -8.5800 O.2   149  PHE149     -0.2718
     74  CB        28.7970  -47.3780  -10.8170 C.3   149  PHE149      0.0547
     75  CG        27.9110  -48.6050  -10.6180 C.ar  149  PHE149     -0.0202
     76  CD1       26.5320  -48.5350  -10.8140 C.ar  149  PHE149     -0.0042
     77  CD2       28.4740  -49.8330  -10.2700 C.ar  149  PHE149     -0.0042
     78  CE1       25.7260  -49.6670  -10.6240 C.ar  149  PHE149     -0.0003
     79  CE2       27.6810  -50.9680  -10.0820 C.ar  149  PHE149     -0.0003
     80  CZ        26.3050  -50.8840  -10.2670 C.ar  149  PHE149     -0.0000
     81  N         30.0190  -44.5290  -10.7510 N.am  150  VAL150     -0.1980
     82  CA        31.1080  -43.5490  -10.4890 C.3   150  VAL150      0.1595
     83  C         30.6060  -42.4070   -9.6160 C.2   150  VAL150      0.2287
     84  O         31.2600  -42.0130   -8.6260 O.2   150  VAL150     -0.2864
     85  CB        31.7410  -43.0430  -11.8290 C.3   150  VAL150      0.0276
     86  CG1       32.7670  -41.9370  -11.5530 C.3   150  VAL150      0.0022
     87  CG2       32.4370  -44.1950  -12.5250 C.3   150  VAL150      0.0022
     88  N         28.3800  -42.6140   -7.3470 N.3   152  ALA152     -0.1231
     89  CA        28.2830  -43.0980   -5.9520 C.3   152  ALA152      0.1694
     90  C         29.6420  -42.9920   -5.2770 C.2   152  ALA152      0.2591
     91  O         29.7280  -42.6140   -4.1120 O.2   152  ALA152     -0.2718
     92  CB        27.8040  -44.5390   -5.8970 C.3   152  ALA152      0.0304
     93  N         30.7000  -43.3610   -5.9970 N.am  153  LEU153     -0.1980
     94  CA        32.0410  -43.2900   -5.4240 C.3   153  LEU153      0.1596
     95  C         32.4180  -41.8410   -5.0950 C.2   153  LEU153      0.2287
     96  O         32.9570  -41.5370   -4.0040 O.2   153  LEU153     -0.2864
     97  CB        33.0660  -43.8910   -6.3950 C.3   153  LEU153      0.0297
     98  CG        32.9410  -45.3910   -6.6840 C.3   153  LEU153      0.0022
     99  CD1       33.8500  -45.8000   -7.8350 C.3   153  LEU153      0.0001
    100  CD2       33.2480  -46.2180   -5.4310 C.3   153  LEU153      0.0001
@<TRIPOS>BOND
     1    42    43    1
     2    49    48    2
     3    43    44    1
     4    38    37    2
     5    37    36    1
     6    44    46   am
     7    44    45    2
     8    48    47    1
     9    46    47    1
    10    36    35    1
    11    36    39    1
    12    35    41    1
    13    47    50    1
    14    39    40    1
    15    50    51    1
    16    41    40    1
    17    68    67    1
    18    51    52    2
    19    51    53   am
    20    61    60   ar
    21    62    60   ar
    22    60    59    1
    23    67    69    1
    24    67    64    1
    25    19    18    2
    26    54    55    1
    27    29    30    2
    28    29    28    1
    29    59    58    1
    30    63    64    1
    31    63    56   am
    32    58    55    1
    33    64    65    1
    34    18    27   am
    35    18    17    1
    36    28    27    1
    37    28    31    1
    38    55    56    1
    39    17    20    1
    40    17    16    1
    41    56    57    2
    42    65    66    2
    43    20    21    1
    44    31    32    1
    45    34    32    1
    46    21    22    1
    47    22    23    1
    48    32    33    1
    49    23    24    2
    50    87    85    1
    51    25    24    1
    52    24    26    1
    53    85    86    1
    54    85    82    1
    55    70    71    1
    56    74    75    1
    57    74    71    1
    58    76    78   ar
    59    76    75   ar
    60    81    82    1
    61    81    72   am
    62    78    80   ar
    63    75    77   ar
    64    82    83    1
    65    77    79   ar
    66    80    79   ar
    67    71    72    1
    68    12    11    2
    69    72    73    2
    70    83    84    2
    71    13    14    1
    72    13    10    1
    73    14    15    1
    74    11    10    1
    75    10     9    1
    76    99    98    1
    77    15     9    1
    78    88    89    1
    79     9     3   am
    80    98    97    1
    81    98   100    1
    82    97    94    1
    83    93    94    1
    84    93    90   am
    85    89    92    1
    86    89    90    1
    87     3     4    2
    88     3     2    1
    89    94    95    1
    90    90    91    2
    91    95    96    2
    92     2     5    1
    93     2     1    1
    94     5     6    1
    95     8     6    1
    96     6     7    1
