@<TRIPOS>MOLECULE
tmp/3w9rA00.pdb
 180 169 0 0 0
SMALL
GASTEIGER

@<TRIPOS>ATOM
      1  N         39.3150  -40.0520    1.5430 N.3    51  LYS51      -0.1245
      2  CA        38.6430  -41.0110    0.6610 C.3    51  LYS51       0.1561
      3  C         38.4360  -42.3280    1.4010 C.2    51  LYS51       0.2260
      4  O         39.4070  -42.9830    1.7820 O.2    51  LYS51      -0.2867
      5  CB        39.4590  -41.2510   -0.6300 C.3    51  LYS51       0.0271
      6  CG        39.6350  -39.9880   -1.4730 C.3    51  LYS51       0.0035
      7  CD        40.1260  -40.3680   -2.8840 C.3    51  LYS51       0.0206
      8  CE        40.4410  -39.1170   -3.6960 C.3    51  LYS51       0.1093
      9  NZ        40.8600  -39.4540   -5.0930 N.3    51  LYS51      -0.1314
     10  N         37.5400  -45.3920    0.6800 N.3    53  PHE53      -0.1227
     11  CA        37.9010  -46.7150    0.1590 C.3    53  PHE53       0.1736
     12  C         39.3980  -46.9070   -0.0940 C.2    53  PHE53       0.2595
     13  O         39.8170  -47.9790   -0.5170 O.2    53  PHE53      -0.2718
     14  CB        37.1050  -47.0260   -1.1170 C.3    53  PHE53       0.0547
     15  CG        35.6120  -46.9090   -0.9180 C.ar   53  PHE53      -0.0202
     16  CD1       34.9720  -47.6860    0.0360 C.ar   53  PHE53      -0.0042
     17  CD2       34.8780  -45.9850   -1.6340 C.ar   53  PHE53      -0.0042
     18  CE1       33.6130  -47.5600    0.2510 C.ar   53  PHE53      -0.0003
     19  CE2       33.5150  -45.8480   -1.4260 C.ar   53  PHE53      -0.0003
     20  CZ        32.8850  -46.6280   -0.4730 C.ar   53  PHE53      -0.0000
     21  N         40.1970  -45.8860    0.1750 N.am   54  VAL54      -0.1980
     22  CA        41.6380  -46.0110   -0.0410 C.3    54  VAL54       0.1595
     23  C         42.3030  -46.5830    1.2050 C.2    54  VAL54       0.2287
     24  O         42.1700  -46.0180    2.2800 O.2    54  VAL54      -0.2864
     25  CB        42.2730  -44.6600   -0.3810 C.3    54  VAL54       0.0276
     26  CG1       43.7930  -44.8030   -0.5000 C.3    54  VAL54       0.0022
     27  CG2       41.6890  -44.1380   -1.6920 C.3    54  VAL54       0.0022
     28  N         47.3780  -46.3850   -5.6080 N.3    71  VAL71      -0.1245
     29  CA        46.4450  -46.4980   -4.4750 C.3    71  VAL71       0.1561
     30  C         45.9360  -47.9400   -4.3970 C.2    71  VAL71       0.2260
     31  O         45.6710  -48.5640   -5.4240 O.2    71  VAL71      -0.2867
     32  CB        45.2570  -45.4950   -4.5500 C.3    71  VAL71       0.0252
     33  CG1       45.7500  -44.0510   -4.6110 C.3    71  VAL71       0.0019
     34  CG2       44.3500  -45.7770   -5.7240 C.3    71  VAL71       0.0019
     35  N         42.8000  -50.2120   -2.7260 N.3    73  VAL73      -0.1245
     36  CA        41.5000  -49.8980   -2.1640 C.3    73  VAL73       0.1561
     37  C         41.0950  -51.0520   -1.2600 C.2    73  VAL73       0.2260
     38  O         41.6410  -52.1430   -1.3710 O.2    73  VAL73      -0.2867
     39  CB        40.4210  -49.6290   -3.2470 C.3    73  VAL73       0.0252
     40  CG1       40.7300  -48.3260   -4.0000 C.3    73  VAL73       0.0019
     41  CG2       40.3010  -50.7940   -4.2280 C.3    73  VAL73       0.0019
     42  N         35.2290  -54.2340   -3.4230 N.3    77  LEU77      -0.1231
     43  CA        35.0880  -53.4550   -4.6470 C.3    77  LEU77       0.1678
     44  C         35.5930  -54.2130   -5.8830 C.2    77  LEU77       0.2434
     45  O         36.4270  -55.1050   -5.7550 O.2    77  LEU77      -0.2733
     46  CB        35.8640  -52.1320   -4.4800 C.3    77  LEU77       0.0284
     47  CG        35.3400  -51.1760   -3.4100 C.3    77  LEU77       0.0019
     48  CD1       36.4180  -50.1760   -2.9900 C.3    77  LEU77       0.0001
     49  CD2       34.1120  -50.4470   -3.9260 C.3    77  LEU77       0.0001
     50  N         35.0990  -53.8600   -7.0930 N.am   78  PRO78      -0.2718
     51  CA        35.6170  -54.4890   -8.3260 C.3    78  PRO78       0.1535
     52  C         36.9940  -53.9320   -8.6940 C.2    78  PRO78       0.2598
     53  O         37.2120  -53.5000   -9.8260 O.2    78  PRO78      -0.2715
     54  CB        34.5820  -54.0930   -9.3890 C.3    78  PRO78       0.0310
     55  CG        33.9910  -52.8120   -8.8670 C.3    78  PRO78       0.0237
     56  CD        34.0070  -52.9040   -7.3670 C.3    78  PRO78       0.0939
     57  N         37.9210  -53.9610   -7.7440 N.am   79  ALA79      -0.1978
     58  CA        39.2430  -53.3590   -7.9390 C.3    79  ALA79       0.1597
     59  C         40.0920  -53.6770   -6.7320 C.2    79  ALA79       0.2287
     60  O         39.5500  -53.8750   -5.6530 O.2    79  ALA79      -0.2864
     61  CB        39.1050  -51.8410   -8.0390 C.3    79  ALA79       0.0319
     62  N         43.6300  -52.1250   -7.0390 N.3    81  THR81      -0.1203
     63  CA        44.6960  -51.1320   -7.1700 C.3    81  THR81       0.1994
     64  C         44.4370  -50.1770   -8.3360 C.2    81  THR81       0.2618
     65  O         43.8310  -50.5660   -9.3520 O.2    81  THR81      -0.2717
     66  CB        46.0730  -51.8110   -7.3900 C.3    81  THR81       0.1784
     67  OG1       46.1840  -52.2360   -8.7450 O.3    81  THR81      -0.2211
     68  CG2       46.2120  -53.0490   -6.5160 C.3    81  THR81       0.0376
     69  N         44.9100  -48.9420   -8.1870 N.am   82  SER82      -0.1951
     70  CA        44.7420  -47.8920   -9.2090 C.3    82  SER82       0.1924
     71  C         46.0030  -47.0210   -9.2660 C.2    82  SER82       0.2314
     72  O         46.5340  -46.6120   -8.2370 O.2    82  SER82      -0.2863
     73  CB        43.5270  -47.0090   -8.8930 C.3    82  SER82       0.2116
     74  OG        43.3250  -46.0040   -9.9040 O.3    82  SER82      -0.2180
     75  N         47.4640  -43.4360  -10.6860 N.3    84  GLU84      -0.1245
     76  CA        46.8390  -42.1840  -11.0380 C.3    84  GLU84       0.1567
     77  C         47.9190  -41.1030  -11.1820 C.2    84  GLU84       0.2260
     78  O         48.9460  -41.1360  -10.5000 O.2    84  GLU84      -0.2867
     79  CB        45.8270  -41.8040   -9.9290 C.3    84  GLU84       0.0388
     80  CG        45.0350  -43.0580   -9.5330 C.3    84  GLU84       0.1160
     81  CD        43.8830  -42.8090   -8.5680 C.2    84  GLU84       0.3649
     82  OE1       42.9760  -43.6710   -8.5070 O.co2  84  GLU84      -0.2457
     83  OE2       43.8790  -41.7870   -7.8620 O.co2  84  GLU84      -0.2457
     84  N         43.0940  -34.9440  -11.9770 N.3    98  ILE98      -0.1245
     85  CA        43.8300  -36.2100  -11.9640 C.3    98  ILE98       0.1561
     86  C         43.3960  -37.0570  -13.1530 C.2    98  ILE98       0.2260
     87  O         42.3220  -36.8440  -13.7100 O.2    98  ILE98      -0.2867
     88  CB        43.6100  -37.0030  -10.6550 C.3    98  ILE98       0.0252
     89  CG1       42.1620  -37.4430  -10.5290 C.3    98  ILE98       0.0019
     90  CG2       44.0040  -36.1700   -9.4200 C.3    98  ILE98       0.0019
     91  CD1       41.9240  -38.3870   -9.3550 C.3    98  ILE98       0.0001
     92  N         43.3620  -41.3510  -14.1960 N.3   100  ILE100     -0.1245
     93  CA        43.7130  -42.7210  -13.8030 C.3   100  ILE100      0.1561
     94  C         44.3590  -43.4070  -15.0010 C.2   100  ILE100      0.2260
     95  O         43.7710  -43.4590  -16.0840 O.2   100  ILE100     -0.2867
     96  CB        42.4900  -43.5190  -13.2690 C.3   100  ILE100      0.0252
     97  CG1       41.9660  -42.8500  -11.9910 C.3   100  ILE100      0.0019
     98  CG2       42.8750  -44.9760  -13.0040 C.3   100  ILE100      0.0019
     99  CD1       40.7060  -43.4850  -11.4000 C.3   100  ILE100      0.0001
    100  N         41.0610  -52.2830  -12.2810 N.3   105  HIS105     -0.1226
    101  CA        39.6450  -51.9320  -12.1600 C.3   105  HIS105      0.1752
    102  C         39.0610  -51.7030  -13.5340 C.2   105  HIS105      0.2596
    103  O         39.7360  -51.9240  -14.5400 O.2   105  HIS105     -0.2718
    104  CB        39.5300  -50.6680  -11.3230 C.3   105  HIS105      0.0759
    105  CG        40.3080  -49.5160  -11.8850 C.ar  105  HIS105      0.0818
    106  ND1       41.5320  -49.1510  -11.4140 N.ar  105  HIS105     -0.2268
    107  CD2       40.0200  -48.6580  -12.9390 C.ar  105  HIS105      0.1154
    108  CE1       41.9830  -48.0980  -12.1200 C.ar  105  HIS105      0.1986
    109  NE2       41.0740  -47.8100  -13.0710 N.ar  105  HIS105     -0.2212
    110  N         37.8370  -51.2000  -13.6060 N.am  106  ARG106     -0.1966
    111  CA        37.1060  -51.1060  -14.8640 C.3   106  ARG106      0.1729
    112  C         37.0320  -49.6970  -15.4620 C.2   106  ARG106      0.2616
    113  O         36.2760  -49.4700  -16.4020 O.2   106  ARG106     -0.2715
    114  CB        35.6860  -51.6310  -14.6330 C.3   106  ARG106      0.0348
    115  CG        35.6200  -52.6500  -13.5030 C.3   106  ARG106      0.0492
    116  CD        34.2450  -53.2810  -13.3580 C.3   106  ARG106      0.2205
    117  NE        33.2660  -52.4510  -12.6470 N.pl3 106  ARG106     -0.0865
    118  CZ        32.2050  -52.9630  -12.0260 C.cat 106  ARG106      0.5346
    119  NH1       32.0600  -54.2740  -12.0310 N.pl3 106  ARG106      0.1354
    120  NH2       31.3150  -52.1880  -11.3890 N.pl3 106  ARG106      0.1354
    121  N         37.7820  -48.7420  -14.9070 N.am  107  LEU107     -0.1977
    122  CA        37.6660  -47.3530  -15.3600 C.3   107  LEU107      0.1596
    123  C         38.8380  -46.9770  -16.2640 C.2   107  LEU107      0.2287
    124  O         39.9610  -46.7820  -15.7910 O.2   107  LEU107     -0.2864
    125  CB        37.6010  -46.3960  -14.1600 C.3   107  LEU107      0.0297
    126  CG        36.4510  -46.6200  -13.1620 C.3   107  LEU107      0.0022
    127  CD1       36.4730  -45.5830  -12.0430 C.3   107  LEU107      0.0001
    128  CD2       35.1060  -46.5880  -13.8900 C.3   107  LEU107      0.0001
    129  N         39.6750  -42.4010  -17.2950 N.3   110  TYR110     -0.1241
    130  CA        39.0400  -41.5660  -16.2720 C.3   110  TYR110      0.1605
    131  C         39.8900  -40.3180  -16.0020 C.2   110  TYR110      0.2264
    132  O         41.0880  -40.4390  -15.7510 O.2   110  TYR110     -0.2867
    133  CB        38.9020  -42.3610  -14.9720 C.3   110  TYR110      0.0534
    134  CG        38.2860  -41.5790  -13.8480 C.ar  110  TYR110     -0.0201
    135  CD1       36.9260  -41.6910  -13.5810 C.ar  110  TYR110     -0.0009
    136  CD2       39.0490  -40.7310  -13.0500 C.ar  110  TYR110     -0.0009
    137  CE1       36.3310  -40.9850  -12.5610 C.ar  110  TYR110      0.0417
    138  CE2       38.4650  -40.0230  -12.0050 C.ar  110  TYR110      0.0417
    139  CZ        37.1020  -40.1690  -11.7630 C.ar  110  TYR110      0.1957
    140  OH        36.4960  -39.4850  -10.7500 O.3   110  TYR110     -0.2866
    141  N         33.0890  -31.5710   -8.2800 N.3   131  GLU131     -0.1245
    142  CA        33.9600  -32.5360   -8.9330 C.3   131  GLU131      0.1567
    143  C         33.2770  -33.1320  -10.1510 C.2   131  GLU131      0.2260
    144  O         32.1530  -33.6390  -10.0550 O.2   131  GLU131     -0.2867
    145  CB        34.3690  -33.6690   -7.9860 C.3   131  GLU131      0.0388
    146  CG        35.3200  -34.6470   -8.6700 C.3   131  GLU131      0.1160
    147  CD        36.0980  -35.5130   -7.6930 C.2   131  GLU131      0.3649
    148  OE1       35.6430  -35.6730   -6.5430 O.co2 131  GLU131     -0.2457
    149  OE2       37.1760  -36.0170   -8.0810 O.co2 131  GLU131     -0.2457
    150  N         30.0190  -44.5290  -10.7510 N.3   150  VAL150     -0.1245
    151  CA        31.1080  -43.5490  -10.4890 C.3   150  VAL150      0.1561
    152  C         30.6060  -42.4070   -9.6160 C.2   150  VAL150      0.2260
    153  O         31.2600  -42.0130   -8.6260 O.2   150  VAL150     -0.2867
    154  CB        31.7410  -43.0430  -11.8290 C.3   150  VAL150      0.0252
    155  CG1       32.7670  -41.9370  -11.5530 C.3   150  VAL150      0.0019
    156  CG2       32.4370  -44.1950  -12.5250 C.3   150  VAL150      0.0019
    157  N         30.7000  -43.3610   -5.9970 N.3   153  LEU153     -0.1231
    158  CA        32.0410  -43.2900   -5.4240 C.3   153  LEU153      0.1693
    159  C         32.4180  -41.8410   -5.0950 C.2   153  LEU153      0.2591
    160  O         32.9570  -41.5370   -4.0040 O.2   153  LEU153     -0.2718
    161  CB        33.0660  -43.8910   -6.3950 C.3   153  LEU153      0.0284
    162  CG        32.9410  -45.3910   -6.6840 C.3   153  LEU153      0.0019
    163  CD1       33.8500  -45.8000   -7.8350 C.3   153  LEU153      0.0001
    164  CD2       33.2480  -46.2180   -5.4310 C.3   153  LEU153      0.0001
    165  N         32.1880  -40.9350   -6.0450 N.am  154  ILE154     -0.1980
    166  CA        32.5330  -39.5260   -5.7850 C.3   154  ILE154      0.1595
    167  C         31.7060  -38.9540   -4.6220 C.2   154  ILE154      0.2287
    168  O         32.2100  -38.1910   -3.7960 O.2   154  ILE154     -0.2864
    169  CB        32.3830  -38.6580   -7.0520 C.3   154  ILE154      0.0276
    170  CG1       33.4430  -39.0980   -8.0880 C.3   154  ILE154      0.0022
    171  CG2       32.5660  -37.1770   -6.7080 C.3   154  ILE154      0.0022
    172  CD1       33.1410  -38.6350   -9.4920 C.3   154  ILE154      0.0001
    173  N         33.3030  -39.9950   -1.4570 N.3   157  ASN157     -0.1240
    174  CA        34.4730  -39.1480   -1.2470 C.3   157  ASN157      0.1653
    175  C         34.1290  -37.7250   -0.7820 C.2   157  ASN157      0.2266
    176  O         34.7660  -37.2150    0.1440 O.2   157  ASN157     -0.2867
    177  CB        35.3330  -39.0640   -2.5300 C.3   157  ASN157      0.1155
    178  CG        35.9790  -40.3930   -2.9000 C.2   157  ASN157      0.2627
    179  OD1       36.1030  -41.3200   -2.0810 O.2   157  ASN157     -0.2716
    180  ND2       36.4690  -40.4620   -4.1220 N.am  157  ASN157     -0.0877
@<TRIPOS>BOND
     1   129   130    1
     2   113   112    2
     3   130   131    1
     4   130   133    1
     5   123   124    2
     6   123   122    1
     7    95    94    2
     8   131   132    2
     9   112   121   am
    10   112   111    1
    11   122   121    1
    12   122   125    1
    13    94    93    1
    14   133   134    1
    15   111   114    1
    16   111   110    1
    17   114   115    1
    18   103   102    2
    19    92    93    1
    20   125   126    1
    21   128   126    1
    22   134   135   ar
    23   134   136   ar
    24    93    96    1
    25    87    86    2
    26   110   102   am
    27   135   137   ar
    28   102   101    1
    29   115   116    1
    30   116   117    1
    31    96    98    1
    32    96    97    1
    33   126   127    1
    34    86    85    1
    35   109   107   ar
    36   109   108   ar
    37   136   138   ar
    38   107   105   ar
    39   117   118    2
    40   137   139   ar
    41   156   154    1
    42   100   101    1
    43   101   104    1
    44   108   106   ar
    45   119   118    1
    46   118   120    1
    47   138   139   ar
    48    97    99    1
    49    84    85    1
    50    85    88    1
    51   105   106   ar
    52   105   104    1
    53   154   155    1
    54   154   151    1
    55   139   140    1
    56    77    76    1
    57    77    78    2
    58    76    75    1
    59    76    79    1
    60   150   151    1
    61    88    89    1
    62    88    90    1
    63    89    91    1
    64   151   152    1
    65   143   144    2
    66   143   142    1
    67    79    80    1
    68    74    73    1
    69    53    52    2
    70   152   153    2
    71    80    81    1
    72   172   170    1
    73    54    55    1
    74    54    51    1
    75    65    64    2
    76    71    70    1
    77    71    72    2
    78    70    73    1
    79    70    69    1
    80   142   141    1
    81   142   145    1
    82    55    56    1
    83    67    66    1
    84    52    51    1
    85    52    57   am
    86   146   145    1
    87   146   147    1
    88    81    82   ar
    89    81    83   ar
    90    64    69   am
    91    64    63    1
    92    51    50    1
    93   170   169    1
    94   149   147   ar
    95    61    58    1
    96    58    57    1
    97    58    59    1
    98   163   162    1
    99   147   148   ar
   100    66    63    1
   101    66    68    1
   102    56    50    1
   103    63    62    1
   104    50    44   am
   105   169   171    1
   106   169   166    1
   107    59    60    2
   108   162   161    1
   109   162   164    1
   110   161   158    1
   111   165   166    1
   112   165   159   am
   113   157   158    1
   114    44    45    2
   115    44    43    1
   116   166   167    1
   117    34    32    1
   118    28    29    1
   119   158   159    1
   120    31    30    2
   121   159   160    2
   122     9     8    1
   123    43    46    1
   124    43    42    1
   125   167   168    2
   126    33    32    1
   127    32    29    1
   128    46    47    1
   129    29    30    1
   130    41    39    1
   131   180   178   am
   132    40    39    1
   133    49    47    1
   134     8     7    1
   135    47    48    1
   136    39    36    1
   137   178   177    1
   138   178   179    2
   139     7     6    1
   140    35    36    1
   141   177   174    1
   142    36    37    1
   143    27    25    1
   144    17    19   ar
   145    17    15   ar
   146     6     5    1
   147   173   174    1
   148    19    20   ar
   149    38    37    2
   150   174   175    1
   151    14    15    1
   152    14    11    1
   153    15    16   ar
   154   175   176    2
   155     5     2    1
   156    13    12    2
   157    26    25    1
   158    20    18   ar
   159    25    22    1
   160    12    11    1
   161    12    21   am
   162    22    21    1
   163    22    23    1
   164    16    18   ar
   165    11    10    1
   166     2     3    1
   167     2     1    1
   168    23    24    2
   169     3     4    2
