@<TRIPOS>MOLECULE
tmp/3w9tD05.pdb
 81 77 0 0 0
SMALL
GASTEIGER

@<TRIPOS>ATOM
      1  N         65.9870  100.7620   12.3940 N.3     1  VAL1       -0.1231
      2  CA        64.6660  101.2020   11.9670 C.3     1  VAL1        0.1692
      3  C         63.6490  100.1380   12.2900 C.2     1  VAL1        0.2592
      4  O         62.4550  100.4200   12.4510 O.2     1  VAL1       -0.2718
      5  CB        64.5270  101.3420   10.4300 C.3     1  VAL1        0.0266
      6  CG1       64.4550  102.7710    9.9730 C.3     1  VAL1        0.0020
      7  CG2       65.5410  100.5010    9.6590 C.3     1  VAL1        0.0020
      8  N         64.1210   98.9010   12.3150 N.am    2  LEU2       -0.1966
      9  CA        63.2590   97.7740   12.5800 C.3     2  LEU2        0.1728
     10  C         62.8910   97.7020   14.0610 C.2     2  LEU2        0.2616
     11  O         63.4770   98.4070   14.8990 O.2     2  LEU2       -0.2715
     12  CB        63.9480   96.4900   12.1170 C.3     2  LEU2        0.0311
     13  CG        63.5640   95.9210   10.7400 C.3     2  LEU2        0.0022
     14  CD1       63.1690   96.9490    9.6840 C.3     2  LEU2        0.0001
     15  CD2       64.6280   94.9730   10.2150 C.3     2  LEU2        0.0001
     16  N         61.9060   96.8730   14.3790 N.am    3  CYS3       -0.1954
     17  CA        61.6680   96.5390   15.7570 C.3     3  CYS3        0.1843
     18  C         62.6570   95.4440   16.1260 C.2     3  CYS3        0.2626
     19  O         62.4050   94.2630   15.8750 O.2     3  CYS3       -0.2714
     20  CB        60.2400   96.0560   15.9680 C.3     3  CYS3        0.0997
     21  SG        59.9370   95.6690   17.7080 S.3     3  CYS3       -0.0797
     22  N         63.7930   95.8330   16.6980 N.am    4  THR4       -0.1936
     23  CA        64.8410   94.8560   16.9970 C.3     4  THR4        0.2028
     24  C         64.6490   94.1870   18.3410 C.2     4  THR4        0.2642
     25  O         65.3690   93.2400   18.6810 O.2     4  THR4       -0.2714
     26  CB        66.2600   95.4480   16.9010 C.3     4  THR4        0.1808
     27  OG1       66.2750   96.7510   17.4870 O.3     4  THR4       -0.2208
     28  CG2       66.7200   95.5120   15.4180 C.3     4  THR4        0.0379
     29  N         63.6690   94.6810   19.0890 N.am    5  ASN5       -0.1971
     30  CA        63.3020   94.1040   20.3670 C.3     5  ASN5        0.1688
     31  C         61.7970   93.9540   20.5380 C.2     5  ASN5        0.2292
     32  O         61.1590   94.7600   21.2250 O.2     5  ASN5       -0.2864
     33  CB        63.9160   94.9140   21.4950 C.3     5  ASN5        0.1181
     34  CG        65.4190   94.8460   21.4740 C.2     5  ASN5        0.2629
     35  OD1       66.0960   95.8380   21.1830 O.2     5  ASN5       -0.2716
     36  ND2       65.9580   93.6510   21.7310 N.am    5  ASN5       -0.0877
     37  N         55.9160   95.7560   19.7490 N.3    48  CYS48      -0.1221
     38  CA        57.3010   96.1780   19.8500 C.3    48  CYS48       0.1808
     39  C         57.6730   96.6830   21.2350 C.2    48  CYS48       0.2602
     40  O         56.9070   97.3940   21.8710 O.2    48  CYS48      -0.2717
     41  CB        57.6010   97.2570   18.8100 C.3    48  CYS48       0.0970
     42  SG        59.3720   97.4630   18.5030 S.3    48  CYS48      -0.0800
     43  N         58.8680   96.3040   21.6790 N.am   49  GLY49      -0.1942
     44  CA        59.4410   96.7500   22.9460 C.3    49  GLY49       0.2014
     45  C         59.4730   98.2610   23.1380 C.2    49  GLY49       0.2638
     46  O         59.3650   98.7400   24.2720 O.2    49  GLY49      -0.2714
     47  N         59.6090   99.0180   22.0440 N.am   50  ASP50      -0.1971
     48  CA        59.5960  100.4780   22.1330 C.3    50  ASP50       0.1709
     49  C         58.1780  101.0440   22.2090 C.2    50  ASP50       0.2293
     50  O         57.9910  102.2650   22.2140 O.2    50  ASP50      -0.2864
     51  CB        60.3820  101.1330   20.9930 C.3    50  ASP50       0.1436
     52  CG        59.8290  100.7990   19.6180 C.2    50  ASP50       0.3671
     53  OD1       58.5980  100.6720   19.4560 O.co2  50  ASP50      -0.2456
     54  OD2       60.6340  100.6760   18.6730 O.co2  50  ASP50      -0.2456
     55  N         53.6280   97.1260   15.0670 N.3    54  ARG54      -0.1245
     56  CA        53.9990   96.9800   13.6570 C.3    54  ARG54       0.1563
     57  C         53.5520   95.6310   13.0930 C.2    54  ARG54       0.2260
     58  O         52.7680   94.9210   13.7250 O.2    54  ARG54      -0.2867
     59  CB        55.4970   97.1740   13.4690 C.3    54  ARG54       0.0307
     60  CG        56.0210   98.5170   13.9340 C.3    54  ARG54       0.0489
     61  CD        57.5240   98.4610   14.1210 C.3    54  ARG54       0.2205
     62  NE        58.0610   99.5820   14.8880 N.pl3  54  ARG54      -0.0865
     63  CZ        59.2740  100.0990   14.7020 C.cat  54  ARG54       0.5346
     64  NH1       60.0760   99.6220   13.7510 N.pl3  54  ARG54       0.1354
     65  NH2       59.6940  101.1060   15.4550 N.pl3  54  ARG54       0.1354
     66  N         60.3450  108.0050   13.4940 N.3    79  LEU79      -0.1245
     67  CA        61.3880  107.3760   14.2900 C.3    79  LEU79       0.1561
     68  C         62.4750  108.3530   14.7190 C.2    79  LEU79       0.2260
     69  O         63.2890  108.0480   15.5900 O.2    79  LEU79      -0.2867
     70  CB        62.0140  106.2170   13.5070 C.3    79  LEU79       0.0270
     71  CG        61.1700  104.9620   13.2690 C.3    79  LEU79       0.0019
     72  CD1       61.7380  104.1600   12.1080 C.3    79  LEU79       0.0001
     73  CD2       61.0560  104.1040   14.5270 C.3    79  LEU79       0.0001
     74  N         60.4460  108.3890   18.5300 N.3    83  ILE83      -0.1245
     75  CA        59.0550  107.9800   18.3410 C.3    83  ILE83       0.1561
     76  C         58.1470  108.8490   19.2250 C.2    83  ILE83       0.2260
     77  O         58.3380  108.9090   20.4340 O.2    83  ILE83      -0.2867
     78  CB        58.8600  106.4700   18.6560 C.3    83  ILE83       0.0252
     79  CG1       59.8250  105.6050   17.8140 C.3    83  ILE83       0.0019
     80  CG2       57.4020  106.0680   18.4480 C.3    83  ILE83       0.0019
     81  CD1       59.9820  104.1700   18.2870 C.3    83  ILE83       0.0001
@<TRIPOS>BOND
     1     7     5    1
     2    14    13    1
     3     6     5    1
     4    15    13    1
     5     5     2    1
     6    13    12    1
     7     2     3    1
     8     2     1    1
     9    72    71    1
    10    12     9    1
    11     3     8   am
    12     3     4    2
    13     8     9    1
    14     9    10    1
    15    57    56    1
    16    57    58    2
    17    71    70    1
    18    71    73    1
    19    59    56    1
    20    59    60    1
    21    66    67    1
    22    70    67    1
    23    56    55    1
    24    64    63    1
    25    60    61    1
    26    10    16   am
    27    10    11    2
    28    61    62    1
    29    67    68    1
    30    16    17    1
    31    63    62    2
    32    63    65    1
    33    68    69    2
    34    28    26    1
    35    17    20    1
    36    17    18    1
    37    19    18    2
    38    20    21    1
    39    18    22   am
    40    22    23    1
    41    26    23    1
    42    26    27    1
    43    23    24    1
    44    21    42    1
    45    79    81    1
    46    79    78    1
    47    24    25    2
    48    24    29   am
    49    75    74    1
    50    75    78    1
    51    75    76    1
    52    80    78    1
    53    42    41    1
    54    54    52   ar
    55    41    38    1
    56    29    30    1
    57    76    77    2
    58    53    52   ar
    59    52    51    1
    60    37    38    1
    61    38    39    1
    62    30    31    1
    63    30    33    1
    64    31    32    2
    65    51    48    1
    66    35    34    2
    67    39    43   am
    68    39    40    2
    69    34    33    1
    70    34    36   am
    71    43    44    1
    72    47    48    1
    73    47    45   am
    74    48    49    1
    75    49    50    2
    76    44    45    1
    77    45    46    2
