@<TRIPOS>MOLECULE
tmp/3wa0E00.pdb
 154 150 0 0 0
SMALL
GASTEIGER

@<TRIPOS>ATOM
      1  N         41.1060  -24.1110  -23.5540 N.3   238  TRP238     -0.1227
      2  CA        41.9930  -25.2700  -23.6050 C.3   238  TRP238      0.1737
      3  C         41.2500  -26.5890  -23.8200 C.2   238  TRP238      0.2595
      4  O         41.7200  -27.4600  -24.5520 O.2   238  TRP238     -0.2718
      5  CB        42.8560  -25.3580  -22.3450 C.3   238  TRP238      0.0564
      6  CG        43.8950  -24.2890  -22.2500 C.ar  238  TRP238      0.0003
      7  CD1       44.0300  -23.3680  -21.2530 C.ar  238  TRP238      0.0946
      8  CD2       44.9470  -24.0220  -23.1880 C.ar  238  TRP238      0.0152
      9  NE1       45.0990  -22.5470  -21.5110 N.ar  238  TRP238     -0.2442
     10  CE2       45.6800  -22.9270  -22.6900 C.ar  238  TRP238      0.0810
     11  CE3       45.3400  -24.6030  -24.3980 C.ar  238  TRP238      0.0012
     12  CZ2       46.7810  -22.3980  -23.3600 C.ar  238  TRP238      0.0191
     13  CZ3       46.4350  -24.0770  -25.0620 C.ar  238  TRP238      0.0001
     14  CH2       47.1460  -22.9870  -24.5360 C.ar  238  TRP238      0.0015
     15  N         40.0960  -26.7300  -23.1760 N.am  239  ASN239     -0.1974
     16  CA        39.3080  -27.9520  -23.2940 C.3   239  ASN239      0.1688
     17  C         38.5000  -28.0180  -24.5870 C.2   239  ASN239      0.2292
     18  O         37.8580  -29.0250  -24.8750 O.2   239  ASN239     -0.2864
     19  CB        38.4030  -28.1430  -22.0700 C.3   239  ASN239      0.1181
     20  CG        37.5030  -26.9480  -21.8100 C.2   239  ASN239      0.2629
     21  OD1       37.5370  -25.9550  -22.5360 O.2   239  ASN239     -0.2716
     22  ND2       36.6830  -27.0450  -20.7690 N.am  239  ASN239     -0.0877
     23  N         40.1040  -27.2830  -27.5540 N.3   241  ILE241     -0.1231
     24  CA        41.0570  -27.5260  -28.6320 C.3   241  ILE241      0.1692
     25  C         41.4370  -28.9940  -28.7240 C.2   241  ILE241      0.2592
     26  O         41.9580  -29.5750  -27.7530 O.2   241  ILE241     -0.2718
     27  CB        42.3370  -26.7150  -28.4380 C.3   241  ILE241      0.0266
     28  CG1       42.0180  -25.2150  -28.4560 C.3   241  ILE241      0.0019
     29  CG2       43.3540  -27.0690  -29.5010 C.3   241  ILE241      0.0020
     30  CD1       43.2260  -24.3390  -28.1310 C.3   241  ILE241      0.0001
     31  N         41.1520  -29.5890  -29.8870 N.am  242  ARG242     -0.1966
     32  CA        41.5170  -30.9840  -30.1550 C.3   242  ARG242      0.1729
     33  C         43.0390  -31.1560  -30.1310 C.2   242  ARG242      0.2616
     34  O         43.5830  -31.9550  -29.3550 O.2   242  ARG242     -0.2715
     35  CB        40.9640  -31.4430  -31.4870 C.3   242  ARG242      0.0348
     36  CG        41.2970  -32.8970  -31.8570 C.3   242  ARG242      0.0492
     37  CD        40.7310  -33.2880  -33.2040 C.3   242  ARG242      0.2205
     38  NE        39.2810  -33.1050  -33.1620 N.pl3 242  ARG242     -0.0865
     39  CZ        38.5560  -32.7170  -34.2100 C.cat 242  ARG242      0.5346
     40  NH1       39.1310  -32.3950  -35.3690 N.pl3 242  ARG242      0.1354
     41  NH2       37.2630  -32.4900  -34.0320 N.pl3 242  ARG242      0.1354
     42  N         43.7310  -30.4160  -30.9920 N.am  243  ASN243     -0.1958
     43  CA        45.1950  -30.3970  -30.9620 C.3   243  ASN243      0.1819
     44  C         45.7920  -29.1780  -31.6660 C.2   243  ASN243      0.2621
     45  O         45.0640  -28.3590  -32.2220 O.2   243  ASN243     -0.2715
     46  CB        45.8000  -31.7070  -31.5030 C.3   243  ASN243      0.1195
     47  CG        45.5490  -31.9110  -32.9810 C.2   243  ASN243      0.2630
     48  OD1       46.1650  -31.2540  -33.8250 O.2   243  ASN243     -0.2716
     49  ND2       44.6550  -32.8410  -33.3070 N.am  243  ASN243     -0.0877
     50  N         47.1190  -29.0720  -31.6330 N.am  244  ILE244     -0.1963
     51  CA        47.8360  -27.9310  -32.1910 C.3   244  ILE244      0.1727
     52  C         49.0300  -28.4890  -32.9320 C.2   244  ILE244      0.2617
     53  O         49.6420  -29.4560  -32.4770 O.2   244  ILE244     -0.2715
     54  CB        48.3550  -26.9810  -31.0780 C.3   244  ILE244      0.0290
     55  CG1       47.1930  -26.4360  -30.2390 C.3   244  ILE244      0.0022
     56  CG2       49.1680  -25.8450  -31.6720 C.3   244  ILE244      0.0023
     57  CD1       47.6190  -25.5550  -29.0660 C.3   244  ILE244      0.0001
     58  N         49.3590  -27.9020  -34.0760 N.am  245  SER245     -0.1936
     59  CA        50.4870  -28.3880  -34.8570 C.3   245  SER245      0.2055
     60  C         51.3320  -27.2520  -35.4080 C.2   245  SER245      0.2643
     61  O         50.8320  -26.1560  -35.6630 O.2   245  SER245     -0.2714
     62  CB        50.0060  -29.3000  -35.9900 C.3   245  SER245      0.2130
     63  OG        49.1050  -28.6170  -36.8460 O.3   245  SER245     -0.2179
     64  N         52.6210  -27.5300  -35.5790 N.am  246  TYR246     -0.1959
     65  CA        53.5610  -26.5520  -36.1100 C.3   246  TYR246      0.1771
     66  C         54.5740  -27.1700  -37.0740 C.2   246  TYR246      0.2620
     67  O         55.2440  -28.1500  -36.7380 O.2   246  TYR246     -0.2715
     68  CB        54.2980  -25.8470  -34.9660 C.3   246  TYR246      0.0574
     69  CG        55.5280  -25.0670  -35.3970 C.ar  246  TYR246     -0.0198
     70  CD1       55.4170  -23.7810  -35.9030 C.ar  246  TYR246     -0.0009
     71  CD2       56.8000  -25.6150  -35.2830 C.ar  246  TYR246     -0.0009
     72  CE1       56.5350  -23.0680  -36.2950 C.ar  246  TYR246      0.0417
     73  CE2       57.9220  -24.9090  -35.6710 C.ar  246  TYR246      0.0417
     74  CZ        57.7820  -23.6380  -36.1720 C.ar  246  TYR246      0.1957
     75  OH        58.8940  -22.9290  -36.5600 O.3   246  TYR246     -0.2866
     76  N         54.6880  -26.5790  -38.2640 N.am  247  SER247     -0.1936
     77  CA        55.7000  -26.9700  -39.2490 C.3   247  SER247      0.2055
     78  C         56.1240  -25.7610  -40.0830 C.2   247  SER247      0.2643
     79  O         55.3370  -24.8260  -40.2510 O.2   247  SER247     -0.2714
     80  CB        55.1840  -28.0900  -40.1580 C.3   247  SER247      0.2130
     81  OG        54.1690  -27.6250  -41.0360 O.3   247  SER247     -0.2179
     82  N         57.3420  -25.8060  -40.6320 N.am  248  ASP248     -0.1957
     83  CA        57.9900  -24.6260  -41.2150 C.3   248  ASP248      0.1840
     84  C         57.8760  -23.5350  -40.1600 C.2   248  ASP248      0.2621
     85  O         58.2890  -23.7620  -39.0250 O.2   248  ASP248     -0.2715
     86  CB        57.3700  -24.2130  -42.5550 C.3   248  ASP248      0.1450
     87  CG        58.2950  -23.3150  -43.3710 C.2   248  ASP248      0.3671
     88  OD1       59.4860  -23.2170  -43.0020 O.co2 248  ASP248     -0.2456
     89  OD2       57.8390  -22.7140  -44.3730 O.co2 248  ASP248     -0.2456
     90  N         57.3510  -22.3580  -40.4960 N.am  249  LYS249     -0.1977
     91  CA        56.8400  -21.5060  -39.4330 C.3   249  LYS249      0.1596
     92  C         55.3490  -21.3030  -39.6770 C.2   249  LYS249      0.2287
     93  O         54.9460  -20.3670  -40.3730 O.2   249  LYS249     -0.2864
     94  CB        57.5600  -20.1610  -39.4860 C.3   249  LYS249      0.0298
     95  CG        59.0410  -20.2430  -39.8240 C.3   249  LYS249      0.0038
     96  CD        59.4570  -19.0120  -40.6160 C.3   249  LYS249      0.0206
     97  CE        60.9550  -18.7450  -40.5420 C.3   249  LYS249      0.1093
     98  NZ        61.8090  -19.7690  -41.2120 N.3   249  LYS249     -0.1314
     99  N         37.9540  -28.9070  -31.0350 N.3   256  LEU256     -0.1245
    100  CA        37.3830  -30.2140  -30.7280 C.3   256  LEU256      0.1561
    101  C         36.0230  -30.3830  -31.4100 C.2   256  LEU256      0.2260
    102  O         35.4380  -31.4670  -31.3990 O.2   256  LEU256     -0.2867
    103  CB        37.2400  -30.3710  -29.2100 C.3   256  LEU256      0.0270
    104  CG        37.2020  -31.7750  -28.6040 C.3   256  LEU256      0.0019
    105  CD1       38.4800  -32.5340  -28.9160 C.3   256  LEU256      0.0001
    106  CD2       36.9820  -31.7010  -27.0980 C.3   256  LEU256      0.0001
    107  N         61.9150  -18.2730  -34.7700 N.3   270  LEU270     -0.1245
    108  CA        61.8340  -19.6790  -34.3800 C.3   270  LEU270      0.1561
    109  C         61.8450  -19.8990  -32.8670 C.2   270  LEU270      0.2260
    110  O         61.1400  -20.7730  -32.3570 O.2   270  LEU270     -0.2867
    111  CB        62.9680  -20.4760  -35.0300 C.3   270  LEU270      0.0270
    112  CG        62.8690  -20.6910  -36.5400 C.3   270  LEU270      0.0019
    113  CD1       64.1350  -21.3630  -37.0160 C.3   270  LEU270      0.0001
    114  CD2       61.6850  -21.5470  -36.9130 C.3   270  LEU270      0.0001
    115  N         55.0030  -22.8010  -27.9920 N.3   277  LEU277     -0.1245
    116  CA        54.6550  -24.2040  -27.7850 C.3   277  LEU277      0.1561
    117  C         54.7570  -24.6310  -26.3210 C.2   277  LEU277      0.2260
    118  O         53.8690  -25.3220  -25.8080 O.2   277  LEU277     -0.2867
    119  CB        55.5050  -25.1120  -28.6810 C.3   277  LEU277      0.0270
    120  CG        55.0940  -25.1340  -30.1560 C.3   277  LEU277      0.0019
    121  CD1       56.1890  -25.7420  -31.0290 C.3   277  LEU277      0.0001
    122  CD2       53.7800  -25.8870  -30.3210 C.3   277  LEU277      0.0001
    123  N         51.8670  -23.2530  -24.4830 N.3   280  CYS280     -0.1221
    124  CA        50.6720  -24.0300  -24.8000 C.3   280  CYS280      0.1808
    125  C         50.6310  -25.3070  -23.9860 C.2   280  CYS280      0.2601
    126  O         49.6160  -25.6260  -23.3640 O.2   280  CYS280     -0.2717
    127  CB        50.6110  -24.3550  -26.2900 C.3   280  CYS280      0.0970
    128  SG        50.3550  -22.9080  -27.3340 S.3   280  CYS280     -0.0800
    129  N         51.7440  -26.0310  -23.9760 N.am  281  ILE281     -0.1979
    130  CA        51.8240  -27.2820  -23.2190 C.3   281  ILE281      0.1595
    131  C         51.5480  -27.0940  -21.7230 C.2   281  ILE281      0.2287
    132  O         50.6760  -27.7640  -21.1530 O.2   281  ILE281     -0.2864
    133  CB        53.1840  -27.9900  -23.4240 C.3   281  ILE281      0.0276
    134  CG1       53.3760  -28.3370  -24.9000 C.3   281  ILE281      0.0022
    135  CG2       53.2630  -29.2470  -22.5770 C.3   281  ILE281      0.0022
    136  CD1       54.6620  -29.0750  -25.1860 C.3   281  ILE281      0.0001
    137  N         47.8360  -25.6100  -20.9400 N.3   284  HIS284     -0.1241
    138  CA        46.8380  -26.6590  -21.1520 C.3   284  HIS284      0.1621
    139  C         46.8690  -27.6530  -20.0040 C.2   284  HIS284      0.2264
    140  O         45.8250  -27.9970  -19.4330 O.2   284  HIS284     -0.2867
    141  CB        47.0560  -27.3970  -22.4770 C.3   284  HIS284      0.0745
    142  CG        46.2140  -28.6270  -22.6210 C.ar  284  HIS284      0.0817
    143  ND1       46.6370  -29.8730  -22.2060 N.ar  284  HIS284     -0.2268
    144  CD2       44.9630  -28.8010  -23.1110 C.ar  284  HIS284      0.1154
    145  CE1       45.6860  -30.7590  -22.4370 C.ar  284  HIS284      0.1986
    146  NE2       44.6590  -30.1350  -22.9850 N.ar  284  HIS284     -0.2212
    147  N         43.8620  -28.3710  -17.2340 N.3   288  MET288     -0.1245
    148  CA        43.2350  -29.6770  -17.0550 C.3   288  MET288      0.1570
    149  C         43.2720  -30.1450  -15.6040 C.2   288  MET288      0.2261
    150  O         42.2780  -30.6660  -15.0960 O.2   288  MET288     -0.2867
    151  CB        43.8710  -30.7220  -17.9780 C.3   288  MET288      0.0387
    152  CG        43.6000  -30.4720  -19.4510 C.3   288  MET288      0.0595
    153  SD        41.8410  -30.1950  -19.7520 S.3   288  MET288     -0.1393
    154  CE        41.8930  -29.5040  -21.3990 C.3   288  MET288      0.0692
@<TRIPOS>BOND
     1    89    87   ar
     2    87    88   ar
     3    87    86    1
     4    86    83    1
     5    83    82    1
     6    83    84    1
     7    98    97    1
     8    81    80    1
     9    82    78   am
    10    96    97    1
    11    96    95    1
    12    90    84   am
    13    90    91    1
    14    93    92    2
    15    79    78    2
    16    84    85    2
    17    80    77    1
    18    78    77    1
    19    95    94    1
    20    92    91    1
    21    94    91    1
    22    77    76    1
    23    76    66   am
    24    66    67    2
    25    66    65    1
    26   113   112    1
    27   114   112    1
    28    63    62    1
    29    75    74    1
    30   112   111    1
    31    72    74   ar
    32    72    70   ar
    33    74    73   ar
    34    65    64    1
    35    65    68    1
    36    62    59    1
    37    70    69   ar
    38    73    71   ar
    39    61    60    2
    40    64    60   am
    41    60    59    1
    42    69    71   ar
    43    69    68    1
    44    40    39    1
    45   111   108    1
    46    59    58    1
    47   107   108    1
    48   108   109    1
    49    39    41    1
    50    39    38    2
    51    58    52   am
    52    48    47    2
    53    49    47   am
    54    37    38    1
    55    37    36    1
    56    47    46    1
    57    52    53    2
    58    52    51    1
    59   109   110    2
    60    45    44    2
    61    51    50    1
    62    51    54    1
    63    36    35    1
    64    56    54    1
    65    44    50   am
    66    44    43    1
    67    46    43    1
    68    35    32    1
    69   101   102    2
    70   101   100    1
    71    54    55    1
    72    99   100    1
    73   121   120    1
    74    42    43    1
    75    42    33   am
    76   100   103    1
    77   122   120    1
    78    55    57    1
    79   120   119    1
    80    32    33    1
    81    32    31    1
    82    33    34    2
    83    31    25   am
    84    29    27    1
    85   103   104    1
    86   105   104    1
    87    25    24    1
    88    25    26    2
    89   119   116    1
    90    24    27    1
    91    24    23    1
    92   104   106    1
    93    28    27    1
    94    28    30    1
    95   115   116    1
    96   116   117    1
    97   128   127    1
    98   117   118    2
    99   127   124    1
   100   136   134    1
   101    13    14   ar
   102    13    11   ar
   103   134   133    1
   104    18    17    2
   105   124   123    1
   106   124   125    1
   107    17    16    1
   108     4     3    2
   109    14    12   ar
   110    11     8   ar
   111   125   129   am
   112   125   126    2
   113   129   130    1
   114     3     2    1
   115     3    15   am
   116     2     1    1
   117     2     5    1
   118   133   130    1
   119   133   135    1
   120    12    10   ar
   121    16    15    1
   122    16    19    1
   123   130   131    1
   124     8    10   ar
   125     8     6   ar
   126   144   146   ar
   127   144   142   ar
   128   146   145   ar
   129    10     9   ar
   130   142   141    1
   131   142   143   ar
   132    21    20    2
   133   141   138    1
   134   145   143   ar
   135     5     6    1
   136     6     7   ar
   137    19    20    1
   138    20    22   am
   139   131   132    2
   140     9     7   ar
   141   154   153    1
   142   138   137    1
   143   138   139    1
   144   139   140    2
   145   153   152    1
   146   152   151    1
   147   151   148    1
   148   147   148    1
   149   148   149    1
   150   149   150    2
