@<TRIPOS>MOLECULE
tmp/3wa0B01.pdb
 154 149 0 0 0
SMALL
GASTEIGER

@<TRIPOS>ATOM
      1  N         23.0620    8.8840   74.0440 N.3   236  TRP236     -0.1227
      2  CA        24.0490    9.5180   73.1580 C.3   236  TRP236      0.1737
      3  C         23.4320   10.3730   72.0550 C.2   236  TRP236      0.2595
      4  O         23.9050   11.4730   71.7870 O.2   236  TRP236     -0.2718
      5  CB        25.0010    8.4830   72.5390 C.3   236  TRP236      0.0564
      6  CG        25.9940    7.9690   73.5020 C.ar  236  TRP236      0.0003
      7  CD1       26.1860    6.6680   73.8650 C.ar  236  TRP236      0.0946
      8  CD2       26.9350    8.7420   74.2560 C.ar  236  TRP236      0.0152
      9  NE1       27.1960    6.5820   74.7910 N.ar  236  TRP236     -0.2442
     10  CE2       27.6690    7.8430   75.0530 C.ar  236  TRP236      0.0810
     11  CE3       27.2310   10.1090   74.3320 C.ar  236  TRP236      0.0012
     12  CZ2       28.6810    8.2650   75.9160 C.ar  236  TRP236      0.0191
     13  CZ3       28.2280   10.5260   75.1870 C.ar  236  TRP236      0.0001
     14  CH2       28.9430    9.6070   75.9700 C.ar  236  TRP236      0.0015
     15  N         22.3740    9.8660   71.4320 N.am  237  ASN237     -0.1974
     16  CA        21.6990   10.5810   70.3560 C.3   237  ASN237      0.1688
     17  C         20.9040   11.8060   70.8180 C.2   237  ASN237      0.2292
     18  O         20.4510   12.6010   69.9920 O.2   237  ASN237     -0.2864
     19  CB        20.7940    9.6300   69.5680 C.3   237  ASN237      0.1181
     20  CG        19.6940    9.0330   70.4240 C.2   237  ASN237      0.2629
     21  OD1       19.8060    8.9890   71.6470 O.2   237  ASN237     -0.2716
     22  ND2       18.6250    8.5650   69.7830 N.am  237  ASN237     -0.0877
     23  N         22.1620   14.0720   73.1140 N.3   239  ILE239     -0.1231
     24  CA        23.0930   15.1140   73.5470 C.3   239  ILE239      0.1692
     25  C         23.6340   15.8730   72.3400 C.2   239  ILE239      0.2592
     26  O         24.1110   15.2590   71.3820 O.2   239  ILE239     -0.2718
     27  CB        24.2960   14.5380   74.3240 C.3   239  ILE239      0.0266
     28  CG1       23.8160   13.6440   75.4730 C.3   239  ILE239      0.0019
     29  CG2       25.2110   15.6670   74.8280 C.3   239  ILE239      0.0020
     30  CD1       24.9260   13.0730   76.3040 C.3   239  ILE239      0.0001
     31  N         23.5350   17.2010   72.3690 N.am  240  ARG240     -0.1966
     32  CA        24.1250   18.0230   71.3080 C.3   240  ARG240      0.1729
     33  C         25.6360   18.1080   71.4720 C.2   240  ARG240      0.2616
     34  O         26.3670   17.9000   70.5200 O.2   240  ARG240     -0.2715
     35  CB        23.5170   19.4240   71.2810 C.3   240  ARG240      0.0348
     36  CG        23.9560   20.2470   70.0690 C.3   240  ARG240      0.0492
     37  CD        23.4570   21.6570   70.1930 C.3   240  ARG240      0.2205
     38  NE        23.9910   22.4490   69.0740 N.pl3 240  ARG240     -0.0865
     39  CZ        23.9370   23.7770   69.0680 C.cat 240  ARG240      0.5346
     40  NH1       23.4420   24.4420   70.1010 N.pl3 240  ARG240      0.1354
     41  NH2       24.4100   24.3940   67.9760 N.pl3 240  ARG240      0.1354
     42  N         26.0910   18.4380   72.6760 N.am  241  ASN241     -0.1958
     43  CA        27.5100   18.4670   72.9760 C.3   241  ASN241      0.1819
     44  C         27.8000   18.3800   74.4650 C.2   241  ASN241      0.2621
     45  O         26.9180   18.5290   75.2880 O.2   241  ASN241     -0.2715
     46  CB        28.1830   19.6990   72.3670 C.3   241  ASN241      0.1195
     47  CG        27.9030   20.9680   73.1490 C.2   241  ASN241      0.2630
     48  OD1       28.5340   21.2290   74.1750 O.2   241  ASN241     -0.2716
     49  ND2       26.9570   21.7650   72.6690 N.am  241  ASN241     -0.0877
     50  N         29.0600   18.1290   74.7900 N.am  242  ILE242     -0.1963
     51  CA        29.5610   18.1300   76.1630 C.3   242  ILE242      0.1727
     52  C         30.7930   19.0310   76.2760 C.2   242  ILE242      0.2617
     53  O         31.7930   18.8130   75.5930 O.2   242  ILE242     -0.2715
     54  CB        29.9730   16.7160   76.6160 C.3   242  ILE242      0.0290
     55  CG1       28.7980   15.7410   76.4700 C.3   242  ILE242      0.0022
     56  CG2       30.5160   16.7620   78.0390 C.3   242  ILE242      0.0023
     57  CD1       29.2320   14.2940   76.3520 C.3   242  ILE242      0.0001
     58  N         30.7240   20.0340   77.1430 N.am  243  SER243     -0.1936
     59  CA        31.8140   20.9900   77.2800 C.3   243  SER243      0.2055
     60  C         32.6580   20.7120   78.4980 C.2   243  SER243      0.2643
     61  O         32.1540   20.2430   79.5140 O.2   243  SER243     -0.2714
     62  CB        31.2850   22.4250   77.3260 C.3   243  SER243      0.2130
     63  OG        30.8810   22.8400   76.0320 O.3   243  SER243     -0.2179
     64  N         33.9540   20.9780   78.3840 N.am  244  TYR244     -0.1959
     65  CA        34.8390   20.8650   79.5340 C.3   244  TYR244      0.1771
     66  C         35.7830   22.0620   79.6790 C.2   244  TYR244      0.2620
     67  O         36.6350   22.3100   78.8210 O.2   244  TYR244     -0.2715
     68  CB        35.6320   19.5690   79.4690 C.3   244  TYR244      0.0574
     69  CG        36.6850   19.4480   80.5420 C.ar  244  TYR244     -0.0198
     70  CD1       36.3470   19.0980   81.8420 C.ar  244  TYR244     -0.0009
     71  CD2       38.0190   19.6640   80.2490 C.ar  244  TYR244     -0.0009
     72  CE1       37.3140   18.9760   82.8210 C.ar  244  TYR244      0.0417
     73  CE2       38.9920   19.5460   81.2140 C.ar  244  TYR244      0.0417
     74  CZ        38.6380   19.1970   82.4930 C.ar  244  TYR244      0.1957
     75  OH        39.6100   19.0850   83.4590 O.3   244  TYR244     -0.2866
     76  N         35.6180   22.7900   80.7800 N.am  245  SER245     -0.1936
     77  CA        36.4560   23.9380   81.1060 C.3   245  SER245      0.2055
     78  C         36.8450   23.8590   82.5810 C.2   245  SER245      0.2643
     79  O         35.9920   23.6920   83.4530 O.2   245  SER245     -0.2714
     80  CB        35.7590   25.2720   80.7860 C.3   245  SER245      0.2130
     81  OG        36.3970   26.3490   81.4630 O.3   245  SER245     -0.2179
     82  N         38.1410   23.9860   82.8520 N.am  246  ASP246     -0.1971
     83  CA        38.6830   23.7940   84.2030 C.3   246  ASP246      0.1709
     84  C         38.4320   22.3970   84.7380 C.2   246  ASP246      0.2293
     85  O         38.8490   21.4190   84.1410 O.2   246  ASP246     -0.2864
     86  CB        38.1440   24.8590   85.1830 C.3   246  ASP246      0.1436
     87  CG        39.1300   25.9730   85.4310 C.2   246  ASP246      0.3671
     88  OD1       40.0940   25.7380   86.1830 O.co2 246  ASP246     -0.2456
     89  OD2       38.9440   27.0590   84.8550 O.co2 246  ASP246     -0.2456
     90  N         20.0850   17.9710   73.3860 N.3   254  LEU254     -0.1245
     91  CA        19.6850   18.4390   72.0720 C.3   254  LEU254      0.1561
     92  C         18.4120   19.2510   72.2330 C.2   254  LEU254      0.2260
     93  O         18.2410   20.3040   71.6120 O.2   254  LEU254     -0.2867
     94  CB        19.4340   17.2440   71.1570 C.3   254  LEU254      0.0270
     95  CG        19.4810   17.4460   69.6450 C.3   254  LEU254      0.0019
     96  CD1       20.7210   18.2310   69.2360 C.3   254  LEU254      0.0001
     97  CD2       19.4590   16.0840   68.9700 C.3   254  LEU254      0.0001
     98  N         42.3900   15.7550   87.2640 N.3   268  LEU268     -0.1245
     99  CA        42.4610   16.0940   85.8480 C.3   268  LEU268      0.1561
    100  C         42.7390   14.8610   84.9900 C.2   268  LEU268      0.2260
    101  O         42.2040   14.7300   83.8880 O.2   268  LEU268     -0.2867
    102  CB        43.5310   17.1710   85.6190 C.3   268  LEU268      0.0270
    103  CG        43.8660   17.5970   84.1840 C.3   268  LEU268      0.0019
    104  CD1       42.6140   17.9840   83.4100 C.3   268  LEU268      0.0001
    105  CD2       44.8710   18.7450   84.1850 C.3   268  LEU268      0.0001
    106  N         40.2470   13.5490   81.5540 N.3   272  LYS272     -0.1245
    107  CA        40.5160   13.2520   80.1490 C.3   272  LYS272      0.1561
    108  C         40.0200   11.8540   79.7980 C.2   272  LYS272      0.2260
    109  O         39.4810   11.6350   78.7120 O.2   272  LYS272     -0.2867
    110  CB        42.0020   13.4060   79.8080 C.3   272  LYS272      0.0271
    111  CG        42.3280   13.1710   78.3240 C.3   272  LYS272      0.0035
    112  CD        41.4950   14.0690   77.4070 C.3   272  LYS272      0.0206
    113  CE        41.6860   13.7050   75.9380 C.3   272  LYS272      0.1093
    114  NZ        40.8460   14.5430   75.0320 N.3   272  LYS272     -0.1314
    115  N         36.5580   12.1170   79.1760 N.3   275  LEU275     -0.1245
    116  CA        36.4060   12.7110   77.8490 C.3   275  LEU275      0.1561
    117  C         36.6200   11.7040   76.7120 C.2   275  LEU275      0.2260
    118  O         35.8220   11.6460   75.7720 O.2   275  LEU275     -0.2867
    119  CB        37.3430   13.9170   77.7000 C.3   275  LEU275      0.0270
    120  CG        36.9470   15.1580   78.5080 C.3   275  LEU275      0.0019
    121  CD1       38.1060   16.1450   78.6340 C.3   275  LEU275      0.0001
    122  CD2       35.7360   15.8340   77.8910 C.3   275  LEU275      0.0001
    123  N         33.6890    9.2190   76.5360 N.3   278  CYS278     -0.1221
    124  CA        32.5120    9.8200   75.9110 C.3   278  CYS278      0.1808
    125  C         32.6180    9.7910   74.3980 C.2   278  CYS278      0.2601
    126  O         31.6700    9.4190   73.7140 O.2   278  CYS278     -0.2717
    127  CB        32.3160   11.2640   76.3700 C.3   278  CYS278      0.0970
    128  SG        31.9640   11.4590   78.1180 S.3   278  CYS278     -0.0800
    129  N         33.7810   10.1940   73.8840 N.am  279  ILE279     -0.1979
    130  CA        34.0150   10.2580   72.4420 C.3   279  ILE279      0.1595
    131  C         33.8890    8.8780   71.8330 C.2   279  ILE279      0.2287
    132  O         33.1250    8.6700   70.8850 O.2   279  ILE279     -0.2864
    133  CB        35.4230   10.8220   72.1080 C.3   279  ILE279      0.0276
    134  CG1       35.5810   12.2460   72.6530 C.3   279  ILE279      0.0022
    135  CG2       35.6540   10.8170   70.6120 C.3   279  ILE279      0.0022
    136  CD1       36.9640   12.8310   72.4640 C.3   279  ILE279      0.0001
    137  N         30.1360    7.4490   72.1720 N.3   282  HIS282     -0.1241
    138  CA        29.2510    8.1500   71.2480 C.3   282  HIS282      0.1621
    139  C         29.5250    7.7120   69.8160 C.2   282  HIS282      0.2264
    140  O         28.5950    7.4460   69.0450 O.2   282  HIS282     -0.2867
    141  CB        29.4210    9.6670   71.3370 C.3   282  HIS282      0.0745
    142  CG        28.7780   10.3960   70.1980 C.ar  282  HIS282      0.0817
    143  ND1       29.4530   10.7040   69.0360 N.ar  282  HIS282     -0.2268
    144  CD2       27.5090   10.8310   70.0220 C.ar  282  HIS282      0.1154
    145  CE1       28.6310   11.3150   68.2020 C.ar  282  HIS282      0.1986
    146  NE2       27.4460   11.4080   68.7770 N.ar  282  HIS282     -0.2212
    147  N         26.7830    5.7380   67.4180 N.3   286  MET286     -0.1245
    148  CA        26.3360    6.1750   66.0940 C.3   286  MET286      0.1570
    149  C         26.6370    5.1740   64.9810 C.2   286  MET286      0.2261
    150  O         25.7950    4.9460   64.1110 O.2   286  MET286     -0.2867
    151  CB        26.9310    7.5430   65.7490 C.3   286  MET286      0.0387
    152  CG        26.3430    8.6700   66.5720 C.3   286  MET286      0.0595
    153  SD        24.5590    8.7860   66.3390 S.3   286  MET286     -0.1393
    154  CE        24.1040    9.7420   67.7800 C.3   286  MET286      0.0692
@<TRIPOS>BOND
     1   150   149    2
     2   149   148    1
     3   151   148    1
     4   151   152    1
     5   148   147    1
     6   153   152    1
     7   153   154    1
     8    41    39    1
     9   145   146   ar
    10   145   143   ar
    11   146   144   ar
    12    97    95    1
    13   143   142   ar
    14   140   139    2
    15    39    38    2
    16    39    40    1
    17    38    37    1
    18    96    95    1
    19    19    16    1
    20    19    20    1
    21    95    94    1
    22    22    20   am
    23   139   138    1
    24    18    17    2
    25   144   142   ar
    26    36    37    1
    27    36    35    1
    28   142   141    1
    29    16    17    1
    30    16    15    1
    31    20    21    2
    32    34    33    2
    33   135   133    1
    34   132   131    2
    35    94    91    1
    36   138   141    1
    37   138   137    1
    38    35    32    1
    39    32    33    1
    40    32    31    1
    41    26    25    2
    42    15     3   am
    43    33    42   am
    44    93    92    2
    45     4     3    2
    46   131   130    1
    47     3     2    1
    48    91    92    1
    49    91    90    1
    50   133   130    1
    51   133   134    1
    52    25    31   am
    53    25    24    1
    54    46    43    1
    55    46    47    1
    56   130   129    1
    57   136   134    1
    58     5     2    1
    59     5     6    1
    60    49    47   am
    61    42    43    1
    62    43    44    1
    63    23    24    1
    64    47    48    2
    65     2     1    1
    66     6     7   ar
    67     6     8   ar
    68    24    27    1
    69   126   125    2
    70     7     9   ar
    71   129   125   am
    72     8    11   ar
    73     8    10   ar
    74    27    29    1
    75    27    28    1
    76    11    13   ar
    77   125   124    1
    78    44    50   am
    79    44    45    2
    80    50    51    1
    81     9    10   ar
    82   114   113    1
    83    10    12   ar
    84    13    14   ar
    85    28    30    1
    86    53    52    2
    87   118   117    2
    88   124   127    1
    89   124   123    1
    90    12    14   ar
    91   113   112    1
    92    63    62    1
    93    51    52    1
    94    51    54    1
    95    52    58   am
    96    57    55    1
    97   127   128    1
    98    55    54    1
    99    54    56    1
   100   117   116    1
   101    58    59    1
   102    59    62    1
   103    59    60    1
   104   112   111    1
   105   119   116    1
   106   119   120    1
   107   116   115    1
   108   122   120    1
   109   111   110    1
   110    64    60   am
   111    64    65    1
   112    60    61    2
   113   120   121    1
   114   109   108    2
   115    67    66    2
   116    68    65    1
   117    68    69    1
   118    65    66    1
   119    66    76   am
   120   108   107    1
   121   110   107    1
   122   107   106    1
   123    71    69   ar
   124    71    73   ar
   125    69    70   ar
   126    76    77    1
   127    80    77    1
   128    80    81    1
   129    77    78    1
   130    73    74   ar
   131    70    72   ar
   132    74    72   ar
   133    74    75    1
   134    78    82   am
   135    78    79    2
   136    82    83    1
   137   104   103    1
   138   101   100    2
   139    85    84    2
   140   103   105    1
   141   103   102    1
   142    83    84    1
   143    83    86    1
   144    89    87   ar
   145   100    99    1
   146    86    87    1
   147    87    88   ar
   148   102    99    1
   149    99    98    1
