@<TRIPOS>MOLECULE
tmp/3wa0B00.pdb
 114 106 0 0 0
SMALL
GASTEIGER

@<TRIPOS>ATOM
      1  N         46.7200    3.8720   76.2780 N.3    53  LEU53      -0.1231
      2  CA        47.7480    4.2260   75.3130 C.3    53  LEU53       0.1693
      3  C         47.1110    5.0020   74.1680 C.2    53  LEU53       0.2592
      4  O         46.0120    4.6770   73.7220 O.2    53  LEU53      -0.2718
      5  CB        48.4280    2.9670   74.7750 C.3    53  LEU53       0.0284
      6  CG        49.8490    3.1330   74.2380 C.3    53  LEU53       0.0019
      7  CD1       50.7910    3.4530   75.3810 C.3    53  LEU53       0.0001
      8  CD2       50.2990    1.8820   73.5030 C.3    53  LEU53       0.0001
      9  N         47.8010    6.0360   73.7050 N.am   54  LYS54      -0.1966
     10  CA        47.3020    6.8650   72.6190 C.3    54  LYS54       0.1728
     11  C         47.8270    6.3220   71.2970 C.2    54  LYS54       0.2616
     12  O         48.9660    5.8590   71.2170 O.2    54  LYS54      -0.2715
     13  CB        47.7380    8.3160   72.8170 C.3    54  LYS54       0.0311
     14  CG        47.2710    8.9400   74.1290 C.3    54  LYS54       0.0038
     15  CD        45.9800    9.7250   73.9530 C.3    54  LYS54       0.0206
     16  CE        45.6750   10.5750   75.1820 C.3    54  LYS54       0.1093
     17  NZ        44.5430   11.5170   74.9420 N.3    54  LYS54      -0.1314
     18  N         46.9540    6.3390   70.3140 N.am   55  MET55      -0.1963
     19  CA        47.2710    5.8380   69.0190 C.3    55  MET55       0.1736
     20  C         48.2600    6.7590   68.3410 C.2    55  MET55       0.2616
     21  O         49.2470    6.3140   67.7670 O.2    55  MET55      -0.2715
     22  CB        45.9970    5.7340   68.2010 C.3    55  MET55       0.0427
     23  CG        45.0450    4.6730   68.7090 C.3    55  MET55       0.0599
     24  SD        45.7670    3.0310   68.8430 S.3    55  MET55      -0.1393
     25  CE        45.4950    2.4090   67.2020 C.3    55  MET55       0.0692
     26  N         47.9850    8.0510   68.4320 N.am   56  ASP56      -0.1957
     27  CA        48.7420    9.0670   67.7280 C.3    56  ASP56       0.1840
     28  C         49.9260    9.5900   68.4990 C.2    56  ASP56       0.2621
     29  O         50.4920   10.6000   68.1360 O.2    56  ASP56      -0.2715
     30  CB        47.8340   10.2370   67.3960 C.3    56  ASP56       0.1450
     31  CG        47.0920   10.0370   66.1280 C.2    56  ASP56       0.3671
     32  OD1       46.9800    8.8850   65.6840 O.co2  56  ASP56      -0.2456
     33  OD2       46.6320   11.0340   65.5640 O.co2  56  ASP56      -0.2456
     34  N         50.2970    8.9110   69.5670 N.am   57  LYS57      -0.1977
     35  CA        51.4410    9.3340   70.3280 C.3    57  LYS57       0.1596
     36  C         52.4980    8.2660   70.3330 C.2    57  LYS57       0.2287
     37  O         52.2080    7.0890   70.2320 O.2    57  LYS57      -0.2864
     38  CB        51.0450    9.6840   71.7490 C.3    57  LYS57       0.0298
     39  CG        52.2310    9.9050   72.6560 C.3    57  LYS57       0.0038
     40  CD        51.8490    9.9990   74.1220 C.3    57  LYS57       0.0206
     41  CE        51.1010   11.2760   74.4230 C.3    57  LYS57       0.1093
     42  NZ        51.7360   12.4240   73.7340 N.3    57  LYS57      -0.1314
     43  N         38.0110   -1.7260   76.0770 N.3    77  LYS77      -0.1245
     44  CA        37.7270   -0.3690   76.5460 C.3    77  LYS77       0.1561
     45  C         36.2510    0.0190   76.3660 C.2    77  LYS77       0.2260
     46  O         35.7140    0.8740   77.0820 O.2    77  LYS77      -0.2867
     47  CB        38.6290    0.6010   75.7780 C.3    77  LYS77       0.0271
     48  CG        38.6190    2.0440   76.2400 C.3    77  LYS77       0.0035
     49  CD        39.5630    2.8630   75.3630 C.3    77  LYS77       0.0206
     50  CE        39.6350    4.3150   75.8000 C.3    77  LYS77       0.1093
     51  NZ        40.5330    5.0920   74.9060 N.3    77  LYS77      -0.1314
     52  N         23.5350   17.2010   72.3690 N.3   240  ARG240     -0.1231
     53  CA        24.1250   18.0230   71.3080 C.3   240  ARG240      0.1694
     54  C         25.6360   18.1080   71.4720 C.2   240  ARG240      0.2592
     55  O         26.3670   17.9000   70.5200 O.2   240  ARG240     -0.2718
     56  CB        23.5170   19.4240   71.2810 C.3   240  ARG240      0.0321
     57  CG        23.9560   20.2470   70.0690 C.3   240  ARG240      0.0489
     58  CD        23.4570   21.6570   70.1930 C.3   240  ARG240      0.2205
     59  NE        23.9910   22.4490   69.0740 N.pl3 240  ARG240     -0.0865
     60  CZ        23.9370   23.7770   69.0680 C.cat 240  ARG240      0.5346
     61  NH1       23.4420   24.4420   70.1010 N.pl3 240  ARG240      0.1354
     62  NH2       24.4100   24.3940   67.9760 N.pl3 240  ARG240      0.1354
     63  N         26.0910   18.4380   72.6760 N.am  241  ASN241     -0.1974
     64  CA        27.5100   18.4670   72.9760 C.3   241  ASN241      0.1688
     65  C         27.8000   18.3800   74.4650 C.2   241  ASN241      0.2292
     66  O         26.9180   18.5290   75.2880 O.2   241  ASN241     -0.2864
     67  CB        28.1830   19.6990   72.3670 C.3   241  ASN241      0.1181
     68  CG        27.9030   20.9680   73.1490 C.2   241  ASN241      0.2629
     69  OD1       28.5340   21.2290   74.1750 O.2   241  ASN241     -0.2716
     70  ND2       26.9570   21.7650   72.6690 N.am  241  ASN241     -0.0877
     71  N         24.9970   19.2060   77.4550 N.3   252  LYS252     -0.1245
     72  CA        23.9500   19.9980   76.8260 C.3   252  LYS252      0.1561
     73  C         23.0430   19.1460   75.9640 C.2   252  LYS252      0.2260
     74  O         23.4600   18.6610   74.9140 O.2   252  LYS252     -0.2867
     75  CB        24.5400   21.1520   76.0070 C.3   252  LYS252      0.0271
     76  CG        25.2340   22.2080   76.8560 C.3   252  LYS252      0.0035
     77  CD        25.7350   23.3890   76.0220 C.3   252  LYS252      0.0206
     78  CE        24.5850   24.2570   75.5230 C.3   252  LYS252      0.1093
     79  NZ        25.0720   25.5580   74.9790 N.3   252  LYS252     -0.1314
     80  N         16.0060   21.8180   73.7030 N.3   256  LYS256     -0.1245
     81  CA        16.1900   23.1040   74.3710 C.3   256  LYS256      0.1561
     82  C         15.2120   23.2800   75.5300 C.2   256  LYS256      0.2260
     83  O         15.3510   24.2020   76.3340 O.2   256  LYS256     -0.2867
     84  CB        16.0470   24.2570   73.3750 C.3   256  LYS256      0.0271
     85  CG        17.1170   24.2760   72.2950 C.3   256  LYS256      0.0035
     86  CD        18.5120   24.4800   72.8870 C.3   256  LYS256      0.0206
     87  CE        19.5960   24.3630   71.8220 C.3   256  LYS256      0.1093
     88  NZ        19.4450   25.3750   70.7390 N.3   256  LYS256     -0.1314
     89  N         40.2470   13.5490   81.5540 N.3   272  LYS272     -0.1245
     90  CA        40.5160   13.2520   80.1490 C.3   272  LYS272      0.1561
     91  C         40.0200   11.8540   79.7980 C.2   272  LYS272      0.2260
     92  O         39.4810   11.6350   78.7120 O.2   272  LYS272     -0.2867
     93  CB        42.0020   13.4060   79.8080 C.3   272  LYS272      0.0271
     94  CG        42.3280   13.1710   78.3240 C.3   272  LYS272      0.0035
     95  CD        41.4950   14.0690   77.4070 C.3   272  LYS272      0.0206
     96  CE        41.6860   13.7050   75.9380 C.3   272  LYS272      0.1093
     97  NZ        40.8460   14.5430   75.0320 N.3   272  LYS272     -0.1314
     98  N         37.6940   10.9200   76.8060 N.3   276  GLN276     -0.1245
     99  CA        37.9700    9.8480   75.8470 C.3   276  GLN276      0.1566
    100  C         36.7990    8.8860   75.7460 C.2   276  GLN276      0.2260
    101  O         36.3450    8.5330   74.6490 O.2   276  GLN276     -0.2867
    102  CB        39.1770    9.0190   76.2870 C.3   276  GLN276      0.0367
    103  CG        40.5170    9.7080   76.2960 C.3   276  GLN276      0.0905
    104  CD        41.6410    8.7190   76.5590 C.2   276  GLN276      0.2608
    105  OE1       41.8340    7.7680   75.7990 O.2   276  GLN276     -0.2717
    106  NE2       42.3720    8.9250   77.6490 N.am  276  GLN276     -0.0878
    107  N         33.7810   10.1940   73.8840 N.3   279  ILE279     -0.1245
    108  CA        34.0150   10.2580   72.4420 C.3   279  ILE279      0.1561
    109  C         33.8890    8.8780   71.8330 C.2   279  ILE279      0.2260
    110  O         33.1250    8.6700   70.8850 O.2   279  ILE279     -0.2867
    111  CB        35.4230   10.8220   72.1080 C.3   279  ILE279      0.0252
    112  CG1       35.5810   12.2460   72.6530 C.3   279  ILE279      0.0019
    113  CG2       35.6540   10.8170   70.6120 C.3   279  ILE279      0.0019
    114  CD1       36.9640   12.8310   72.4640 C.3   279  ILE279      0.0001
@<TRIPOS>BOND
     1    33    31   ar
     2    32    31   ar
     3    31    30    1
     4    25    24    1
     5    30    27    1
     6    27    26    1
     7    27    28    1
     8    21    20    2
     9    62    60    1
    10    29    28    2
    11    22    23    1
    12    22    19    1
    13    20    26   am
    14    20    19    1
    15    28    34   am
    16    23    24    1
    17    19    18    1
    18    60    59    2
    19    60    61    1
    20    59    58    1
    21    34    35    1
    22    57    58    1
    23    57    56    1
    24    37    36    2
    25    18    11   am
    26    35    36    1
    27    35    38    1
    28    55    54    2
    29   113   111    1
    30    88    87    1
    31   110   109    2
    32    12    11    2
    33    56    53    1
    34    11    10    1
    35    53    54    1
    36    53    52    1
    37    54    63   am
    38    38    39    1
    39    87    86    1
    40   109   108    1
    41   111   108    1
    42   111   112    1
    43    85    86    1
    44    85    84    1
    45    67    64    1
    46    67    68    1
    47   108   107    1
    48   114   112    1
    49    10    13    1
    50    10     9    1
    51    39    40    1
    52    70    68   am
    53    63    64    1
    54    13    14    1
    55    64    65    1
    56    68    69    2
    57    84    81    1
    58     8     6    1
    59    80    81    1
    60     9     3   am
    61     4     3    2
    62    42    41    1
    63    15    14    1
    64    15    16    1
    65    40    41    1
    66     3     2    1
    67     6     5    1
    68     6     7    1
    69    81    82    1
    70    65    66    2
    71   101   100    2
    72     5     2    1
    73    51    50    1
    74    74    73    2
    75    17    16    1
    76    79    78    1
    77    97    96    1
    78     2     1    1
    79    49    50    1
    80    49    48    1
    81    78    77    1
    82    82    83    2
    83   100    99    1
    84    47    48    1
    85    47    44    1
    86   105   104    2
    87    99   102    1
    88    99    98    1
    89    96    95    1
    90    73    72    1
    91    75    72    1
    92    75    76    1
    93    77    76    1
    94    43    44    1
    95   102   103    1
    96   103   104    1
    97    45    44    1
    98    45    46    2
    99   104   106   am
   100    72    71    1
   101    95    94    1
   102    94    93    1
   103    92    91    2
   104    91    90    1
   105    93    90    1
   106    90    89    1
