@<TRIPOS>MOLECULE
tmp/3wa0F00.pdb
 108 104 0 0 0
SMALL
GASTEIGER

@<TRIPOS>ATOM
      1  N         26.1960   30.5990  -70.9880 N.3   242  ARG242     -0.1231
      2  CA        26.6050   30.2180  -72.3360 C.3   242  ARG242      0.1694
      3  C         28.1040   30.4210  -72.5530 C.2   242  ARG242      0.2592
      4  O         28.7960   29.5480  -73.0830 O.2   242  ARG242     -0.2718
      5  CB        25.8250   31.0180  -73.3730 C.3   242  ARG242      0.0321
      6  CG        26.1290   30.4860  -74.7620 C.3   242  ARG242      0.0489
      7  CD        25.3100   31.2380  -75.7850 C.3   242  ARG242      0.2205
      8  NE        25.5160   32.6610  -75.6220 N.pl3 242  ARG242     -0.0865
      9  CZ        24.4750   33.4830  -75.7090 C.cat 242  ARG242      0.5346
     10  NH1       23.2610   32.9910  -75.9520 N.pl3 242  ARG242      0.1354
     11  NH2       24.6400   34.7930  -75.5270 N.pl3 242  ARG242      0.1354
     12  N         28.6030   31.5790  -72.1370 N.am  243  ASN243     -0.1960
     13  CA        29.9690   31.9680  -72.4600 C.3   243  ASN243      0.1819
     14  C         30.5990   32.9250  -71.4350 C.2   243  ASN243      0.2621
     15  O         29.8990   33.7040  -70.7900 O.2   243  ASN243     -0.2715
     16  CB        29.9760   32.5870  -73.8660 C.3   243  ASN243      0.1195
     17  CG        31.3570   32.9760  -74.3380 C.2   243  ASN243      0.2630
     18  OD1       32.1130   32.1400  -74.8340 O.2   243  ASN243     -0.2716
     19  ND2       31.6880   34.2580  -74.2120 N.am  243  ASN243     -0.0877
     20  N         31.9180   32.8510  -71.2780 N.am  244  ILE244     -0.1963
     21  CA        32.6510   33.8530  -70.5090 C.3   244  ILE244      0.1727
     22  C         33.8020   34.4230  -71.3360 C.2   244  ILE244      0.2617
     23  O         34.6580   33.6800  -71.8230 O.2   244  ILE244     -0.2715
     24  CB        33.2260   33.2860  -69.2000 C.3   244  ILE244      0.0290
     25  CG1       32.1100   32.7930  -68.2820 C.3   244  ILE244      0.0022
     26  CG2       34.0550   34.3420  -68.4830 C.3   244  ILE244      0.0023
     27  CD1       32.6290   32.1680  -67.0120 C.3   244  ILE244      0.0001
     28  N         33.8240   35.7420  -71.4830 N.am  245  SER245     -0.1936
     29  CA        34.8420   36.3920  -72.2960 C.3   245  SER245      0.2055
     30  C         35.8260   37.1620  -71.4390 C.2   245  SER245      0.2643
     31  O         35.4400   37.8220  -70.4750 O.2   245  SER245     -0.2714
     32  CB        34.2010   37.3410  -73.3170 C.3   245  SER245      0.2130
     33  OG        33.4100   36.6330  -74.2540 O.3   245  SER245     -0.2179
     34  N         37.1000   37.0760  -71.7990 N.am  246  TYR246     -0.1959
     35  CA        38.1170   37.8920  -71.1540 C.3   246  TYR246      0.1771
     36  C         39.0740   38.5510  -72.1540 C.2   246  TYR246      0.2620
     37  O         39.7210   37.8770  -72.9580 O.2   246  TYR246     -0.2715
     38  CB        38.9090   37.0810  -70.1250 C.3   246  TYR246      0.0574
     39  CG        40.0110   37.8860  -69.4820 C.ar  246  TYR246     -0.0198
     40  CD1       39.7220   38.8450  -68.5190 C.ar  246  TYR246     -0.0009
     41  CD2       41.3380   37.7030  -69.8500 C.ar  246  TYR246     -0.0009
     42  CE1       40.7220   39.5960  -67.9360 C.ar  246  TYR246      0.0417
     43  CE2       42.3480   38.4520  -69.2740 C.ar  246  TYR246      0.0417
     44  CZ        42.0330   39.3910  -68.3130 C.ar  246  TYR246      0.1957
     45  OH        43.0280   40.1470  -67.7320 O.3   246  TYR246     -0.2866
     46  N         39.1460   39.8760  -72.0940 N.am  247  SER247     -0.1936
     47  CA        40.1400   40.6410  -72.8400 C.3   247  SER247      0.2055
     48  C         40.4810   41.8680  -72.0090 C.2   247  SER247      0.2643
     49  O         39.6630   42.3060  -71.1970 O.2   247  SER247     -0.2714
     50  CB        39.6160   41.0430  -74.2200 C.3   247  SER247      0.2130
     51  OG        38.6210   42.0460  -74.1290 O.3   247  SER247     -0.2179
     52  N         41.6790   42.4130  -72.2130 N.am  248  ASP248     -0.1971
     53  CA        42.2120   43.4630  -71.3490 C.3   248  ASP248      0.1709
     54  C         42.1290   42.9790  -69.9170 C.2   248  ASP248      0.2293
     55  O         42.4850   41.8420  -69.6200 O.2   248  ASP248     -0.2864
     56  CB        41.4410   44.7790  -71.5160 C.3   248  ASP248      0.1436
     57  CG        42.3030   45.9010  -72.0760 C.2   248  ASP248      0.3671
     58  OD1       43.4920   45.9860  -71.6930 O.co2 248  ASP248     -0.2456
     59  OD2       41.7840   46.7000  -72.8900 O.co2 248  ASP248     -0.2456
     60  N         46.8740   40.5740  -62.9390 N.3   270  LEU270     -0.1245
     61  CA        46.8820   39.7080  -64.1080 C.3   270  LEU270      0.1561
     62  C         46.8750   38.2330  -63.7210 C.2   270  LEU270      0.2260
     63  O         46.1730   37.4220  -64.3280 O.2   270  LEU270     -0.2867
     64  CB        48.0920   40.0290  -64.9910 C.3   270  LEU270      0.0270
     65  CG        47.8810   40.0560  -66.5090 C.3   270  LEU270      0.0019
     66  CD1       49.1170   40.6120  -67.1920 C.3   270  LEU270      0.0001
     67  CD2       47.5470   38.6720  -67.0580 C.3   270  LEU270      0.0001
     68  N         43.9770   34.7340  -64.5740 N.3   274  LYS274     -0.1245
     69  CA        44.2130   33.3930  -65.0890 C.3   274  LYS274      0.1561
     70  C         43.7220   32.3490  -64.0950 C.2   274  LYS274      0.2260
     71  O         43.1850   31.3070  -64.4910 O.2   274  LYS274     -0.2867
     72  CB        45.6880   33.1790  -65.4330 C.3   274  LYS274      0.0271
     73  CG        46.1990   34.0040  -66.5950 C.3   274  LYS274      0.0035
     74  CD        47.6860   33.7440  -66.8500 C.3   274  LYS274      0.0206
     75  CE        48.2050   34.5530  -68.0360 C.3   274  LYS274      0.1093
     76  NZ        49.6590   34.3270  -68.2810 N.3   274  LYS274     -0.1314
     77  N         40.0850   32.1850  -64.4950 N.3   277  LEU277     -0.1245
     78  CA        39.7500   31.4530  -65.7040 C.3   277  LEU277      0.1561
     79  C         39.9230   29.9510  -65.5010 C.2   277  LEU277      0.2260
     80  O         39.0550   29.1660  -65.8890 O.2   277  LEU277     -0.2867
     81  CB        40.5810   31.9630  -66.8840 C.3   277  LEU277      0.0270
     82  CG        40.2330   33.3970  -67.2940 C.3   277  LEU277      0.0019
     83  CD1       41.3570   34.0410  -68.0860 C.3   277  LEU277      0.0001
     84  CD2       38.9360   33.4200  -68.0830 C.3   277  LEU277      0.0001
     85  N         37.0200   28.7560  -63.3570 N.3   280  CYS280     -0.1221
     86  CA        35.8110   28.7150  -64.1800 C.3   280  CYS280      0.1808
     87  C         35.7770   27.4730  -65.0540 C.2   280  CYS280      0.2601
     88  O         34.7730   26.7590  -65.0960 O.2   280  CYS280     -0.2717
     89  CB        35.6940   29.9580  -65.0580 C.3   280  CYS280      0.0970
     90  SG        35.3030   31.4350  -64.1550 S.3   280  CYS280     -0.0800
     91  N         36.8830   27.2140  -65.7450 N.am  281  ILE281     -0.1979
     92  CA        36.9640   26.0600  -66.6320 C.3   281  ILE281      0.1595
     93  C         36.8240   24.7630  -65.8510 C.2   281  ILE281      0.2287
     94  O         36.0530   23.8790  -66.2280 O.2   281  ILE281     -0.2864
     95  CB        38.2840   26.0430  -67.4370 C.3   281  ILE281      0.0276
     96  CG1       38.3650   27.2710  -68.3480 C.3   281  ILE281      0.0022
     97  CG2       38.3920   24.7660  -68.2640 C.3   281  ILE281      0.0022
     98  CD1       39.7300   27.4770  -68.9760 C.3   281  ILE281      0.0001
     99  N         33.1550   24.4630  -64.1260 N.3   284  HIS284     -0.1241
    100  CA        32.1580   24.2280  -65.1650 C.3   284  HIS284      0.1621
    101  C         32.2270   22.7910  -65.6690 C.2   284  HIS284      0.2264
    102  O         31.2080   22.1190  -65.8130 O.2   284  HIS284     -0.2867
    103  CB        32.3370   25.1970  -66.3350 C.3   284  HIS284      0.0745
    104  CG        31.3950   24.9380  -67.4660 C.ar  284  HIS284      0.0817
    105  ND1       31.6040   23.9390  -68.3950 N.ar  284  HIS284     -0.2268
    106  CD2       30.2210   25.5240  -67.8010 C.ar  284  HIS284      0.1154
    107  CE1       30.6050   23.9280  -69.2580 C.ar  284  HIS284      0.1986
    108  NE2       29.7530   24.8830  -68.9220 N.ar  284  HIS284     -0.2212
@<TRIPOS>BOND
     1    10     9    1
     2     7     8    1
     3     7     6    1
     4     9     8    2
     5     9    11    1
     6    18    17    2
     7     6     5    1
     8    17    19   am
     9    17    16    1
    10    33    32    1
    11    50    51    1
    12    50    47    1
    13    16    13    1
    14     5     2    1
    15    32    29    1
    16     4     3    2
    17    37    36    2
    18    59    57   ar
    19    47    46    1
    20    47    48    1
    21     3     2    1
    22     3    12   am
    23    13    12    1
    24    13    14    1
    25     2     1    1
    26    29    28    1
    27    29    30    1
    28    52    48   am
    29    52    53    1
    30    36    46   am
    31    36    35    1
    32    57    58   ar
    33    57    56    1
    34    48    49    2
    35    23    22    2
    36    34    30   am
    37    34    35    1
    38    56    53    1
    39    28    22   am
    40    30    31    2
    41    14    20   am
    42    14    15    2
    43    53    54    1
    44    22    21    1
    45    20    21    1
    46    35    38    1
    47    21    24    1
    48    38    39    1
    49    54    55    2
    50    41    39   ar
    51    41    43   ar
    52    39    40   ar
    53    43    44   ar
    54   107   108   ar
    55   107   105   ar
    56    24    26    1
    57    24    25    1
    58    98    96    1
    59   108   106   ar
    60    40    42   ar
    61   105   104   ar
    62    96    95    1
    63    44    42   ar
    64    44    45    1
    65    25    27    1
    66    76    75    1
    67    97    95    1
    68    83    82    1
    69    84    82    1
    70    75    74    1
    71   106   104   ar
    72   104   103    1
    73    95    92    1
    74    82    81    1
    75    66    65    1
    76    67    65    1
    77    81    78    1
    78    74    73    1
    79    92    93    1
    80    92    91    1
    81    73    72    1
    82    65    64    1
    83   103   100    1
    84    94    93    2
    85    80    79    2
    86   102   101    2
    87    91    87   am
    88    78    79    1
    89    78    77    1
    90   101   100    1
    91    72    69    1
    92   100    99    1
    93    88    87    2
    94    69    68    1
    95    69    70    1
    96    89    86    1
    97    89    90    1
    98    87    86    1
    99    64    61    1
   100    71    70    2
   101    63    62    2
   102    86    85    1
   103    61    62    1
   104    61    60    1
