@<TRIPOS>MOLECULE
tmp/3wa2A14.pdb
 94 92 0 0 0
SMALL
GASTEIGER

@<TRIPOS>ATOM
      1  N         13.6350   -1.1580   30.2040 N.3    92  VAL92      -0.1231
      2  CA        13.7390   -0.5230   28.8900 C.3    92  VAL92       0.1692
      3  C         14.2050    0.9330   29.0860 C.2    92  VAL92       0.2592
      4  O         13.7380    1.6180   29.9930 O.2    92  VAL92      -0.2718
      5  CB        12.3820   -0.5900   28.1280 C.3    92  VAL92       0.0266
      6  CG1       12.4950    0.0500   26.7720 C.3    92  VAL92       0.0020
      7  CG2       11.9310   -2.0280   27.9580 C.3    92  VAL92       0.0020
      8  N         15.1450    1.3840   28.2580 N.am   93  LEU93      -0.1966
      9  CA        15.6650    2.7550   28.3340 C.3    93  LEU93       0.1728
     10  C         14.8880    3.6550   27.4210 C.2    93  LEU93       0.2616
     11  O         14.5100    3.2580   26.3120 O.2    93  LEU93      -0.2715
     12  CB        17.1080    2.8020   27.8930 C.3    93  LEU93       0.0311
     13  CG        18.0830    2.0940   28.8110 C.3    93  LEU93       0.0022
     14  CD1       19.4160    1.9450   28.1230 C.3    93  LEU93       0.0001
     15  CD2       18.2610    2.8580   30.1120 C.3    93  LEU93       0.0001
     16  N         14.7310    4.8990   27.8510 N.am   94  GLU94      -0.1977
     17  CA        14.1050    5.9180   27.0350 C.3    94  GLU94       0.1602
     18  C         14.7860    5.9970   25.6640 C.2    94  GLU94       0.2287
     19  O         14.0980    6.0990   24.6390 O.2    94  GLU94      -0.2864
     20  CB        14.1170    7.2690   27.7410 C.3    94  GLU94       0.0415
     21  CG        13.0060    8.2000   27.2670 C.3    94  GLU94       0.1163
     22  CD        12.8040    9.4000   28.1780 C.2    94  GLU94       0.3649
     23  OE1       13.3350    9.3950   29.3110 O.co2  94  GLU94      -0.2457
     24  OE2       12.1090   10.3500   27.7610 O.co2  94  GLU94      -0.2457
     25  N         15.9430    3.8890   23.8900 N.3    96  GLU96      -0.1231
     26  CA        15.5320    2.7950   23.0030 C.3    96  GLU96       0.1699
     27  C         14.2140    3.0860   22.2570 C.2    96  GLU96       0.2592
     28  O         13.7810    2.2900   21.4260 O.2    96  GLU96      -0.2718
     29  CB        15.5070    1.4820   23.7850 C.3    96  GLU96       0.0402
     30  CG        16.9110    1.0970   24.1460 C.3    96  GLU96       0.1161
     31  CD        17.0490    0.0900   25.2700 C.2    96  GLU96       0.3649
     32  OE1       18.1690   -0.4470   25.4200 O.co2  96  GLU96      -0.2457
     33  OE2       16.0870   -0.1710   26.0210 O.co2  96  GLU96      -0.2457
     34  N         13.6040    4.2510   22.4870 N.am   97  PHE97      -0.1976
     35  CA        12.2970    4.5360   21.8790 C.3    97  PHE97       0.1639
     36  C         12.2770    4.3180   20.3800 C.2    97  PHE97       0.2290
     37  O         11.3010    3.7840   19.8290 O.2    97  PHE97      -0.2864
     38  CB        11.8450    5.9770   22.1430 C.3    97  PHE97       0.0560
     39  CG        10.8570    6.4630   21.1240 C.ar   97  PHE97      -0.0200
     40  CD1        9.6250    5.8410   20.9940 C.ar   97  PHE97      -0.0042
     41  CD2       11.1720    7.4980   20.2610 C.ar   97  PHE97      -0.0042
     42  CE1        8.7240    6.2540   20.0400 C.ar   97  PHE97      -0.0003
     43  CE2       10.2610    7.9230   19.3060 C.ar   97  PHE97      -0.0003
     44  CZ         9.0370    7.2970   19.1970 C.ar   97  PHE97      -0.0000
     45  N          9.5160    0.1200   21.0830 N.3   128  PRO128     -0.2116
     46  CA        10.3700   -0.8230   21.8100 C.3   128  PRO128      0.1372
     47  C          9.4750   -1.7840   22.6110 C.2   128  PRO128      0.2244
     48  O          9.2220   -1.4940   23.7910 O.2   128  PRO128     -0.2868
     49  CB        11.1990    0.0970   22.7060 C.3   128  PRO128      0.0268
     50  CG        10.2890    1.2490   22.9530 C.3   128  PRO128      0.0207
     51  CD         9.4270    1.4230   21.7580 C.3   128  PRO128      0.0892
     52  N          8.9280   -1.0310   32.0150 N.3   294  TYR294     -0.1241
     53  CA         8.9560    0.3210   31.4380 C.3   294  TYR294      0.1605
     54  C          9.1920    1.4440   32.4540 C.2   294  TYR294      0.2264
     55  O          9.8070    2.4390   32.0790 O.2   294  TYR294     -0.2867
     56  CB         7.7010    0.5710   30.5950 C.3   294  TYR294      0.0534
     57  CG         7.6850   -0.2400   29.3230 C.ar  294  TYR294     -0.0201
     58  CD1        8.4220    0.1820   28.2080 C.ar  294  TYR294     -0.0009
     59  CD2        6.9850   -1.4420   29.2160 C.ar  294  TYR294     -0.0009
     60  CE1        8.4470   -0.5470   27.0460 C.ar  294  TYR294      0.0417
     61  CE2        6.9910   -2.1770   28.0310 C.ar  294  TYR294      0.0417
     62  CZ         7.7270   -1.7200   26.9520 C.ar  294  TYR294      0.1957
     63  OH         7.7210   -2.4670   25.7990 O.3   294  TYR294     -0.2866
     64  N          7.2450    8.0800   33.0600 N.3   299  TYR299     -0.1241
     65  CA         6.3800    8.5880   32.0000 C.3   299  TYR299      0.1605
     66  C          5.1730    9.3260   32.5570 C.2   299  TYR299      0.2264
     67  O          4.2030    9.5800   31.8430 O.2   299  TYR299     -0.2867
     68  CB         6.0090    7.4570   31.0390 C.3   299  TYR299      0.0534
     69  CG         7.2620    6.8400   30.4660 C.ar  299  TYR299     -0.0201
     70  CD1        8.1130    7.5910   29.6560 C.ar  299  TYR299     -0.0009
     71  CD2        7.6610    5.5600   30.8320 C.ar  299  TYR299     -0.0009
     72  CE1        9.2900    7.0760   29.1730 C.ar  299  TYR299      0.0417
     73  CE2        8.8420    5.0170   30.3460 C.ar  299  TYR299      0.0417
     74  CZ         9.6720    5.7940   29.5250 C.ar  299  TYR299      0.1957
     75  OH        10.8720    5.3220   29.0350 O.3   299  TYR299     -0.2866
     76  N          1.7560    7.5360   30.7510 N.3   370  THR370     -0.1203
     77  CA         1.5270    7.0530   29.3960 C.3   370  THR370      0.1994
     78  C          2.5930    6.0250   29.0550 C.2   370  THR370      0.2618
     79  O          3.7760    6.3260   29.1370 O.2   370  THR370     -0.2717
     80  CB         1.6100    8.2020   28.3930 C.3   370  THR370      0.1784
     81  OG1        0.7020    9.2570   28.7570 O.3   370  THR370     -0.2211
     82  CG2        1.3190    7.7030   26.9920 C.3   370  THR370      0.0376
     83  N          2.1560    4.8300   28.6510 N.am  371  ILE371     -0.1965
     84  CA         3.0560    3.7760   28.2170 C.3   371  ILE371      0.1727
     85  C          2.5800    3.3570   26.8420 C.2   371  ILE371      0.2616
     86  O          1.6150    2.6150   26.7160 O.2   371  ILE371     -0.2715
     87  CB         3.0410    2.5540   29.1500 C.3   371  ILE371      0.0290
     88  CG1        3.5770    2.9330   30.5290 C.3   371  ILE371      0.0022
     89  CG2        3.8550    1.4230   28.5430 C.3   371  ILE371      0.0023
     90  CD1        2.5010    3.4200   31.4790 C.3   371  ILE371      0.0001
     91  N          3.2290    3.8750   25.8120 N.am  372  GLY372     -0.1955
     92  CA         2.8560    3.5220   24.4640 C.3   372  GLY372      0.1869
     93  C          1.4600    4.0080   24.1390 C.2   372  GLY372      0.2309
     94  O          1.1790    5.2010   24.1940 O.2   372  GLY372     -0.2863
@<TRIPOS>BOND
     1    44    43   ar
     2    44    42   ar
     3    43    41   ar
     4    37    36    2
     5    42    40   ar
     6    41    39   ar
     7    36    35    1
     8    40    39   ar
     9    45    51    1
    10    45    46    1
    11    39    38    1
    12    28    27    2
    13    51    50    1
    14    46    47    1
    15    46    49    1
    16    35    38    1
    17    35    34    1
    18    27    34   am
    19    27    26    1
    20    47    48    2
    21    49    50    1
    22    26    29    1
    23    26    25    1
    24    29    30    1
    25    93    94    2
    26    93    92    1
    27    30    31    1
    28    92    91    1
    29    19    18    2
    30    31    32   ar
    31    31    33   ar
    32    18    17    1
    33    63    62    1
    34    91    85   am
    35    11    10    2
    36    86    85    2
    37     6     5    1
    38    85    84    1
    39    62    60   ar
    40    62    61   ar
    41    82    80    1
    42    17    20    1
    43    17    16    1
    44    60    58   ar
    45    21    20    1
    46    21    22    1
    47    10    16   am
    48    10     9    1
    49    24    22   ar
    50    12     9    1
    51    12    13    1
    52     7     5    1
    53    61    59   ar
    54    14    13    1
    55     5     2    1
    56    22    23   ar
    57    58    57   ar
    58    84    83    1
    59    84    87    1
    60     8     9    1
    61     8     3   am
    62    80    81    1
    63    80    77    1
    64    89    87    1
    65    83    78   am
    66    13    15    1
    67     2     3    1
    68     2     1    1
    69    75    74    1
    70    78    79    2
    71    78    77    1
    72     3     4    2
    73    87    88    1
    74    72    74   ar
    75    72    70   ar
    76    59    57   ar
    77    57    56    1
    78    77    76    1
    79    74    73   ar
    80    70    69   ar
    81    73    71   ar
    82    69    71   ar
    83    69    68    1
    84    88    90    1
    85    56    53    1
    86    68    65    1
    87    53    52    1
    88    53    54    1
    89    67    66    2
    90    65    66    1
    91    65    64    1
    92    55    54    2
