@<TRIPOS>MOLECULE
tmp/3wa2A13.pdb
 86 82 0 0 0
SMALL
GASTEIGER

@<TRIPOS>ATOM
      1  N         16.0220    4.9050   48.5740 N.3    37  LEU37      -0.1231
      2  CA        15.5650    3.8200   49.4180 C.3    37  LEU37       0.1693
      3  C         14.8720    4.3310   50.6650 C.2    37  LEU37       0.2592
      4  O         15.1730    5.4040   51.1800 O.2    37  LEU37      -0.2718
      5  CB        16.7440    2.9390   49.8080 C.3    37  LEU37       0.0284
      6  CG        17.4120    2.2330   48.6250 C.3    37  LEU37       0.0019
      7  CD1       18.6590    1.5440   49.0530 C.3    37  LEU37       0.0001
      8  CD2       16.4680    1.2160   48.0450 C.3    37  LEU37       0.0001
      9  N         13.9070    3.5610   51.1400 N.am   38  ASP38      -0.1960
     10  CA        13.2260    3.9040   52.3710 C.3    38  ASP38       0.1825
     11  C         14.1510    3.6410   53.5480 C.2    38  ASP38       0.2464
     12  O         15.0670    2.8320   53.4440 O.2    38  ASP38      -0.2730
     13  CB        11.9660    3.0760   52.5140 C.3    38  ASP38       0.1450
     14  CG        10.9610    3.3790   51.4350 C.2    38  ASP38       0.3671
     15  OD1       11.0430    4.4650   50.8030 O.co2  38  ASP38      -0.2456
     16  OD2       10.0800    2.5410   51.2270 O.co2  38  ASP38      -0.2456
     17  N         13.8990    4.3170   54.6700 N.am   39  PRO39      -0.2715
     18  CA        14.6970    4.0920   55.8730 C.3    39  PRO39       0.1536
     19  C         14.5460    2.6720   56.3560 C.2    39  PRO39       0.2598
     20  O         13.4650    2.1040   56.2190 O.2    39  PRO39      -0.2715
     21  CB        14.0560    5.0250   56.9000 C.3    39  PRO39       0.0310
     22  CG        13.3460    6.0380   56.1120 C.3    39  PRO39       0.0237
     23  CD        12.8670    5.3380   54.8920 C.3    39  PRO39       0.0939
     24  N         15.6010    2.1290   56.9550 N.am   40  ALA40      -0.1964
     25  CA        15.5350    0.8230   57.5950 C.3    40  ALA40       0.1728
     26  C         14.6340    0.8690   58.8230 C.2    40  ALA40       0.2616
     27  O         14.4180    1.9280   59.4100 O.2    40  ALA40      -0.2715
     28  CB        16.9330    0.3690   57.9910 C.3    40  ALA40       0.0334
     29  N         14.0980   -0.2890   59.1910 N.am   41  ARG41      -0.1977
     30  CA        13.3150   -0.4240   60.4090 C.3    41  ARG41       0.1597
     31  C         14.1360    0.0130   61.6200 C.2    41  ARG41       0.2287
     32  O         15.3260   -0.2830   61.7090 O.2    41  ARG41      -0.2864
     33  CB        12.8770   -1.8800   60.6000 C.3    41  ARG41       0.0334
     34  CG        11.8190   -2.3790   59.6080 C.3    41  ARG41       0.0492
     35  CD        10.5020   -1.6430   59.8080 C.3    41  ARG41       0.2205
     36  NE         9.3720   -2.3290   59.1900 N.pl3  41  ARG41      -0.0865
     37  CZ         8.8340   -2.0410   58.0040 C.cat  41  ARG41       0.5346
     38  NH1        9.2970   -1.0720   57.2290 N.pl3  41  ARG41       0.1354
     39  NH2        7.8010   -2.7480   57.6110 N.pl3  41  ARG41       0.1354
     40  N          2.2130    1.2990   56.6060 N.3   265  ASN265     -0.1240
     41  CA         3.5510    1.8390   56.5500 C.3   265  ASN265      0.1653
     42  C          3.9600    2.2860   55.1470 C.2   265  ASN265      0.2266
     43  O          4.6220    3.3070   55.0020 O.2   265  ASN265     -0.2867
     44  CB         4.5220    0.7940   57.0850 C.3   265  ASN265      0.1155
     45  CG         5.9150    1.3140   57.1540 C.2   265  ASN265      0.2627
     46  OD1        6.8080    0.8640   56.3950 O.2   265  ASN265     -0.2716
     47  ND2        6.1160    2.2830   57.9990 N.am  265  ASN265     -0.0877
     48  N          2.4460   -2.6060   52.8790 N.3   431  ASP431     -0.1239
     49  CA         3.2530   -2.9400   54.0590 C.3   431  ASP431      0.1674
     50  C          2.4730   -2.4160   55.2490 C.2   431  ASP431      0.2266
     51  O          2.3720   -1.2170   55.4650 O.2   431  ASP431     -0.2867
     52  CB         4.6240   -2.2670   53.9210 C.3   431  ASP431      0.1410
     53  CG         5.4910   -2.4150   55.1620 C.2   431  ASP431      0.3668
     54  OD1        5.0970   -3.1310   56.0920 O.co2 431  ASP431     -0.2456
     55  OD2        6.5600   -1.7670   55.1850 O.co2 431  ASP431     -0.2456
     56  N          7.6550   -9.1230   56.2140 N.3   537  TYR537     -0.1241
     57  CA         8.4340   -8.0040   55.6990 C.3   537  TYR537      0.1605
     58  C          9.9130   -8.3660   55.5910 C.2   537  TYR537      0.2264
     59  O         10.4850   -8.9660   56.5020 O.2   537  TYR537     -0.2867
     60  CB         8.2800   -6.7690   56.5900 C.3   537  TYR537      0.0534
     61  CG         9.2490   -5.6950   56.2110 C.ar  537  TYR537     -0.0201
     62  CD1        8.9550   -4.7960   55.2000 C.ar  537  TYR537     -0.0009
     63  CD2       10.4870   -5.6130   56.8180 C.ar  537  TYR537     -0.0009
     64  CE1        9.8480   -3.8390   54.8270 C.ar  537  TYR537      0.0417
     65  CE2       11.3860   -4.6630   56.4430 C.ar  537  TYR537      0.0417
     66  CZ        11.0590   -3.7770   55.4530 C.ar  537  TYR537      0.1957
     67  OH        11.9640   -2.8230   55.0850 O.3   537  TYR537     -0.2866
     68  N         13.4250   -6.1860   53.7390 N.3   539  ASP539     -0.1239
     69  CA        13.8580   -5.0010   53.0110 C.3   539  ASP539      0.1674
     70  C         13.9320   -5.2410   51.5030 C.2   539  ASP539      0.2266
     71  O         13.5260   -4.3880   50.7180 O.2   539  ASP539     -0.2867
     72  CB        15.2420   -4.5380   53.4910 C.3   539  ASP539      0.1410
     73  CG        15.2480   -4.0230   54.9340 C.2   539  ASP539      0.3668
     74  OD1       14.2550   -3.4390   55.4210 O.co2 539  ASP539     -0.2456
     75  OD2       16.3010   -4.1650   55.5850 O.co2 539  ASP539     -0.2456
     76  N         10.6050   -6.2630   47.3540 N.3   542  ARG542     -0.1245
     77  CA        10.0000   -5.0030   46.9560 C.3   542  ARG542      0.1563
     78  C          8.9060   -5.1800   45.9040 C.2   542  ARG542      0.2260
     79  O          7.9180   -4.4540   45.9170 O.2   542  ARG542     -0.2867
     80  CB        11.0800   -4.0820   46.3920 C.3   542  ARG542      0.0307
     81  CG        12.2110   -3.8100   47.3660 C.3   542  ARG542      0.0489
     82  CD        13.1070   -2.6960   46.7740 C.3   542  ARG542      0.2205
     83  NE        14.0110   -2.1250   47.7630 N.pl3 542  ARG542     -0.0865
     84  CZ        15.1260   -2.7440   48.0750 C.cat 542  ARG542      0.5346
     85  NH1       15.9580   -2.2430   48.9790 N.pl3 542  ARG542      0.1354
     86  NH2       15.4360   -3.8620   47.4330 N.pl3 542  ARG542      0.1354
@<TRIPOS>BOND
     1    78    79    2
     2    78    77    1
     3    80    77    1
     4    80    81    1
     5    82    81    1
     6    82    83    1
     7    77    76    1
     8    86    84    1
     9    83    84    2
    10     8     6    1
    11    84    85    1
    12     1     2    1
    13     6     7    1
    14     6     5    1
    15     2     5    1
    16     2     3    1
    17     3     9   am
    18     3     4    2
    19    71    70    2
    20    15    14   ar
    21     9    10    1
    22    16    14   ar
    23    14    13    1
    24    70    69    1
    25    10    13    1
    26    10    11    1
    27    48    49    1
    28    69    72    1
    29    69    68    1
    30    12    11    2
    31    72    73    1
    32    11    17   am
    33    52    49    1
    34    52    53    1
    35    49    50    1
    36    17    23    1
    37    17    18    1
    38    64    62   ar
    39    64    66   ar
    40    23    22    1
    41    73    74   ar
    42    73    75   ar
    43    43    42    2
    44    67    66    1
    45    42    41    1
    46    53    55   ar
    47    53    54   ar
    48    62    61   ar
    49    50    51    2
    50    66    65   ar
    51    58    57    1
    52    58    59    2
    53    57    56    1
    54    57    60    1
    55    18    19    1
    56    18    21    1
    57    22    21    1
    58    61    60    1
    59    61    63   ar
    60    20    19    2
    61    19    24   am
    62    46    45    2
    63    65    63   ar
    64    41    40    1
    65    41    44    1
    66    24    25    1
    67    44    45    1
    68    45    47   am
    69    38    37    1
    70    25    28    1
    71    25    26    1
    72    39    37    1
    73    37    36    2
    74    26    29   am
    75    26    27    2
    76    36    35    1
    77    29    30    1
    78    34    35    1
    79    34    33    1
    80    30    33    1
    81    30    31    1
    82    31    32    2
