@<TRIPOS>MOLECULE
tmp/3wa2A04.pdb
 100 98 0 0 0
SMALL
GASTEIGER

@<TRIPOS>ATOM
      1  N         -8.1230    3.4770   33.3820 N.3   393  ALA393     -0.1245
      2  CA        -7.4550    3.0430   32.1720 C.3   393  ALA393      0.1562
      3  C         -8.0900    3.7090   30.9640 C.2   393  ALA393      0.2260
      4  O         -9.3000    3.6190   30.7650 O.2   393  ALA393     -0.2867
      5  CB        -7.5250    1.5270   32.0530 C.3   393  ALA393      0.0290
      6  N         -5.4380   -5.9570   32.2120 N.3   424  HIS424     -0.1241
      7  CA        -4.5350   -5.0280   32.8850 C.3   424  HIS424      0.1621
      8  C         -4.5600   -5.4150   34.3600 C.2   424  HIS424      0.2264
      9  O         -5.5890   -5.2160   35.0010 O.2   424  HIS424     -0.2867
     10  CB        -5.0070   -3.5620   32.7600 C.3   424  HIS424      0.0745
     11  CG        -5.2750   -3.0780   31.3640 C.ar  424  HIS424      0.0817
     12  ND1       -4.3730   -2.3390   30.6210 N.ar  424  HIS424     -0.2268
     13  CD2       -6.3710   -3.2250   30.5750 C.ar  424  HIS424      0.1154
     14  CE1       -4.9150   -2.0570   29.4400 C.ar  424  HIS424      0.1986
     15  NE2       -6.1200   -2.5880   29.3840 N.ar  424  HIS424     -0.2212
     16  N         -8.4390   -5.5440   35.2660 N.3   581  LEU581     -0.1231
     17  CA        -9.5340   -5.5120   34.3080 C.3   581  LEU581      0.1693
     18  C         -9.2690   -6.4670   33.1570 C.2   581  LEU581      0.2593
     19  O         -8.1520   -6.5870   32.6650 O.2   581  LEU581     -0.2718
     20  CB        -9.7340   -4.1080   33.7610 C.3   581  LEU581      0.0284
     21  CG       -10.3730   -3.1060   34.7090 C.3   581  LEU581      0.0019
     22  CD1      -10.1880   -1.7100   34.1450 C.3   581  LEU581      0.0001
     23  CD2      -11.8320   -3.3820   34.9440 C.3   581  LEU581      0.0001
     24  N        -10.3220   -7.1390   32.7370 N.am  582  THR582     -0.1939
     25  CA       -10.2800   -8.0300   31.5800 C.3   582  THR582      0.2028
     26  C        -11.0260   -7.3260   30.4380 C.2   582  THR582      0.2642
     27  O        -12.1770   -6.9650   30.6000 O.2   582  THR582     -0.2714
     28  CB       -10.8870   -9.3680   31.9260 C.3   582  THR582      0.1808
     29  OG1      -10.1020   -9.9760   32.9570 O.3   582  THR582     -0.2208
     30  CG2      -10.9070  -10.2820   30.7340 C.3   582  THR582      0.0379
     31  N        -10.3280   -7.0560   29.3510 N.am  583  HIS583     -0.1959
     32  CA       -10.7900   -6.1430   28.3150 C.3   583  HIS583      0.1787
     33  C        -11.0150   -6.8950   26.9910 C.2   583  HIS583      0.2620
     34  O        -10.0600   -7.3860   26.3720 O.2   583  HIS583     -0.2715
     35  CB        -9.7340   -5.0340   28.1910 C.3   583  HIS583      0.0785
     36  CG       -10.1750   -3.8240   27.4380 C.ar  583  HIS583      0.0821
     37  ND1       -9.3420   -2.7450   27.2440 N.ar  583  HIS583     -0.2267
     38  CD2      -11.3540   -3.5110   26.8460 C.ar  583  HIS583      0.1154
     39  CE1       -9.9870   -1.8210   26.5560 C.ar  583  HIS583      0.1986
     40  NE2      -11.2130   -2.2500   26.3130 N.ar  583  HIS583     -0.2212
     41  N        -12.2800   -6.9440   26.5950 N.am  584  PHE584     -0.1974
     42  CA       -12.7100   -7.3790   25.2830 C.3   584  PHE584      0.1639
     43  C        -13.1110   -6.0990   24.5610 C.2   584  PHE584      0.2290
     44  O        -14.2260   -5.6140   24.7510 O.2   584  PHE584     -0.2864
     45  CB       -13.9170   -8.3240   25.3950 C.3   584  PHE584      0.0560
     46  CG       -13.6520   -9.5640   26.2310 C.ar  584  PHE584     -0.0200
     47  CD1      -12.8930  -10.6080   25.7490 C.ar  584  PHE584     -0.0042
     48  CD2      -14.1520   -9.6960   27.5070 C.ar  584  PHE584     -0.0042
     49  CE1      -12.6470  -11.7420   26.4940 C.ar  584  PHE584     -0.0003
     50  CE2      -13.9040  -10.8450   28.2590 C.ar  584  PHE584     -0.0003
     51  CZ       -13.1450  -11.8560   27.7430 C.ar  584  PHE584     -0.0000
     52  N        -14.4970   -2.8730   22.8710 N.3   586  ARG586     -0.1245
     53  CA       -15.7860   -2.6030   22.2530 C.3   586  ARG586      0.1563
     54  C        -15.5970   -1.5470   21.1570 C.2   586  ARG586      0.2260
     55  O        -14.6180   -0.7890   21.1590 O.2   586  ARG586     -0.2867
     56  CB       -16.8010   -2.1610   23.3290 C.3   586  ARG586      0.0307
     57  CG       -16.3660   -0.9620   24.1660 C.3   586  ARG586      0.0489
     58  CD       -17.3410   -0.5370   25.2630 C.3   586  ARG586      0.2205
     59  NE       -16.8330    0.7060   25.8470 N.pl3 586  ARG586     -0.0865
     60  CZ       -17.5590    1.6130   26.4940 C.cat 586  ARG586      0.5346
     61  NH1      -18.8630    1.4570   26.6750 N.pl3 586  ARG586      0.1354
     62  NH2      -16.9730    2.7100   26.9530 N.pl3 586  ARG586      0.1354
     63  N        -14.7340    1.8530   22.3340 N.3   589  ASP589     -0.1239
     64  CA       -13.3760    2.1350   22.7680 C.3   589  ASP589      0.1674
     65  C        -12.5230    2.7580   21.6650 C.2   589  ASP589      0.2266
     66  O        -11.3970    3.1540   21.9340 O.2   589  ASP589     -0.2867
     67  CB       -12.6980    0.8470   23.2380 C.3   589  ASP589      0.1410
     68  CG       -13.2780    0.2870   24.4990 C.2   589  ASP589      0.3668
     69  OD1      -13.7300    1.0810   25.3430 O.co2 589  ASP589     -0.2456
     70  OD2      -13.1820   -0.9590   24.6430 O.co2 589  ASP589     -0.2456
     71  N        -10.3010    5.5940   23.9290 N.3   593  MET593     -0.1231
     72  CA       -11.2140    4.8690   24.8060 C.3   593  MET593      0.1687
     73  C        -11.6370    5.6690   26.0310 C.2   593  MET593      0.2434
     74  O        -10.8600    6.3470   26.6990 O.2   593  MET593     -0.2733
     75  CB       -10.6730    3.5130   25.2140 C.3   593  MET593      0.0400
     76  CG        -9.6900    3.5800   26.3360 C.3   593  MET593      0.0596
     77  SD        -8.8560    2.0240   26.6910 S.3   593  MET593     -0.1393
     78  CE        -7.4370    2.0980   25.6060 C.3   593  MET593      0.0692
     79  N        -12.9270    5.6190   26.3450 N.am  594  PRO594     -0.2718
     80  CA       -13.4340    6.1590   27.6100 C.3   594  PRO594      0.1535
     81  C        -12.9050    5.3970   28.8200 C.2   594  PRO594      0.2598
     82  O        -12.7720    4.1860   28.7850 O.2   594  PRO594     -0.2715
     83  CB       -14.9470    5.9830   27.4770 C.3   594  PRO594      0.0310
     84  CG       -15.1820    6.0140   26.0610 C.3   594  PRO594      0.0237
     85  CD       -14.0140    5.3370   25.4010 C.3   594  PRO594      0.0939
     86  N        -12.5700    6.1280   29.8740 N.am  595  VAL595     -0.1964
     87  CA       -12.0050    5.5230   31.0720 C.3   595  VAL595      0.1727
     88  C        -12.8340    4.3630   31.5850 C.2   595  VAL595      0.2616
     89  O        -14.0660    4.4300   31.6380 O.2   595  VAL595     -0.2715
     90  CB       -11.8860    6.6130   32.1670 C.3   595  VAL595      0.0290
     91  CG1      -11.8290    6.0510   33.5800 C.3   595  VAL595      0.0023
     92  CG2      -10.6810    7.5100   31.9100 C.3   595  VAL595      0.0023
     93  N        -12.1190    3.3150   31.9710 N.am  596  ASP596     -0.1971
     94  CA       -12.7300    2.2900   32.7910 C.3   596  ASP596      0.1709
     95  C        -11.8470    2.1040   34.0110 C.2   596  ASP596      0.2293
     96  O        -10.7050    2.5470   34.0420 O.2   596  ASP596     -0.2864
     97  CB       -12.9390    1.0170   31.9830 C.3   596  ASP596      0.1436
     98  CG       -14.0280    0.1340   32.5360 C.2   596  ASP596      0.3671
     99  OD1      -14.7040    0.5090   33.5230 O.co2 596  ASP596     -0.2456
    100  OD2      -14.1860   -0.9520   31.9590 O.co2 596  ASP596     -0.2456
@<TRIPOS>BOND
     1    54    55    2
     2    54    53    1
     3    65    66    2
     4    65    64    1
     5    53    52    1
     6    53    56    1
     7    63    64    1
     8    64    67    1
     9    67    68    1
    10    56    57    1
    11    71    72    1
    12    57    58    1
    13    68    70   ar
    14    68    69   ar
    15    43    44    2
    16    43    42    1
    17    72    75    1
    18    72    73    1
    19    75    76    1
    20    58    59    1
    21    42    45    1
    22    42    41    1
    23    45    46    1
    24    85    84    1
    25    85    79    1
    26    78    77    1
    27    47    46   ar
    28    47    49   ar
    29    59    60    2
    30    73    79   am
    31    73    74    2
    32    84    83    1
    33    46    48   ar
    34    40    39   ar
    35    40    38   ar
    36    76    77    1
    37    79    80    1
    38    34    33    2
    39    49    51   ar
    40    60    61    1
    41    60    62    1
    42    39    37   ar
    43    41    33   am
    44    38    36   ar
    45    33    32    1
    46    37    36   ar
    47    36    35    1
    48    83    80    1
    49    48    50   ar
    50    80    81    1
    51    51    50   ar
    52    35    32    1
    53    32    31    1
    54    82    81    2
    55    81    86   am
    56    31    26   am
    57    15    14   ar
    58    15    13   ar
    59    14    12   ar
    60    86    87    1
    61    26    27    2
    62    26    25    1
    63    13    11   ar
    64    12    11   ar
    65    30    28    1
    66     4     3    2
    67     3     2    1
    68    87    88    1
    69    87    90    1
    70    11    10    1
    71    25    28    1
    72    25    24    1
    73    88    89    2
    74    88    93   am
    75    92    90    1
    76    28    29    1
    77   100    98   ar
    78    93    94    1
    79    97    98    1
    80    97    94    1
    81     5     2    1
    82    90    91    1
    83     2     1    1
    84     6     7    1
    85    98    99   ar
    86    19    18    2
    87    24    18   am
    88    10     7    1
    89    94    95    1
    90     7     8    1
    91    18    17    1
    92    20    17    1
    93    20    21    1
    94    95    96    2
    95    22    21    1
    96    17    16    1
    97     8     9    2
    98    21    23    1
