@<TRIPOS>MOLECULE
tmp/3wa2A02.pdb
 119 118 0 0 0
SMALL
GASTEIGER

@<TRIPOS>ATOM
      1  N         13.6040    4.2510   22.4870 N.3    97  PHE97      -0.1241
      2  CA        12.2970    4.5360   21.8790 C.3    97  PHE97       0.1605
      3  C         12.2770    4.3180   20.3800 C.2    97  PHE97       0.2264
      4  O         11.3010    3.7840   19.8290 O.2    97  PHE97      -0.2867
      5  CB        11.8450    5.9770   22.1430 C.3    97  PHE97       0.0534
      6  CG        10.8570    6.4630   21.1240 C.ar   97  PHE97      -0.0203
      7  CD1        9.6250    5.8410   20.9940 C.ar   97  PHE97      -0.0042
      8  CD2       11.1720    7.4980   20.2610 C.ar   97  PHE97      -0.0042
      9  CE1        8.7240    6.2540   20.0400 C.ar   97  PHE97      -0.0003
     10  CE2       10.2610    7.9230   19.3060 C.ar   97  PHE97      -0.0003
     11  CZ         9.0370    7.2970   19.1970 C.ar   97  PHE97      -0.0000
     12  N          8.4520    0.8380   17.5150 N.3   127  ALA127     -0.1231
     13  CA         8.3910    0.9280   19.0160 C.3   127  ALA127      0.1679
     14  C          9.3120   -0.0720   19.7570 C.2   127  ALA127      0.2434
     15  O          9.8420   -0.9940   19.1350 O.2   127  ALA127     -0.2733
     16  CB         6.9580    0.8260   19.5730 C.3   127  ALA127      0.0304
     17  N          9.5160    0.1200   21.0830 N.am  128  PRO128     -0.2718
     18  CA        10.3700   -0.8230   21.8100 C.3   128  PRO128      0.1535
     19  C          9.4750   -1.7840   22.6110 C.2   128  PRO128      0.2598
     20  O          9.2220   -1.4940   23.7910 O.2   128  PRO128     -0.2715
     21  CB        11.1990    0.0970   22.7060 C.3   128  PRO128      0.0310
     22  CG        10.2890    1.2490   22.9530 C.3   128  PRO128      0.0237
     23  CD         9.4270    1.4230   21.7580 C.3   128  PRO128      0.0939
     24  N          8.9470   -2.8630   21.9930 N.am  129  LEU129     -0.1978
     25  CA         8.0760   -3.7860   22.7340 C.3   129  LEU129      0.1596
     26  C          8.9110   -4.7740   23.5220 C.2   129  LEU129      0.2287
     27  O          9.8270   -5.3860   22.9960 O.2   129  LEU129     -0.2864
     28  CB         7.1620   -4.5210   21.7490 C.3   129  LEU129      0.0297
     29  CG         6.4100   -3.5140   20.8850 C.3   129  LEU129      0.0022
     30  CD1        5.5430   -4.2380   19.8540 C.3   129  LEU129      0.0001
     31  CD2        5.5590   -2.6070   21.7250 C.3   129  LEU129      0.0001
     32  N          3.0850   -0.0590   12.5550 N.3   150  PHE150     -0.1241
     33  CA         1.8700    0.7310   12.4510 C.3   150  PHE150      0.1605
     34  C          2.1580    1.8700   11.4970 C.2   150  PHE150      0.2264
     35  O          3.1600    2.5650   11.6380 O.2   150  PHE150     -0.2867
     36  CB         1.4790    1.2990   13.8250 C.3   150  PHE150      0.0534
     37  CG         1.1520    0.2390   14.8610 C.ar  150  PHE150     -0.0203
     38  CD1        2.1420   -0.3720   15.6140 C.ar  150  PHE150     -0.0042
     39  CD2       -0.1650   -0.1770   15.0360 C.ar  150  PHE150     -0.0042
     40  CE1        1.8130   -1.3750   16.5320 C.ar  150  PHE150     -0.0003
     41  CE2       -0.4920   -1.1660   15.9550 C.ar  150  PHE150     -0.0003
     42  CZ         0.4890   -1.7620   16.6860 C.ar  150  PHE150     -0.0000
     43  N         -2.1030    3.9070   15.3120 N.3   160  TRP160     -0.1241
     44  CA        -2.8490    2.7730   15.8450 C.3   160  TRP160      0.1605
     45  C         -4.0100    2.3760   14.9380 C.2   160  TRP160      0.2264
     46  O         -4.4970    1.2540   15.0050 O.2   160  TRP160     -0.2867
     47  CB        -3.3670    3.1520   17.2470 C.3   160  TRP160      0.0550
     48  CG        -2.2610    3.6470   18.1120 C.ar  160  TRP160      0.0003
     49  CD1       -1.9850    4.9570   18.4240 C.ar  160  TRP160      0.0946
     50  CD2       -1.2200    2.8700   18.6890 C.ar  160  TRP160      0.0152
     51  NE1       -0.8250    5.0310   19.1670 N.ar  160  TRP160     -0.2442
     52  CE2       -0.3520    3.7620   19.3620 C.ar  160  TRP160      0.0810
     53  CE3       -0.9380    1.4990   18.7150 C.ar  160  TRP160      0.0012
     54  CZ2        0.7820    3.3240   20.0300 C.ar  160  TRP160      0.0191
     55  CZ3        0.1650    1.0700   19.3960 C.ar  160  TRP160      0.0001
     56  CH2        0.9990    1.9790   20.0560 C.ar  160  TRP160      0.0015
     57  N          3.0480   -6.6510   28.5500 N.3   288  TYR288     -0.1241
     58  CA         3.7800   -5.4460   28.8790 C.3   288  TYR288      0.1605
     59  C          3.7410   -5.1950   30.3730 C.2   288  TYR288      0.2264
     60  O          2.6730   -4.9030   30.9160 O.2   288  TYR288     -0.2867
     61  CB         3.2710   -4.2930   28.0050 C.3   288  TYR288      0.0534
     62  CG         3.4070   -4.5930   26.5150 C.ar  288  TYR288     -0.0201
     63  CD1        4.6510   -4.9340   25.9760 C.ar  288  TYR288     -0.0009
     64  CD2        2.3050   -4.5690   25.6530 C.ar  288  TYR288     -0.0009
     65  CE1        4.7820   -5.2540   24.6420 C.ar  288  TYR288      0.0417
     66  CE2        2.4440   -4.8860   24.2990 C.ar  288  TYR288      0.0417
     67  CZ         3.6860   -5.2160   23.8040 C.ar  288  TYR288      0.1957
     68  OH         3.8630   -5.5510   22.4850 O.3   288  TYR288     -0.2866
     69  N          4.1500   -2.7500   32.4980 N.3   290  ASP290     -0.1239
     70  CA         4.2510   -1.2930   32.4410 C.3   290  ASP290      0.1674
     71  C          5.1190   -0.7750   33.6000 C.2   290  ASP290      0.2266
     72  O          5.9670    0.1000   33.4220 O.2   290  ASP290     -0.2867
     73  CB         2.8300   -0.6750   32.4660 C.3   290  ASP290      0.1410
     74  CG         1.9930   -0.9370   31.1710 C.2   290  ASP290      0.3668
     75  OD1        2.5730   -1.2500   30.1170 O.co2 290  ASP290     -0.2456
     76  OD2        0.7470   -0.8210   31.2180 O.co2 290  ASP290     -0.2456
     77  N          8.9280   -1.0310   32.0150 N.3   294  TYR294     -0.1241
     78  CA         8.9560    0.3210   31.4380 C.3   294  TYR294      0.1605
     79  C          9.1920    1.4440   32.4540 C.2   294  TYR294      0.2264
     80  O          9.8070    2.4390   32.0790 O.2   294  TYR294     -0.2867
     81  CB         7.7010    0.5710   30.5950 C.3   294  TYR294      0.0534
     82  CG         7.6850   -0.2400   29.3230 C.ar  294  TYR294     -0.0201
     83  CD1        8.4220    0.1820   28.2080 C.ar  294  TYR294     -0.0009
     84  CD2        6.9850   -1.4420   29.2160 C.ar  294  TYR294     -0.0009
     85  CE1        8.4470   -0.5470   27.0460 C.ar  294  TYR294      0.0417
     86  CE2        6.9910   -2.1770   28.0310 C.ar  294  TYR294      0.0417
     87  CZ         7.7270   -1.7200   26.9520 C.ar  294  TYR294      0.1957
     88  OH         7.7210   -2.4670   25.7990 O.3   294  TYR294     -0.2866
     89  N          2.1560    4.8300   28.6510 N.3   371  ILE371     -0.1231
     90  CA         3.0560    3.7760   28.2170 C.3   371  ILE371      0.1692
     91  C          2.5800    3.3570   26.8420 C.2   371  ILE371      0.2593
     92  O          1.6150    2.6150   26.7160 O.2   371  ILE371     -0.2718
     93  CB         3.0410    2.5540   29.1500 C.3   371  ILE371      0.0266
     94  CG1        3.5770    2.9330   30.5290 C.3   371  ILE371      0.0019
     95  CG2        3.8550    1.4230   28.5430 C.3   371  ILE371      0.0020
     96  CD1        2.5010    3.4200   31.4790 C.3   371  ILE371      0.0001
     97  N          3.2290    3.8750   25.8120 N.am  372  GLY372     -0.1942
     98  CA         2.8560    3.5220   24.4640 C.3   372  GLY372      0.2014
     99  C          1.4600    4.0080   24.1390 C.2   372  GLY372      0.2638
    100  O          1.1790    5.2010   24.1940 O.2   372  GLY372     -0.2714
    101  N          0.5730    3.0690   23.8210 N.am  373  ASN373     -0.1972
    102  CA        -0.8260    3.3750   23.5690 C.3   373  ASN373      0.1688
    103  C         -1.6540    3.6100   24.8550 C.2   373  ASN373      0.2292
    104  O         -2.7200    4.2290   24.7570 O.2   373  ASN373     -0.2864
    105  CB        -1.4550    2.2380   22.7550 C.3   373  ASN373      0.1181
    106  CG        -1.4130    0.9130   23.4980 C.2   373  ASN373      0.2629
    107  OD1       -0.3340    0.3840   23.7540 O.2   373  ASN373     -0.2716
    108  ND2       -2.5780    0.3820   23.8630 N.am  373  ASN373     -0.0877
    109  N         -4.6250   -1.2090   21.7680 N.3   398  PHE398     -0.1241
    110  CA        -3.6020   -1.8260   20.9360 C.3   398  PHE398      0.1605
    111  C         -4.3290   -2.6160   19.8450 C.2   398  PHE398      0.2264
    112  O         -5.2290   -3.4020   20.1230 O.2   398  PHE398     -0.2867
    113  CB        -2.7410   -2.7720   21.7670 C.3   398  PHE398      0.0534
    114  CG        -1.4170   -3.1020   21.1460 C.ar  398  PHE398     -0.0203
    115  CD1       -1.3180   -3.9800   20.0910 C.ar  398  PHE398     -0.0042
    116  CD2       -0.2640   -2.5170   21.6430 C.ar  398  PHE398     -0.0042
    117  CE1       -0.0830   -4.2890   19.5260 C.ar  398  PHE398     -0.0003
    118  CE2        0.9760   -2.8070   21.0960 C.ar  398  PHE398     -0.0003
    119  CZ         1.0670   -3.6800   20.0190 C.ar  398  PHE398     -0.0000
@<TRIPOS>BOND
     1    34    35    2
     2    34    33    1
     3    33    32    1
     4    33    36    1
     5    36    37    1
     6    37    39   ar
     7    37    38   ar
     8    45    46    2
     9    45    44    1
    10    39    41   ar
    11    43    44    1
    12    38    40   ar
    13    44    47    1
    14    41    42   ar
    15    40    42   ar
    16    47    48    1
    17    12    13    1
    18    48    49   ar
    19    48    50   ar
    20    49    51   ar
    21    50    53   ar
    22    50    52   ar
    23    53    55   ar
    24    13    16    1
    25    13    14    1
    26    15    14    2
    27    51    52   ar
    28    11    10   ar
    29    11     9   ar
    30    10     8   ar
    31    52    54   ar
    32    55    56   ar
    33   117   119   ar
    34   117   115   ar
    35    14    17   am
    36     4     3    2
    37   111   112    2
    38   111   110    1
    39    30    29    1
    40   119   118   ar
    41    54    56   ar
    42     9     7   ar
    43   115   114   ar
    44     8     6   ar
    45     3     2    1
    46    29    31    1
    47    29    28    1
    48   110   113    1
    49   110   109    1
    50     7     6   ar
    51    17    23    1
    52    17    18    1
    53   118   116   ar
    54     6     5    1
    55   114   116   ar
    56   114   113    1
    57    28    25    1
    58    23    22    1
    59    18    19    1
    60    18    21    1
    61     2     5    1
    62     2     1    1
    63    24    19   am
    64    24    25    1
    65    68    67    1
    66    19    20    2
    67    21    22    1
    68    25    26    1
    69   105   106    1
    70   105   102    1
    71    27    26    2
    72   106   107    2
    73   106   108   am
    74   102   101    1
    75   102   103    1
    76    67    66   ar
    77    67    65   ar
    78   101    99   am
    79    99   100    2
    80    99    98    1
    81    66    64   ar
    82    98    97    1
    83    65    63   ar
    84   104   103    2
    85    64    62   ar
    86    88    87    1
    87    97    91   am
    88    63    62   ar
    89    62    61    1
    90    92    91    2
    91    91    90    1
    92    87    85   ar
    93    87    86   ar
    94    85    83   ar
    95    61    58    1
    96    86    84   ar
    97    83    82   ar
    98    90    89    1
    99    90    93    1
   100    95    93    1
   101    57    58    1
   102    58    59    1
   103    93    94    1
   104    84    82   ar
   105    82    81    1
   106    75    74   ar
   107    59    60    2
   108    94    96    1
   109    81    78    1
   110    74    76   ar
   111    74    73    1
   112    78    77    1
   113    78    79    1
   114    80    79    2
   115    70    73    1
   116    70    69    1
   117    70    71    1
   118    72    71    2
