@<TRIPOS>MOLECULE
tmp/3wa3A05.pdb
 120 119 0 0 0
SMALL
GASTEIGER

@<TRIPOS>ATOM
      1  N        151.0960    5.2990   33.6550 N.3    97  PHE97      -0.1241
      2  CA       149.9430    5.6850   34.4790 C.3    97  PHE97       0.1605
      3  C        148.6050    5.4450   33.7770 C.2    97  PHE97       0.2264
      4  O        147.6620    4.8920   34.3610 O.2    97  PHE97      -0.2867
      5  CB       150.0180    7.1880   34.7970 C.3    97  PHE97       0.0534
      6  CG       148.8300    7.7190   35.5880 C.ar   97  PHE97      -0.0203
      7  CD1      148.8220    7.6640   36.9860 C.ar   97  PHE97      -0.0042
      8  CD2      147.7380    8.2990   34.9420 C.ar   97  PHE97      -0.0042
      9  CE1      147.7420    8.1660   37.7220 C.ar   97  PHE97      -0.0003
     10  CE2      146.6530    8.7950   35.6780 C.ar   97  PHE97      -0.0003
     11  CZ       146.6630    8.7280   37.0660 C.ar   97  PHE97      -0.0000
     12  N        144.2860    1.5630   36.8510 N.3   127  ALA127     -0.1231
     13  CA       145.6980    1.8360   37.2010 C.3   127  ALA127      0.1679
     14  C        146.6700    0.8590   36.5510 C.2   127  ALA127      0.2434
     15  O        146.2630   -0.2120   36.1010 O.2   127  ALA127     -0.2733
     16  CB       145.8840    1.8420   38.7240 C.3   127  ALA127      0.0304
     17  N        147.9500    1.2520   36.4320 N.am  128  PRO128     -0.2718
     18  CA       148.9780    0.3020   36.0200 C.3   128  PRO128      0.1535
     19  C        149.3210   -0.5780   37.2190 C.2   128  PRO128      0.2598
     20  O        150.2030   -0.2500   38.0200 O.2   128  PRO128     -0.2715
     21  CB       150.1610    1.1980   35.6580 C.3   128  PRO128      0.0310
     22  CG       150.0040    2.4150   36.5090 C.3   128  PRO128      0.0237
     23  CD       148.4900    2.6030   36.6570 C.3   128  PRO128      0.0939
     24  N        148.6210   -1.6950   37.3620 N.am  129  LEU129     -0.1978
     25  CA       148.8840   -2.5790   38.5010 C.3   129  LEU129      0.1596
     26  C        149.9770   -3.5740   38.1380 C.2   129  LEU129      0.2287
     27  O        149.9550   -4.1310   37.0350 O.2   129  LEU129     -0.2864
     28  CB       147.5940   -3.3330   38.8450 C.3   129  LEU129      0.0297
     29  CG       146.4300   -2.3660   39.1570 C.3   129  LEU129      0.0022
     30  CD1      145.1500   -3.1530   39.4920 C.3   129  LEU129      0.0001
     31  CD2      146.8570   -1.4900   40.3750 C.3   129  LEU129      0.0001
     32  N        137.7280    5.1610   44.2920 N.3   160  TRP160     -0.1241
     33  CA       137.8640    4.0140   45.1790 C.3   160  TRP160      0.1605
     34  C        136.5230    3.6020   45.7890 C.2   160  TRP160      0.2264
     35  O        136.3550    2.4760   46.2460 O.2   160  TRP160     -0.2867
     36  CB       138.8940    4.3530   46.2820 C.3   160  TRP160      0.0550
     37  CG       140.1660    4.7970   45.6440 C.ar  160  TRP160      0.0003
     38  CD1      140.5860    6.0820   45.4730 C.ar  160  TRP160      0.0946
     39  CD2      141.1490    3.9610   45.0290 C.ar  160  TRP160      0.0152
     40  NE1      141.7950    6.1030   44.8220 N.ar  160  TRP160     -0.2442
     41  CE2      142.1450    4.8120   44.5070 C.ar  160  TRP160      0.0810
     42  CE3      141.2800    2.5710   44.8590 C.ar  160  TRP160      0.0012
     43  CZ2      143.2850    4.3140   43.8530 C.ar  160  TRP160      0.0191
     44  CZ3      142.4380    2.0790   44.1990 C.ar  160  TRP160      0.0001
     45  CH2      143.3860    2.9600   43.6950 C.ar  160  TRP160      0.0015
     46  N        148.1410   -9.0970   48.9860 N.3   276  TYR276     -0.1241
     47  CA       146.7130   -9.1830   49.2590 C.3   276  TYR276      0.1605
     48  C        146.2800  -10.6140   49.5400 C.2   276  TYR276      0.2264
     49  O        146.8060  -11.5800   48.9380 O.2   276  TYR276     -0.2867
     50  CB       145.9330   -8.5130   48.1140 C.3   276  TYR276      0.0534
     51  CG       145.9540   -7.0100   48.2790 C.ar  276  TYR276     -0.0201
     52  CD1      147.0590   -6.2710   47.8860 C.ar  276  TYR276     -0.0009
     53  CD2      144.8700   -6.3650   48.8550 C.ar  276  TYR276     -0.0009
     54  CE1      147.0850   -4.8860   48.0740 C.ar  276  TYR276      0.0417
     55  CE2      144.8640   -4.9800   49.0390 C.ar  276  TYR276      0.0417
     56  CZ       145.9760   -4.2610   48.6530 C.ar  276  TYR276      0.1957
     57  OH       146.0340   -2.9180   48.8450 O.3   276  TYR276     -0.2866
     58  N        151.8010   -5.4900   45.6210 N.3   288  TYR288     -0.1241
     59  CA       152.4190   -4.2840   45.0850 C.3   288  TYR288      0.1605
     60  C        153.7390   -3.9980   45.8040 C.2   288  TYR288      0.2264
     61  O        153.7490   -3.6530   47.0030 O.2   288  TYR288     -0.2867
     62  CB       151.4400   -3.1080   45.1520 C.3   288  TYR288      0.0534
     63  CG       150.1640   -3.4100   44.3770 C.ar  288  TYR288     -0.0201
     64  CD1      150.2350   -3.8170   43.0300 C.ar  288  TYR288     -0.0009
     65  CD2      148.9060   -3.3500   44.9800 C.ar  288  TYR288     -0.0009
     66  CE1      149.1180   -4.1500   42.3140 C.ar  288  TYR288      0.0417
     67  CE2      147.7480   -3.6840   44.2420 C.ar  288  TYR288      0.0417
     68  CZ       147.8730   -4.0770   42.9060 C.ar  288  TYR288      0.1957
     69  OH       146.7710   -4.4100   42.1300 O.3   288  TYR288     -0.2866
     70  N        155.7860   -1.5810   46.4340 N.3   290  ASP290     -0.1239
     71  CA       155.7480   -0.1260   46.2910 C.3   290  ASP290      0.1674
     72  C        157.1610    0.3970   46.0540 C.2   290  ASP290      0.2266
     73  O        157.3680    1.2780   45.2150 O.2   290  ASP290     -0.2867
     74  CB       155.1280    0.5080   47.5490 C.3   290  ASP290      0.1410
     75  CG       153.6200    0.2450   47.6650 C.2   290  ASP290      0.3668
     76  OD1      152.9810   -0.1330   46.6610 O.co2 290  ASP290     -0.2456
     77  OD2      153.0850    0.3570   48.7880 O.co2 290  ASP290     -0.2456
     78  N        157.5380    0.1900   41.9430 N.3   294  TYR294     -0.1241
     79  CA       157.0340    1.5320   41.6450 C.3   294  TYR294      0.1605
     80  C        157.9890    2.6860   41.9070 C.2   294  TYR294      0.2264
     81  O        157.9230    3.6940   41.1910 O.2   294  TYR294     -0.2867
     82  CB       155.6810    1.7950   42.3230 C.3   294  TYR294      0.0534
     83  CG       154.5540    0.9770   41.7510 C.ar  294  TYR294     -0.0201
     84  CD1      153.8710    1.3850   40.5910 C.ar  294  TYR294     -0.0009
     85  CD2      154.1690   -0.2280   42.3850 C.ar  294  TYR294     -0.0009
     86  CE1      152.8340    0.6410   40.0840 C.ar  294  TYR294      0.0417
     87  CE2      153.1080   -0.9920   41.8750 C.ar  294  TYR294      0.0417
     88  CZ       152.4560   -0.5450   40.7220 C.ar  294  TYR294      0.1957
     89  OH       151.4400   -1.2900   40.1900 O.3   294  TYR294     -0.2866
     90  N        151.5470    6.0160   46.4980 N.3   371  ILE371     -0.1231
     91  CA       151.5690    4.9880   45.4590 C.3   371  ILE371      0.1692
     92  C        150.1270    4.5460   45.2650 C.2   371  ILE371      0.2593
     93  O        149.5620    3.7910   46.0670 O.2   371  ILE371     -0.2718
     94  CB       152.3810    3.7360   45.8820 C.3   371  ILE371      0.0266
     95  CG1      153.8300    4.1010   46.2740 C.3   371  ILE371      0.0019
     96  CG2      152.4020    2.7450   44.7350 C.3   371  ILE371      0.0020
     97  CD1      154.5620    4.7790   45.1530 C.3   371  ILE371      0.0001
     98  N        149.5230    5.0220   44.1890 N.am  372  GLY372     -0.1942
     99  CA       148.1270    4.7050   43.9440 C.3   372  GLY372      0.2014
    100  C        147.2040    5.1520   45.0600 C.2   372  GLY372      0.2638
    101  O        147.1010    6.3130   45.3730 O.2   372  GLY372     -0.2714
    102  N        146.5570    4.1790   45.6710 N.am  373  ASN373     -0.1972
    103  CA       145.6960    4.4760   46.8210 C.3   373  ASN373      0.1688
    104  C        146.4490    4.7460   48.1280 C.2   373  ASN373      0.2292
    105  O        145.9040    5.4650   48.9600 O.2   373  ASN373     -0.2864
    106  CB       144.6890    3.3330   47.0300 C.3   373  ASN373      0.1181
    107  CG       145.3590    2.0210   47.3780 C.2   373  ASN373      0.2629
    108  OD1      146.1130    1.4760   46.5600 O.2   373  ASN373     -0.2716
    109  ND2      145.1260    1.5130   48.5910 N.am  373  ASN373     -0.0877
    110  N        142.3650   -0.0620   49.4420 N.3   398  PHE398     -0.1241
    111  CA       142.0810   -0.6590   48.1340 C.3   398  PHE398      0.1605
    112  C        140.7750   -1.4040   48.2720 C.2   398  PHE398      0.2264
    113  O        140.5920   -2.2310   49.1830 O.2   398  PHE398     -0.2867
    114  CB       143.2020   -1.6320   47.7220 C.3   398  PHE398      0.0534
    115  CG       143.2490   -1.9170   46.2480 C.ar  398  PHE398     -0.0203
    116  CD1      142.3260   -2.7800   45.6620 C.ar  398  PHE398     -0.0042
    117  CD2      144.2110   -1.3140   45.4440 C.ar  398  PHE398     -0.0042
    118  CE1      142.3710   -3.0500   44.2960 C.ar  398  PHE398     -0.0003
    119  CE2      144.2670   -1.5830   44.0560 C.ar  398  PHE398     -0.0003
    120  CZ       143.3260   -2.4420   43.4950 C.ar  398  PHE398     -0.0000
@<TRIPOS>BOND
     1     1     2    1
     2     3     4    2
     3     3     2    1
     4     2     5    1
     5     5     6    1
     6     8     6   ar
     7     8    10   ar
     8     6     7   ar
     9    21    18    1
    10    21    22    1
    11    10    11   ar
    12    18    17    1
    13    18    19    1
    14    15    14    2
    15    17    14   am
    16    17    23    1
    17    22    23    1
    18    14    13    1
    19    12    13    1
    20     7     9   ar
    21    27    26    2
    22    11     9   ar
    23    13    16    1
    24    19    24   am
    25    19    20    2
    26    24    25    1
    27    26    25    1
    28    25    28    1
    29    28    29    1
    30    29    30    1
    31    29    31    1
    32    86    84   ar
    33    86    88   ar
    34    89    88    1
    35    84    83   ar
    36    88    87   ar
    37    81    80    2
    38    79    80    1
    39    79    78    1
    40    79    82    1
    41    83    82    1
    42    83    85   ar
    43    87    85   ar
    44    69    68    1
    45    66    68   ar
    46    66    64   ar
    47    68    67   ar
    48    64    63   ar
    49   120   119   ar
    50   120   118   ar
    51    45    43   ar
    52    45    44   ar
    53    43    41   ar
    54    99    98    1
    55    99   100    1
    56   119   117   ar
    57    98    92   am
    58    44    42   ar
    59    67    65   ar
    60    32    33    1
    61   118   116   ar
    62    63    65   ar
    63    63    62    1
    64    41    40   ar
    65    41    39   ar
    66    96    94    1
    67    40    38   ar
    68    42    39   ar
    69    39    37   ar
    70   100   101    2
    71   100   102   am
    72    59    62    1
    73    59    58    1
    74    59    60    1
    75    97    95    1
    76    33    34    1
    77    33    36    1
    78    73    72    2
    79    92    91    1
    80    92    93    2
    81   117   115   ar
    82    91    94    1
    83    91    90    1
    84    38    37   ar
    85    37    36    1
    86   116   115   ar
    87   102   103    1
    88    34    35    2
    89    60    61    2
    90    94    95    1
    91    72    71    1
    92   115   114    1
    93    71    70    1
    94    71    74    1
    95   108   107    2
    96    76    75   ar
    97   103   106    1
    98   103   104    1
    99   106   107    1
   100   107   109   am
   101    74    75    1
   102    75    77   ar
   103   114   111    1
   104    52    54   ar
   105    52    51   ar
   106    54    56   ar
   107    50    51    1
   108    50    47    1
   109   104   105    2
   110   111   112    1
   111   111   110    1
   112   112   113    2
   113    51    53   ar
   114    56    57    1
   115    56    55   ar
   116    53    55   ar
   117    49    48    2
   118    46    47    1
   119    47    48    1
