@<TRIPOS>MOLECULE
tmp/3wa3B08.pdb
 72 69 0 0 0
SMALL
GASTEIGER

@<TRIPOS>ATOM
      1  N        169.1510  -17.5330   20.5580 N.3     5  ARG5       -0.1231
      2  CA       170.0790  -16.4470   20.8320 C.3     5  ARG5        0.1694
      3  C        171.2140  -16.9280   21.7430 C.2     5  ARG5        0.2592
      4  O        171.0600  -17.8960   22.5000 O.2     5  ARG5       -0.2718
      5  CB       169.3350  -15.2680   21.4880 C.3     5  ARG5        0.0321
      6  CG       168.8100  -15.5220   22.8950 C.3     5  ARG5        0.0489
      7  CD       167.8270  -14.4100   23.2510 C.3     5  ARG5        0.2205
      8  NE       167.1840  -14.5750   24.5520 N.pl3   5  ARG5       -0.0865
      9  CZ       166.0630  -15.2720   24.7650 C.cat   5  ARG5        0.5346
     10  NH1      165.4930  -15.9340   23.7680 N.pl3   5  ARG5        0.1354
     11  NH2      165.5260  -15.3220   25.9970 N.pl3   5  ARG5        0.1354
     12  N        172.3420  -16.2260   21.7210 N.am    6  LEU6       -0.1966
     13  CA       173.4350  -16.5180   22.6270 C.3     6  LEU6        0.1728
     14  C        172.9930  -16.3200   24.0850 C.2     6  LEU6        0.2616
     15  O        172.1420  -15.4610   24.3650 O.2     6  LEU6       -0.2715
     16  CB       174.6210  -15.6010   22.2910 C.3     6  LEU6        0.0311
     17  CG       175.2830  -15.9380   20.9640 C.3     6  LEU6        0.0022
     18  CD1      176.1140  -14.7580   20.4990 C.3     6  LEU6        0.0001
     19  CD2      176.1610  -17.1630   21.0680 C.3     6  LEU6        0.0001
     20  N        173.5430  -17.1200   24.9880 N.am    7  ALA7       -0.1963
     21  CA       173.3670  -16.8650   26.4110 C.3     7  ALA7        0.1728
     22  C        173.8400  -15.4590   26.7400 C.2     7  ALA7        0.2617
     23  O        174.9170  -15.0350   26.2810 O.2     7  ALA7       -0.2715
     24  CB       174.1620  -17.8770   27.2190 C.3     7  ALA7        0.0334
     25  N        173.0610  -14.7520   27.5660 N.am    8  SER8       -0.1936
     26  CA       173.4610  -13.4140   28.0280 C.3     8  SER8        0.2055
     27  C        174.0360  -13.5020   29.4340 C.2     8  SER8        0.2642
     28  O        173.8550  -14.5220   30.1270 O.2     8  SER8       -0.2714
     29  CB       172.2770  -12.4380   27.9940 C.3     8  SER8        0.2130
     30  OG       171.3420  -12.8530   28.9590 O.3     8  SER8       -0.2179
     31  N        174.7630  -12.4640   29.8520 N.am    9  ALA9       -0.1977
     32  CA       175.3420  -12.4490   31.1960 C.3     9  ALA9        0.1597
     33  C        174.2460  -12.5760   32.2460 C.2     9  ALA9        0.2287
     34  O        174.4170  -13.2700   33.2530 O.2     9  ALA9       -0.2864
     35  CB       176.1200  -11.1520   31.4280 C.3     9  ALA9        0.0319
     36  N        171.3810  -14.1620   31.9640 N.3    11  GLU11      -0.1245
     37  CA       170.9470  -15.5540   32.0940 C.3    11  GLU11       0.1567
     38  C        171.8990  -16.3710   32.9800 C.2    11  GLU11       0.2260
     39  O        171.4780  -17.1880   33.8100 O.2    11  GLU11      -0.2867
     40  CB       170.8200  -16.2290   30.7240 C.3    11  GLU11       0.0388
     41  CG       169.7090  -15.6780   29.8950 C.3    11  GLU11       0.1160
     42  CD       169.5290  -16.4090   28.5860 C.2    11  GLU11       0.3649
     43  OE1      170.4020  -16.2500   27.7220 O.co2  11  GLU11      -0.2457
     44  OE2      168.4950  -17.1050   28.3990 O.co2  11  GLU11      -0.2457
     45  N        169.1390   -9.8340   16.0630 N.3   226  GLY226     -0.1210
     46  CA       168.9140  -10.6960   17.2180 C.3   226  GLY226      0.1956
     47  C        170.1730  -11.1850   17.9100 C.2   226  GLY226      0.2612
     48  O        170.1620  -12.2170   18.6160 O.2   226  GLY226     -0.2717
     49  N        171.2780  -10.4590   17.7120 N.am  227  GLY227     -0.1956
     50  CA       172.5570  -10.7720   18.3230 C.3   227  GLY227      0.1869
     51  C        173.3680  -11.7840   17.5290 C.2   227  GLY227      0.2309
     52  O        174.5860  -11.7090   17.4710 O.2   227  GLY227     -0.2863
     53  N        181.0420  -11.6150   20.9820 N.3   317  SER317     -0.1203
     54  CA       181.7800  -11.8090   22.2300 C.3   317  SER317      0.2005
     55  C        180.9270  -12.6730   23.1470 C.2   317  SER317      0.2461
     56  O        180.1360  -12.1470   23.9430 O.2   317  SER317     -0.2732
     57  CB       182.0820  -10.4620   22.9100 C.3   317  SER317      0.2103
     58  OG       182.9610   -9.6790   22.1010 O.3   317  SER317     -0.2182
     59  N        181.0790  -14.0020   23.0480 N.am  318  PRO318     -0.2717
     60  CA       180.1470  -14.8630   23.7740 C.3   318  PRO318      0.1535
     61  C        180.4290  -14.8730   25.2730 C.2   318  PRO318      0.2598
     62  O        181.5520  -14.5920   25.7180 O.2   318  PRO318     -0.2715
     63  CB       180.3890  -16.2460   23.1330 C.3   318  PRO318      0.0310
     64  CG       181.8540  -16.2250   22.6860 C.3   318  PRO318      0.0237
     65  CD       182.0580  -14.7800   22.2300 C.3   318  PRO318      0.0939
     66  N        179.3900  -15.1560   26.0460 N.am  319  VAL319     -0.1978
     67  CA       179.4760  -15.1690   27.4960 C.3   319  VAL319      0.1596
     68  C        179.4410  -16.6330   27.9430 C.2   319  VAL319      0.2287
     69  O        178.6740  -17.4480   27.3850 O.2   319  VAL319     -0.2864
     70  CB       178.3080  -14.3610   28.1100 C.3   319  VAL319      0.0276
     71  CG1      178.4190  -14.3030   29.6170 C.3   319  VAL319      0.0022
     72  CG2      178.3090  -12.9550   27.5510 C.3   319  VAL319      0.0022
@<TRIPOS>BOND
     1    45    46    1
     2    46    47    1
     3    52    51    2
     4    51    50    1
     5    49    47   am
     6    49    50    1
     7    47    48    2
     8    18    17    1
     9     1     2    1
    10     2     5    1
    11     2     3    1
    12    17    19    1
    13    17    16    1
    14    53    54    1
    15     5     6    1
    16    12     3   am
    17    12    13    1
    18     3     4    2
    19    58    57    1
    20    54    57    1
    21    54    55    1
    22    65    64    1
    23    65    59    1
    24    16    13    1
    25    13    14    1
    26    64    63    1
    27     6     7    1
    28    59    55   am
    29    59    60    1
    30    63    60    1
    31    55    56    2
    32     7     8    1
    33    10     9    1
    34    60    61    1
    35    14    15    2
    36    14    20   am
    37     8     9    2
    38     9    11    1
    39    20    21    1
    40    61    62    2
    41    61    66   am
    42    66    67    1
    43    23    22    2
    44    21    22    1
    45    21    24    1
    46    22    25   am
    47    69    68    2
    48    67    68    1
    49    67    70    1
    50    72    70    1
    51    25    26    1
    52    43    42   ar
    53    29    26    1
    54    29    30    1
    55    26    27    1
    56    70    71    1
    57    44    42   ar
    58    42    41    1
    59    27    31   am
    60    27    28    2
    61    31    32    1
    62    41    40    1
    63    40    37    1
    64    32    35    1
    65    32    33    1
    66    36    37    1
    67    37    38    1
    68    33    34    2
    69    38    39    2
