@<TRIPOS>MOLECULE
tmp/3wa3A07.pdb
 85 83 0 0 0
SMALL
GASTEIGER

@<TRIPOS>ATOM
      1  N        158.0540   -0.0390   36.9130 N.3    92  VAL92      -0.1231
      2  CA       156.9050    0.5770   36.2550 C.3    92  VAL92       0.1692
      3  C        157.2600    2.0360   35.9430 C.2    92  VAL92       0.2592
      4  O        157.8460    2.7130   36.7760 O.2    92  VAL92      -0.2718
      5  CB       155.6500    0.5330   37.1520 C.3    92  VAL92       0.0266
      6  CG1      154.4780    1.2850   36.4790 C.3    92  VAL92       0.0020
      7  CG2      155.2230   -0.9200   37.4350 C.3    92  VAL92       0.0020
      8  N        156.9380    2.5030   34.7260 N.am   93  LEU93      -0.1966
      9  CA       157.2680    3.8650   34.2780 C.3    93  LEU93       0.1728
     10  C        156.1170    4.8080   34.6170 C.2    93  LEU93       0.2616
     11  O        154.9500    4.4280   34.5020 O.2    93  LEU93      -0.2715
     12  CB       157.4410    3.9020   32.7590 C.3    93  LEU93       0.0311
     13  CG       158.7100    3.2820   32.1950 C.3    93  LEU93       0.0022
     14  CD1      158.7410    3.4270   30.6740 C.3    93  LEU93       0.0001
     15  CD2      159.8670    3.9810   32.7970 C.3    93  LEU93       0.0001
     16  N        156.4350    6.0380   35.0230 N.am   94  GLU94      -0.1977
     17  CA       155.3560    6.9620   35.3490 C.3    94  GLU94       0.1602
     18  C        154.4600    7.1530   34.1160 C.2    94  GLU94       0.2287
     19  O        153.2500    7.2760   34.2470 O.2    94  GLU94      -0.2864
     20  CB       155.9000    8.3080   35.8150 C.3    94  GLU94       0.0415
     21  CG       154.8190    9.2280   36.3460 C.3    94  GLU94       0.1163
     22  CD       155.3940   10.4750   36.9840 C.2    94  GLU94       0.3649
     23  OE1      154.6370   11.1800   37.6920 O.co2  94  GLU94      -0.2457
     24  OE2      156.6070   10.7420   36.7870 O.co2  94  GLU94      -0.2457
     25  N        151.0960    5.2990   33.6550 N.3    97  PHE97      -0.1241
     26  CA       149.9430    5.6850   34.4790 C.3    97  PHE97       0.1605
     27  C        148.6050    5.4450   33.7770 C.2    97  PHE97       0.2264
     28  O        147.6620    4.8920   34.3610 O.2    97  PHE97      -0.2867
     29  CB       150.0180    7.1880   34.7970 C.3    97  PHE97       0.0534
     30  CG       148.8300    7.7190   35.5880 C.ar   97  PHE97      -0.0203
     31  CD1      148.8220    7.6640   36.9860 C.ar   97  PHE97      -0.0042
     32  CD2      147.7380    8.2990   34.9420 C.ar   97  PHE97      -0.0042
     33  CE1      147.7420    8.1660   37.7220 C.ar   97  PHE97      -0.0003
     34  CE2      146.6530    8.7950   35.6780 C.ar   97  PHE97      -0.0003
     35  CZ       146.6630    8.7280   37.0660 C.ar   97  PHE97      -0.0000
     36  N        147.9500    1.2520   36.4320 N.3   128  PRO128     -0.2116
     37  CA       148.9780    0.3020   36.0200 C.3   128  PRO128      0.1372
     38  C        149.3210   -0.5780   37.2190 C.2   128  PRO128      0.2244
     39  O        150.2030   -0.2500   38.0200 O.2   128  PRO128     -0.2868
     40  CB       150.1610    1.1980   35.6580 C.3   128  PRO128      0.0268
     41  CG       150.0040    2.4150   36.5090 C.3   128  PRO128      0.0207
     42  CD       148.4900    2.6030   36.6570 C.3   128  PRO128      0.0892
     43  N        157.5380    0.1900   41.9430 N.3   294  TYR294     -0.1241
     44  CA       157.0340    1.5320   41.6450 C.3   294  TYR294      0.1605
     45  C        157.9890    2.6860   41.9070 C.2   294  TYR294      0.2264
     46  O        157.9230    3.6940   41.1910 O.2   294  TYR294     -0.2867
     47  CB       155.6810    1.7950   42.3230 C.3   294  TYR294      0.0534
     48  CG       154.5540    0.9770   41.7510 C.ar  294  TYR294     -0.0201
     49  CD1      153.8710    1.3850   40.5910 C.ar  294  TYR294     -0.0009
     50  CD2      154.1690   -0.2280   42.3850 C.ar  294  TYR294     -0.0009
     51  CE1      152.8340    0.6410   40.0840 C.ar  294  TYR294      0.0417
     52  CE2      153.1080   -0.9920   41.8750 C.ar  294  TYR294      0.0417
     53  CZ       152.4560   -0.5450   40.7220 C.ar  294  TYR294      0.1957
     54  OH       151.4400   -1.2900   40.1900 O.3   294  TYR294     -0.2866
     55  N        157.7340    9.3340   43.8300 N.3   299  TYR299     -0.1241
     56  CA       156.3980    9.8620   44.1430 C.3   299  TYR299      0.1605
     57  C        156.3560   10.5690   45.4910 C.2   299  TYR299      0.2264
     58  O        155.2650   10.8130   46.0350 O.2   299  TYR299     -0.2867
     59  CB       155.3700    8.7120   44.0860 C.3   299  TYR299      0.0534
     60  CG       155.4400    8.0880   42.7160 C.ar  299  TYR299     -0.0201
     61  CD1      155.0980    8.8260   41.6140 C.ar  299  TYR299     -0.0009
     62  CD2      155.9310    6.8000   42.5280 C.ar  299  TYR299     -0.0009
     63  CE1      155.2020    8.3190   40.3350 C.ar  299  TYR299      0.0417
     64  CE2      156.0370    6.2810   41.2390 C.ar  299  TYR299      0.0417
     65  CZ       155.6700    7.0460   40.1570 C.ar  299  TYR299      0.1957
     66  OH       155.7580    6.5160   38.8890 O.3   299  TYR299     -0.2866
     67  N        153.2110    8.7920   47.7830 N.3   370  THR370     -0.1203
     68  CA       151.9190    8.2530   47.3860 C.3   370  THR370      0.1994
     69  C        152.0970    7.2080   46.2970 C.2   370  THR370      0.2618
     70  O        152.6530    7.5040   45.2570 O.2   370  THR370     -0.2717
     71  CB       151.0610    9.3380   46.7910 C.3   370  THR370      0.1784
     72  OG1      150.8960   10.3790   47.7560 O.3   370  THR370     -0.2211
     73  CG2      149.6860    8.7890   46.3970 C.3   370  THR370      0.0376
     74  N        151.5470    6.0160   46.4980 N.am  371  ILE371     -0.1965
     75  CA       151.5690    4.9880   45.4590 C.3   371  ILE371      0.1727
     76  C        150.1270    4.5460   45.2650 C.2   371  ILE371      0.2616
     77  O        149.5620    3.7910   46.0670 O.2   371  ILE371     -0.2715
     78  CB       152.3810    3.7360   45.8820 C.3   371  ILE371      0.0290
     79  CG1      153.8300    4.1010   46.2740 C.3   371  ILE371      0.0022
     80  CG2      152.4020    2.7450   44.7350 C.3   371  ILE371      0.0023
     81  CD1      154.5620    4.7790   45.1530 C.3   371  ILE371      0.0001
     82  N        149.5230    5.0220   44.1890 N.am  372  GLY372     -0.1955
     83  CA       148.1270    4.7050   43.9440 C.3   372  GLY372      0.1869
     84  C        147.2040    5.1520   45.0600 C.2   372  GLY372      0.2309
     85  O        147.1010    6.3130   45.3730 O.2   372  GLY372     -0.2863
@<TRIPOS>BOND
     1    14    13    1
     2    13    12    1
     3    13    15    1
     4    12     9    1
     5    25    26    1
     6    27    28    2
     7    27    26    1
     8    18    19    2
     9    18    17    1
    10     9    10    1
    11     9     8    1
    12    26    29    1
    13    11    10    2
    14    10    16   am
    15     8     3   am
    16    29    30    1
    17    32    30   ar
    18    32    34   ar
    19    16    17    1
    20    17    20    1
    21    30    31   ar
    22    40    37    1
    23    40    41    1
    24    34    35   ar
    25    20    21    1
    26     3     2    1
    27     3     4    2
    28    37    36    1
    29    37    38    1
    30     2     1    1
    31     2     5    1
    32    21    22    1
    33    36    42    1
    34     6     5    1
    35    41    42    1
    36    24    22   ar
    37    22    23   ar
    38    31    33   ar
    39    35    33   ar
    40     5     7    1
    41    38    39    2
    42    66    65    1
    43    51    49   ar
    44    51    53   ar
    45    65    63   ar
    46    65    64   ar
    47    54    53    1
    48    63    61   ar
    49    49    48   ar
    50    53    52   ar
    51    46    45    2
    52    64    62   ar
    53    61    60   ar
    54    44    45    1
    55    44    43    1
    56    44    47    1
    57    48    47    1
    58    48    50   ar
    59    52    50   ar
    60    62    60   ar
    61    60    59    1
    62    55    56    1
    63    83    82    1
    64    83    84    1
    65    59    56    1
    66    56    57    1
    67    82    76   am
    68    80    78    1
    69    84    85    2
    70    81    79    1
    71    70    69    2
    72    76    75    1
    73    76    77    2
    74    75    78    1
    75    75    74    1
    76    57    58    2
    77    78    79    1
    78    69    74   am
    79    69    68    1
    80    73    71    1
    81    71    68    1
    82    71    72    1
    83    68    67    1
