@<TRIPOS>MOLECULE
tmp/3wa3A00.pdb
 133 127 0 0 0
SMALL
GASTEIGER

@<TRIPOS>ATOM
      1  N        164.9440    4.1370   35.9910 N.3    33  TYR33      -0.1241
      2  CA       165.5880    4.3260   37.2910 C.3    33  TYR33       0.1605
      3  C        166.9240    5.0440   37.0420 C.2    33  TYR33       0.2264
      4  O        167.6430    4.6780   36.1020 O.2    33  TYR33      -0.2867
      5  CB       165.8770    2.9700   37.9920 C.3    33  TYR33       0.0534
      6  CG       166.8040    3.1890   39.1710 C.ar   33  TYR33      -0.0201
      7  CD1      166.3130    3.6270   40.4010 C.ar   33  TYR33      -0.0009
      8  CD2      168.1790    3.0170   39.0450 C.ar   33  TYR33      -0.0009
      9  CE1      167.1690    3.8850   41.4700 C.ar   33  TYR33       0.0417
     10  CE2      169.0390    3.2780   40.0970 C.ar   33  TYR33       0.0417
     11  CZ       168.5370    3.7100   41.3090 C.ar   33  TYR33       0.1957
     12  OH       169.4040    3.9880   42.3190 O.3    33  TYR33      -0.2866
     13  N        172.5400    8.0220   42.0430 N.3    36  VAL36      -0.1231
     14  CA       173.9510    8.0550   42.3730 C.3    36  VAL36       0.1692
     15  C        174.3190    6.8000   43.1660 C.2    36  VAL36       0.2592
     16  O        173.5380    6.2970   43.9810 O.2    36  VAL36      -0.2718
     17  CB       174.3270    9.3610   43.1240 C.3    36  VAL36       0.0266
     18  CG1      173.9240    9.2920   44.6020 C.3    36  VAL36       0.0020
     19  CG2      175.8320    9.6040   42.9970 C.3    36  VAL36       0.0020
     20  N        175.4920    6.2500   42.8860 N.am   37  LEU37      -0.1966
     21  CA       176.0010    5.1280   43.6480 C.3    37  LEU37       0.1728
     22  C        176.7490    5.6230   44.8720 C.2    37  LEU37       0.2616
     23  O        177.3640    6.6970   44.8600 O.2    37  LEU37      -0.2715
     24  CB       176.9560    4.2910   42.7860 C.3    37  LEU37       0.0311
     25  CG       176.2860    3.5240   41.6390 C.3    37  LEU37       0.0022
     26  CD1      177.3010    2.7430   40.8220 C.3    37  LEU37       0.0001
     27  CD2      175.2590    2.5720   42.2090 C.3    37  LEU37       0.0001
     28  N        176.7320    4.8430   45.9320 N.am   38  ASP38      -0.1971
     29  CA       177.5230    5.1780   47.0910 C.3    38  ASP38       0.1709
     30  C        178.9980    4.9310   46.7880 C.2    38  ASP38       0.2293
     31  O        179.3220    4.1440   45.9000 O.2    38  ASP38      -0.2864
     32  CB       177.1050    4.2910   48.2640 C.3    38  ASP38       0.1436
     33  CG       175.6880    4.5560   48.6970 C.2    38  ASP38       0.3671
     34  OD1      175.1410    5.6020   48.3230 O.co2  38  ASP38      -0.2456
     35  OD2      175.1450    3.7250   49.4370 O.co2  38  ASP38      -0.2456
     36  N        173.9400    4.9320   38.3910 N.3    53  ARG53      -0.1245
     37  CA       173.4080    3.7240   37.7740 C.3    53  ARG53       0.1563
     38  C        172.0570    4.0350   37.1530 C.2    53  ARG53       0.2260
     39  O        171.2540    4.7630   37.7320 O.2    53  ARG53      -0.2867
     40  CB       173.2710    2.5930   38.7840 C.3    53  ARG53       0.0307
     41  CG       172.8200    1.2810   38.1640 C.3    53  ARG53       0.0489
     42  CD       173.2450    0.1180   39.0160 C.3    53  ARG53       0.2205
     43  NE       172.3360   -0.1440   40.1310 N.pl3  53  ARG53      -0.0865
     44  CZ       171.7800   -1.3320   40.3610 C.cat  53  ARG53       0.5346
     45  NH1      170.9780   -1.5020   41.4020 N.pl3  53  ARG53       0.1354
     46  NH2      172.0240   -2.3510   39.5510 N.pl3  53  ARG53       0.1354
     47  N        167.1380    8.6110   47.1300 N.3   242  ASP242     -0.1239
     48  CA       167.2240    7.7700   45.9370 C.3   242  ASP242      0.1674
     49  C        165.8120    7.5510   45.4310 C.2   242  ASP242      0.2266
     50  O        164.8760    7.4360   46.2080 O.2   242  ASP242     -0.2867
     51  CB       167.8680    6.4400   46.3220 C.3   242  ASP242      0.1410
     52  CG       167.8560    5.4340   45.1700 C.2   242  ASP242      0.3668
     53  OD1      168.8230    5.4400   44.3770 O.co2 242  ASP242     -0.2456
     54  OD2      166.9080    4.6410   45.0560 O.co2 242  ASP242     -0.2456
     55  N        164.4570    4.0690   46.8790 N.3   245  GLU245     -0.1245
     56  CA       164.3650    3.8260   48.3200 C.3   245  GLU245      0.1567
     57  C        163.7410    5.0090   49.0400 C.2   245  GLU245      0.2260
     58  O        163.1680    4.8470   50.0970 O.2   245  GLU245     -0.2867
     59  CB       165.7530    3.5870   48.8780 C.3   245  GLU245      0.0388
     60  CG       166.2500    2.1740   48.6280 C.3   245  GLU245      0.1160
     61  CD       167.7100    2.0360   49.0130 C.2   245  GLU245      0.3649
     62  OE1      168.5630    2.6540   48.3380 O.co2 245  GLU245     -0.2457
     63  OE2      168.0030    1.2800   49.9540 O.co2 245  GLU245     -0.2457
     64  N        174.8370    2.7760   56.5390 N.3   266  ARG266     -0.1245
     65  CA       173.7440    3.1790   55.6710 C.3   266  ARG266      0.1563
     66  C        172.4700    2.6160   56.2090 C.2   266  ARG266      0.2260
     67  O        172.4060    1.4140   56.5310 O.2   266  ARG266     -0.2867
     68  CB       173.9510    2.6470   54.2600 C.3   266  ARG266      0.0307
     69  CG       173.0840    3.2890   53.1710 C.3   266  ARG266      0.0489
     70  CD       173.3380    2.5740   51.8200 C.3   266  ARG266      0.2205
     71  NE       172.7330    3.2160   50.6480 N.pl3 266  ARG266     -0.0865
     72  CZ       171.4720    3.0180   50.2390 C.cat 266  ARG266      0.5346
     73  NH1      170.6560    2.2260   50.9080 N.pl3 266  ARG266      0.1354
     74  NH2      171.0140    3.6110   49.1500 N.pl3 266  ARG266      0.1354
     75  N        167.1780   -2.1750   55.5020 N.3   429  ARG429     -0.1245
     76  CA       168.5560   -2.6040   55.3050 C.3   429  ARG429      0.1563
     77  C        169.5010   -1.7000   56.1080 C.2   429  ARG429      0.2260
     78  O        169.6010   -0.5080   55.8400 O.2   429  ARG429     -0.2867
     79  CB       168.8770   -2.5250   53.8120 C.3   429  ARG429      0.0307
     80  CG       170.3180   -3.0180   53.4570 C.3   429  ARG429      0.0489
     81  CD       170.6480   -2.8120   51.9420 C.3   429  ARG429      0.2205
     82  NE       172.0450   -3.1650   51.6680 N.pl3 429  ARG429     -0.0865
     83  CZ       173.0900   -2.3660   51.8260 C.cat 429  ARG429      0.5346
     84  NH1      172.9490   -1.1240   52.3060 N.pl3 429  ARG429      0.1354
     85  NH2      174.3230   -2.8380   51.5490 N.pl3 429  ARG429      0.1354
     86  N        178.5200   -7.8590   53.8540 N.3   537  TYR537     -0.1227
     87  CA       178.4240   -6.7560   52.9020 C.3   537  TYR537      0.1736
     88  C        178.9980   -7.1150   51.5360 C.2   537  TYR537      0.2595
     89  O        180.1120   -7.6640   51.4340 O.2   537  TYR537     -0.2718
     90  CB       179.1330   -5.5050   53.4270 C.3   537  TYR537      0.0548
     91  CG       179.2250   -4.4330   52.3770 C.ar  537  TYR537     -0.0200
     92  CD1      178.1770   -3.5470   52.1670 C.ar  537  TYR537     -0.0009
     93  CD2      180.3490   -4.3130   51.5870 C.ar  537  TYR537     -0.0009
     94  CE1      178.2590   -2.5670   51.1710 C.ar  537  TYR537      0.0417
     95  CE2      180.4300   -3.3510   50.5890 C.ar  537  TYR537      0.0417
     96  CZ       179.3890   -2.4730   50.3990 C.ar  537  TYR537      0.1957
     97  OH       179.4420   -1.5040   49.4210 O.3   537  TYR537     -0.2866
     98  N        178.2360   -6.7740   50.5030 N.am  538  ALA538     -0.1966
     99  CA       178.7060   -6.8000   49.1120 C.3   538  ALA538      0.1728
    100  C        178.0760   -5.6320   48.3830 C.2   538  ALA538      0.2616
    101  O        176.8750   -5.3810   48.5290 O.2   538  ALA538     -0.2715
    102  CB       178.3530   -8.1220   48.3860 C.3   538  ALA538      0.0334
    103  N        178.8670   -4.9400   47.5570 N.am  539  ASP539     -0.1971
    104  CA       178.3290   -3.7190   46.9810 C.3   539  ASP539      0.1709
    105  C        177.1630   -3.9660   46.0220 C.2   539  ASP539      0.2293
    106  O        176.3340   -3.0650   45.8670 O.2   539  ASP539     -0.2864
    107  CB       179.4110   -2.7990   46.3780 C.3   539  ASP539      0.1436
    108  CG       180.1790   -3.4480   45.2440 C.2   539  ASP539      0.3671
    109  OD1      179.7380   -4.5040   44.7560 O.co2 539  ASP539     -0.2456
    110  OD2      181.2300   -2.8930   44.8290 O.co2 539  ASP539     -0.2456
    111  N        171.9580   -5.0600   47.2380 N.3   542  ARG542     -0.1231
    112  CA       171.3490   -3.7900   47.6120 C.3   542  ARG542      0.1694
    113  C        169.9220   -3.9800   48.1110 C.2   542  ARG542      0.2592
    114  O        169.5040   -3.3100   49.0580 O.2   542  ARG542     -0.2718
    115  CB       171.2990   -2.8630   46.3870 C.3   542  ARG542      0.0321
    116  CG       172.6760   -2.5540   45.8270 C.3   542  ARG542      0.0489
    117  CD       172.5480   -1.4710   44.7480 C.3   542  ARG542      0.2205
    118  NE       173.8630   -0.9230   44.4410 N.pl3 542  ARG542     -0.0865
    119  CZ       174.6200   -1.4190   43.4830 C.cat 542  ARG542      0.5346
    120  NH1      175.8240   -0.9120   43.2450 N.pl3 542  ARG542      0.1354
    121  NH2      174.1430   -2.4300   42.7590 N.pl3 542  ARG542      0.1354
    122  N        169.1750   -4.8640   47.4690 N.am  543  TYR543     -0.1976
    123  CA       167.7480   -4.9960   47.7780 C.3   543  TYR543      0.1639
    124  C        167.4100   -6.4160   48.1590 C.2   543  TYR543      0.2290
    125  O        167.9940   -7.3420   47.6170 O.2   543  TYR543     -0.2864
    126  CB       166.8880   -4.5360   46.5970 C.3   543  TYR543      0.0560
    127  CG       167.3820   -3.2320   46.0100 C.ar  543  TYR543     -0.0198
    128  CD1      167.2660   -2.0250   46.7080 C.ar  543  TYR543     -0.0009
    129  CD2      167.9970   -3.2130   44.7680 C.ar  543  TYR543     -0.0009
    130  CE1      167.7470   -0.8280   46.1690 C.ar  543  TYR543      0.0417
    131  CE2      168.4630   -2.0370   44.2310 C.ar  543  TYR543      0.0417
    132  CZ       168.3350   -0.8470   44.9330 C.ar  543  TYR543      0.1957
    133  OH       168.8040    0.3370   44.3800 O.3   543  TYR543     -0.2866
@<TRIPOS>BOND
     1     1     2    1
     2     4     3    2
     3     3     2    1
     4    38    39    2
     5    38    37    1
     6     2     5    1
     7    37    36    1
     8    37    40    1
     9     5     6    1
    10    41    40    1
    11    41    42    1
    12    42    43    1
    13     8     6   ar
    14     8    10   ar
    15     6     7   ar
    16    46    44    1
    17    10    11   ar
    18    43    44    2
    19    44    45    1
    20     7     9   ar
    21    26    25    1
    22    11     9   ar
    23    11    12    1
    24    25    27    1
    25    25    24    1
    26    13    14    1
    27    14    17    1
    28    14    15    1
    29   121   119    1
    30    24    21    1
    31    20    15   am
    32    20    21    1
    33    19    17    1
    34    17    18    1
    35    15    16    2
    36   120   119    1
    37   119   118    2
    38    21    22    1
    39   131   129   ar
    40   131   132   ar
    41    53    52   ar
    42   133   132    1
    43   118   117    1
    44   117   116    1
    45   109   108   ar
    46   129   127   ar
    47   110   108   ar
    48    23    22    2
    49    22    28   am
    50   132   130   ar
    51    54    52   ar
    52    52    51    1
    53   108   107    1
    54    49    48    1
    55    49    50    2
    56   116   115    1
    57   106   105    2
    58    31    30    2
    59    28    29    1
    60    48    51    1
    61    48    47    1
    62   127   126    1
    63   127   128   ar
    64   105   104    1
    65   130   128   ar
    66   107   104    1
    67   115   112    1
    68   126   123    1
    69    30    29    1
    70    55    56    1
    71   104   103    1
    72    29    32    1
    73   111   112    1
    74   122   123    1
    75   122   113   am
    76   103   100   am
    77   112   113    1
    78   125   124    2
    79   123   124    1
    80   113   114    2
    81    32    33    1
    82    56    59    1
    83    56    57    1
    84    34    33   ar
    85    62    61   ar
    86   100   101    2
    87   100    99    1
    88   102    99    1
    89    60    59    1
    90    60    61    1
    91    33    35   ar
    92    61    63   ar
    93    57    58    2
    94    99    98    1
    95    74    72    1
    96    97    96    1
    97    72    71    2
    98    72    73    1
    99    96    95   ar
   100    96    94   ar
   101    98    88   am
   102    95    93   ar
   103    71    70    1
   104    94    92   ar
   105    89    88    2
   106    88    87    1
   107    85    83    1
   108    93    91   ar
   109    82    83    2
   110    82    81    1
   111    70    69    1
   112    83    84    1
   113    81    80    1
   114    92    91   ar
   115    91    90    1
   116    87    90    1
   117    87    86    1
   118    69    68    1
   119    80    79    1
   120    79    76    1
   121    68    65    1
   122    76    75    1
   123    76    77    1
   124    65    66    1
   125    65    64    1
   126    78    77    2
   127    66    67    2
