@<TRIPOS>MOLECULE
tmp/3wa3B03.pdb
 160 154 0 0 0
SMALL
GASTEIGER

@<TRIPOS>ATOM
      1  N        180.9140  -27.1640   33.8740 N.3    33  TYR33      -0.1241
      2  CA       180.3400  -26.9930   32.5300 C.3    33  TYR33       0.1605
      3  C        179.0060  -26.3000   32.7190 C.2    33  TYR33       0.2264
      4  O        178.2710  -26.6420   33.6730 O.2    33  TYR33      -0.2867
      5  CB       180.0940  -28.3490   31.8130 C.3    33  TYR33       0.0534
      6  CG       179.1780  -28.1400   30.6240 C.ar   33  TYR33      -0.0201
      7  CD1      179.6960  -27.7400   29.3860 C.ar   33  TYR33      -0.0009
      8  CD2      177.7870  -28.3010   30.7490 C.ar   33  TYR33      -0.0009
      9  CE1      178.8550  -27.4790   28.3150 C.ar   33  TYR33       0.0417
     10  CE2      176.9380  -28.0460   29.6830 C.ar   33  TYR33       0.0417
     11  CZ       177.4740  -27.6220   28.4760 C.ar   33  TYR33       0.1957
     12  OH       176.6460  -27.3620   27.4060 O.3    33  TYR33      -0.2866
     13  N        173.5840  -23.2200   27.5560 N.3    36  VAL36      -0.1231
     14  CA       172.1660  -23.2220   27.2330 C.3    36  VAL36       0.1692
     15  C        171.8600  -24.5110   26.4500 C.2    36  VAL36       0.2592
     16  O        172.7100  -25.0200   25.7010 O.2    36  VAL36      -0.2718
     17  CB       171.7720  -21.9410   26.4140 C.3    36  VAL36       0.0266
     18  CG1      172.2450  -21.9970   24.9930 C.3    36  VAL36       0.0020
     19  CG2      170.2570  -21.7390   26.4250 C.3    36  VAL36       0.0020
     20  N        170.6460  -25.0310   26.6300 N.am   37  LEU37      -0.1966
     21  CA       170.1480  -26.1310   25.8070 C.3    37  LEU37       0.1728
     22  C        169.3910  -25.6460   24.5990 C.2    37  LEU37       0.2616
     23  O        168.7420  -24.5710   24.6190 O.2    37  LEU37      -0.2715
     24  CB       169.2000  -27.0180   26.6200 C.3    37  LEU37       0.0311
     25  CG       169.8390  -27.6010   27.8720 C.3    37  LEU37       0.0022
     26  CD1      168.7650  -28.1830   28.8010 C.3    37  LEU37       0.0001
     27  CD2      170.8610  -28.6480   27.4930 C.3    37  LEU37       0.0001
     28  N        169.4100  -26.4410   23.5350 N.am   38  ASP38      -0.1958
     29  CA       168.6580  -26.1140   22.3590 C.3    38  ASP38       0.1825
     30  C        167.1720  -26.3590   22.6180 C.2    38  ASP38       0.2464
     31  O        166.8430  -27.1370   23.4990 O.2    38  ASP38      -0.2730
     32  CB       169.1490  -26.9610   21.1900 C.3    38  ASP38       0.1450
     33  CG       170.6040  -26.6290   20.8270 C.2    38  ASP38       0.3671
     34  OD1      171.1010  -25.5440   21.2350 O.co2  38  ASP38      -0.2456
     35  OD2      171.1980  -27.4410   20.0910 O.co2  38  ASP38      -0.2456
     36  N        166.3110  -25.6610   21.8790 N.am   39  PRO39      -0.2727
     37  CA       164.8720  -25.8510   22.0520 C.3    39  PRO39       0.1402
     38  C        164.5140  -27.2900   21.7340 C.2    39  PRO39       0.2269
     39  O        165.2150  -27.9270   20.9340 O.2    39  PRO39      -0.2865
     40  CB       164.2860  -24.9360   20.9830 C.3    39  PRO39       0.0296
     41  CG       165.2510  -23.8860   20.8270 C.3    39  PRO39       0.0237
     42  CD       166.5870  -24.5380   20.9660 C.3    39  PRO39       0.0939
     43  N        162.3000  -30.2380   19.9130 N.3    41  ARG41      -0.1245
     44  CA       161.5780  -30.4010   18.6540 C.3    41  ARG41       0.1563
     45  C        160.1330  -29.8700   18.7490 C.2    41  ARG41       0.2260
     46  O        159.4210  -30.1830   19.7030 O.2    41  ARG41      -0.2867
     47  CB       161.5570  -31.8830   18.2600 C.3    41  ARG41       0.0307
     48  CG       162.9430  -32.4430   17.8480 C.3    41  ARG41       0.0489
     49  CD       163.4160  -31.6880   16.6170 C.3    41  ARG41       0.2205
     50  NE       164.4220  -32.3910   15.8290 N.pl3  41  ARG41      -0.0865
     51  CZ       165.7340  -32.1320   15.8640 C.cat  41  ARG41       0.5346
     52  NH1      166.2390  -31.1980   16.6520 N.pl3  41  ARG41       0.1354
     53  NH2      166.5350  -32.8270   15.0670 N.pl3  41  ARG41       0.1354
     54  N        172.0370  -26.3480   31.1770 N.3    53  ARG53      -0.1245
     55  CA       172.5750  -27.5550   31.7970 C.3    53  ARG53       0.1563
     56  C        173.9000  -27.2460   32.4830 C.2    53  ARG53       0.2260
     57  O        174.7600  -26.5630   31.9280 O.2    53  ARG53      -0.2867
     58  CB       172.7510  -28.6780   30.7710 C.3    53  ARG53       0.0307
     59  CG       173.2100  -30.0060   31.3870 C.3    53  ARG53       0.0489
     60  CD       172.7510  -31.1860   30.5390 C.3    53  ARG53       0.2205
     61  NE       173.6830  -31.5130   29.4690 N.pl3  53  ARG53      -0.0865
     62  CZ       174.2000  -32.7240   29.2720 C.cat  53  ARG53       0.5346
     63  NH1      175.0470  -32.9230   28.2690 N.pl3  53  ARG53       0.1354
     64  NH2      173.8720  -33.7310   30.0730 N.pl3  53  ARG53       0.1354
     65  N        179.0710  -22.6600   22.6900 N.3   242  ASP242     -0.1239
     66  CA       178.9360  -23.5150   23.8730 C.3   242  ASP242      0.1674
     67  C        180.3270  -23.7170   24.4220 C.2   242  ASP242      0.2266
     68  O        181.2890  -23.8270   23.6590 O.2   242  ASP242     -0.2867
     69  CB       178.3510  -24.8650   23.4590 C.3   242  ASP242      0.1410
     70  CG       178.3080  -25.8440   24.6090 C.2   242  ASP242      0.3668
     71  OD1      177.3390  -25.7930   25.3780 O.co2 242  ASP242     -0.2456
     72  OD2      179.2370  -26.6520   24.7340 O.co2 242  ASP242     -0.2456
     73  N        181.7600  -27.1770   23.0370 N.3   245  GLU245     -0.1245
     74  CA       181.9040  -27.3970   21.6010 C.3   245  GLU245      0.1567
     75  C        182.5010  -26.2080   20.8700 C.2   245  GLU245      0.2260
     76  O        183.0810  -26.3850   19.7860 O.2   245  GLU245     -0.2867
     77  CB       180.5400  -27.7340   20.9670 C.3   245  GLU245      0.0388
     78  CG       180.0330  -29.1080   21.3100 C.3   245  GLU245      0.1160
     79  CD       178.6080  -29.2930   20.8280 C.2   245  GLU245      0.3649
     80  OE1      177.7290  -28.6450   21.4200 O.co2 245  GLU245     -0.2457
     81  OE2      178.3780  -30.0650   19.8670 O.co2 245  GLU245     -0.2457
     82  N        171.6340  -28.5050   13.0530 N.3   266  ARG266     -0.1245
     83  CA       172.7050  -28.1070   13.9680 C.3   266  ARG266      0.1563
     84  C        173.9980  -28.6990   13.4600 C.2   266  ARG266      0.2260
     85  O        174.0620  -29.8930   13.1270 O.2   266  ARG266     -0.2867
     86  CB       172.4610  -28.6320   15.3910 C.3   266  ARG266      0.0307
     87  CG       173.3440  -27.9930   16.4900 C.3   266  ARG266      0.0489
     88  CD       172.9680  -28.5960   17.8410 C.3   266  ARG266      0.2205
     89  NE       173.5480  -27.9580   19.0410 N.pl3 266  ARG266     -0.0865
     90  CZ       174.7930  -28.1840   19.4660 C.cat 266  ARG266      0.5346
     91  NH1      175.6040  -29.0040   18.7860 N.pl3 266  ARG266      0.1354
     92  NH2      175.2270  -27.5900   20.5770 N.pl3 266  ARG266      0.1354
     93  N        179.2580  -33.3770   14.2680 N.3   429  ARG429     -0.1245
     94  CA       177.9000  -33.8460   14.4610 C.3   429  ARG429      0.1563
     95  C        176.9710  -32.9620   13.6340 C.2   429  ARG429      0.2260
     96  O        176.8560  -31.7500   13.8790 O.2   429  ARG429     -0.2867
     97  CB       177.5450  -33.8120   15.9570 C.3   429  ARG429      0.0307
     98  CG       176.0710  -34.2450   16.2370 C.3   429  ARG429      0.0489
     99  CD       175.7180  -34.1000   17.7350 C.3   429  ARG429      0.2205
    100  NE       174.3260  -34.4680   18.0020 N.pl3 429  ARG429     -0.0865
    101  CZ       173.3010  -33.6430   17.8330 C.cat 429  ARG429      0.5346
    102  NH1      173.5010  -32.3880   17.3720 N.pl3 429  ARG429      0.1354
    103  NH2      172.0460  -34.0660   18.0870 N.pl3 429  ARG429      0.1354
    104  N        167.9130  -39.1350   15.6570 N.3   537  TYR537     -0.1227
    105  CA       167.9640  -38.0260   16.6040 C.3   537  TYR537      0.1736
    106  C        167.3820  -38.3730   17.9660 C.2   537  TYR537      0.2595
    107  O        166.3010  -38.9720   18.0690 O.2   537  TYR537     -0.2718
    108  CB       167.2460  -36.7890   16.0450 C.3   537  TYR537      0.0548
    109  CG       167.1210  -35.7070   17.0880 C.ar  537  TYR537     -0.0200
    110  CD1      168.1750  -34.8150   17.3150 C.ar  537  TYR537     -0.0009
    111  CD2      165.9640  -35.5900   17.8680 C.ar  537  TYR537     -0.0009
    112  CE1      168.0720  -33.8270   18.2980 C.ar  537  TYR537      0.0417
    113  CE2      165.8580  -34.6010   18.8490 C.ar  537  TYR537      0.0417
    114  CZ       166.9290  -33.7320   19.0550 C.ar  537  TYR537      0.1957
    115  OH       166.8470  -32.7540   20.0180 O.3   537  TYR537     -0.2866
    116  N        168.0870  -37.9740   19.0120 N.am  538  ALA538     -0.1966
    117  CA       167.5460  -38.0290   20.3640 C.3   538  ALA538      0.1728
    118  C        168.1790  -36.8890   21.1250 C.2   538  ALA538      0.2616
    119  O        169.3910  -36.6590   21.0010 O.2   538  ALA538     -0.2715
    120  CB       167.8710  -39.3480   21.0310 C.3   538  ALA538      0.0334
    121  N        167.3600  -36.2170   21.9450 N.am  539  ASP539     -0.1971
    122  CA       167.7590  -35.0090   22.6710 C.3   539  ASP539      0.1709
    123  C        169.0260  -35.2110   23.4770 C.2   539  ASP539      0.2293
    124  O        169.8700  -34.3270   23.5480 O.2   539  ASP539     -0.2864
    125  CB       166.6420  -34.5500   23.6320 C.3   539  ASP539      0.1436
    126  CG       165.3960  -34.0300   22.9090 C.2   539  ASP539      0.3671
    127  OD1      165.4780  -33.6480   21.7310 O.co2 539  ASP539     -0.2456
    128  OD2      164.3170  -33.9870   23.5370 O.co2 539  ASP539     -0.2456
    129  N        171.4200  -37.4100   22.9840 N.3   541  GLU541     -0.1231
    130  CA       172.5890  -37.9930   22.3210 C.3   541  GLU541      0.1699
    131  C        173.3800  -36.8640   21.6820 C.2   541  GLU541      0.2592
    132  O        173.1560  -36.5040   20.5220 O.2   541  GLU541     -0.2718
    133  CB       172.1430  -39.0660   21.3260 C.3   541  GLU541      0.0402
    134  CG       171.5530  -40.2620   22.0670 C.3   541  GLU541      0.1161
    135  CD       170.9550  -41.3030   21.1490 C.2   541  GLU541      0.3649
    136  OE1      171.2720  -41.2930   19.9330 O.co2 541  GLU541     -0.2457
    137  OE2      170.1750  -42.1520   21.6670 O.co2 541  GLU541     -0.2457
    138  N        174.3070  -36.2830   22.4430 N.am  542  ARG542     -0.1966
    139  CA       174.9100  -35.0060   22.0580 C.3   542  ARG542      0.1729
    140  C        176.3630  -35.1770   21.6180 C.2   542  ARG542      0.2616
    141  O        176.8080  -34.5010   20.6890 O.2   542  ARG542     -0.2715
    142  CB       174.9060  -34.0280   23.2410 C.3   542  ARG542      0.0348
    143  CG       173.5090  -33.7020   23.7350 C.3   542  ARG542      0.0492
    144  CD       173.5840  -32.7130   24.9000 C.3   542  ARG542      0.2205
    145  NE       172.2460  -32.1900   25.1790 N.pl3 542  ARG542     -0.0865
    146  CZ       171.4430  -32.7880   26.0370 C.cat 542  ARG542      0.5346
    147  NH1      170.2210  -32.3250   26.2830 N.pl3 542  ARG542      0.1354
    148  NH2      171.9050  -33.8760   26.6470 N.pl3 542  ARG542      0.1354
    149  N        177.0700  -36.1020   22.2530 N.am  543  TYR543     -0.1974
    150  CA       178.5190  -36.2120   21.9990 C.3   543  TYR543      0.1639
    151  C        178.8710  -37.6440   21.6430 C.2   543  TYR543      0.2290
    152  O        178.3160  -38.5970   22.2110 O.2   543  TYR543     -0.2864
    153  CB       179.3600  -35.7810   23.2300 C.3   543  TYR543      0.0560
    154  CG       178.8500  -34.4920   23.8130 C.ar  543  TYR543     -0.0198
    155  CD1      179.0110  -33.2860   23.1250 C.ar  543  TYR543     -0.0009
    156  CD2      178.2060  -34.5000   25.0550 C.ar  543  TYR543     -0.0009
    157  CE1      178.5120  -32.0790   23.6550 C.ar  543  TYR543      0.0417
    158  CE2      177.7130  -33.3080   25.5900 C.ar  543  TYR543      0.0417
    159  CZ       177.8710  -32.1210   24.8920 C.ar  543  TYR543      0.1957
    160  OH       177.3680  -30.9450   25.4260 O.3   543  TYR543     -0.2866
@<TRIPOS>BOND
     1    82    83    1
     2    85    84    2
     3    84    83    1
     4    95    96    2
     5    95    94    1
     6    83    86    1
     7    93    94    1
     8    94    97    1
     9    53    51    1
    10    86    87    1
    11   104   105    1
    12    50    51    2
    13    50    49    1
    14    51    52    1
    15    97    98    1
    16   108   105    1
    17   108   109    1
    18    98    99    1
    19    87    88    1
    20   105   106    1
    21    49    48    1
    22   109   110   ar
    23   109   111   ar
    24   110   112   ar
    25   102   101    1
    26    99   100    1
    27   101   100    2
    28   101   103    1
    29    88    89    1
    30    48    47    1
    31   111   113   ar
    32   106   107    2
    33   106   116   am
    34    47    44    1
    35   112   114   ar
    36    44    45    1
    37    44    43    1
    38    45    46    2
    39    91    90    1
    40   113   114   ar
    41   116   117    1
    42    89    90    2
    43   114   115    1
    44    90    92    1
    45    76    75    2
    46    81    79   ar
    47   136   135   ar
    48    35    33   ar
    49   117   120    1
    50   117   118    1
    51   132   131    2
    52   141   140    2
    53    33    32    1
    54    33    34   ar
    55    41    42    1
    56    41    40    1
    57    79    78    1
    58    79    80   ar
    59    75    74    1
    60    39    38    2
    61    42    36    1
    62    77    78    1
    63    77    74    1
    64    40    37    1
    65   119   118    2
    66   118   121   am
    67   135   137   ar
    68   135   134    1
    69    32    29    1
    70   133   134    1
    71   133   130    1
    72    74    73    1
    73   140   139    1
    74   140   149   am
    75   151   150    1
    76   151   152    2
    77   131   130    1
    78   131   138   am
    79   127   126   ar
    80    38    37    1
    81    36    37    1
    82    36    30   am
    83   121   122    1
    84   150   149    1
    85   150   153    1
    86   139   138    1
    87   139   142    1
    88   130   129    1
    89    29    30    1
    90    29    28    1
    91    30    31    2
    92   122   123    1
    93   122   125    1
    94    65    66    1
    95   126   128   ar
    96   126   125    1
    97   155   157   ar
    98   155   154   ar
    99   153   154    1
   100   142   143    1
   101    69    66    1
   102    69    70    1
   103   123   124    2
   104    28    22   am
   105   157   159   ar
   106    68    67    2
   107   143   144    1
   108   154   156   ar
   109    66    67    1
   110    22    23    2
   111    22    21    1
   112    70    72   ar
   113    70    71   ar
   114   159   160    1
   115   159   158   ar
   116   144   145    1
   117    18    17    1
   118   156   158   ar
   119   145   146    2
   120    16    15    2
   121    21    24    1
   122    21    20    1
   123   146   147    1
   124   146   148    1
   125    17    19    1
   126    17    14    1
   127    15    20   am
   128    15    14    1
   129    24    25    1
   130    14    13    1
   131    12    11    1
   132    27    25    1
   133    25    26    1
   134    63    62    1
   135     9    11   ar
   136     9     7   ar
   137    11    10   ar
   138    62    61    2
   139    62    64    1
   140     7     6   ar
   141    61    60    1
   142    10     8   ar
   143    60    59    1
   144     6     8   ar
   145     6     5    1
   146    58    59    1
   147    58    55    1
   148    54    55    1
   149    55    56    1
   150     5     2    1
   151    57    56    2
   152     2     3    1
   153     2     1    1
   154     3     4    2
