@<TRIPOS>MOLECULE
tmp/3wa3A09.pdb
 93 90 0 0 0
SMALL
GASTEIGER

@<TRIPOS>ATOM
      1  N        151.1210    4.7240   57.7960 N.3   393  ALA393     -0.1245
      2  CA       150.3260    4.2700   56.6430 C.3   393  ALA393      0.1562
      3  C        148.9630    4.9060   56.6400 C.2   393  ALA393      0.2260
      4  O        148.2290    4.8370   57.6200 O.2   393  ALA393     -0.2867
      5  CB       150.1920    2.7600   56.6540 C.3   393  ALA393      0.0290
      6  N        151.2480   -4.7380   54.8930 N.3   424  HIS424     -0.1241
      7  CA       152.2430   -3.8240   54.3290 C.3   424  HIS424      0.1621
      8  C        153.5500   -4.1860   55.0050 C.2   424  HIS424      0.2264
      9  O        153.7080   -3.9550   56.2240 O.2   424  HIS424     -0.2867
     10  CB       151.9450   -2.3370   54.6580 C.3   424  HIS424      0.0745
     11  CG       150.5780   -1.8760   54.2540 C.ar  424  HIS424      0.0817
     12  ND1      150.3200   -1.1410   53.1050 N.ar  424  HIS424     -0.2268
     13  CD2      149.3990   -2.0390   54.8780 C.ar  424  HIS424      0.1154
     14  CE1      149.0100   -0.8990   53.0380 C.ar  424  HIS424      0.1986
     15  NE2      148.4430   -1.4040   54.1220 N.ar  424  HIS424     -0.2212
     16  N        152.6560   -4.2590   58.8770 N.3   581  LEU581     -0.1231
     17  CA       151.3000   -4.1650   59.3930 C.3   581  LEU581      0.1693
     18  C        150.3940   -5.1460   58.6940 C.2   581  LEU581      0.2593
     19  O        150.4080   -5.2420   57.4620 O.2   581  LEU581     -0.2718
     20  CB       150.7310   -2.7520   59.1280 C.3   581  LEU581      0.0284
     21  CG       151.1700   -1.6780   60.1120 C.3   581  LEU581      0.0019
     22  CD1      150.8060   -0.3000   59.5700 C.3   581  LEU581      0.0001
     23  CD2      150.5150   -1.9440   61.4760 C.3   581  LEU581      0.0001
     24  N        149.5600   -5.8370   59.4500 N.am  582  THR582     -0.1939
     25  CA       148.5940   -6.7290   58.8550 C.3   582  THR582      0.2028
     26  C        147.2380   -6.0010   59.0010 C.2   582  THR582      0.2642
     27  O        146.8660   -5.5980   60.0990 O.2   582  THR582     -0.2714
     28  CB       148.5900   -8.0710   59.5690 C.3   582  THR582      0.1808
     29  OG1      149.8740   -8.7180   59.3590 O.3   582  THR582     -0.2208
     30  CG2      147.4500   -8.9560   59.0430 C.3   582  THR582      0.0379
     31  N        146.5670   -5.7740   57.8820 N.am  583  HIS583     -0.1959
     32  CA       145.4610   -4.8240   57.8380 C.3   583  HIS583      0.1787
     33  C        144.1710   -5.5730   57.4750 C.2   583  HIS583      0.2620
     34  O        144.0010   -6.0870   56.3400 O.2   583  HIS583     -0.2715
     35  CB       145.7960   -3.7400   56.7990 C.3   583  HIS583      0.0785
     36  CG       144.8900   -2.5470   56.8440 C.ar  583  HIS583      0.0821
     37  ND1      145.0310   -1.4670   55.9950 N.ar  583  HIS583     -0.2267
     38  CD2      143.8530   -2.2520   57.6640 C.ar  583  HIS583      0.1154
     39  CE1      144.1060   -0.5700   56.2710 C.ar  583  HIS583      0.1986
     40  NE2      143.3730   -1.0190   57.2790 N.ar  583  HIS583     -0.2212
     41  N        143.2690   -5.6560   58.4550 N.am  584  PHE584     -0.1974
     42  CA       141.8980   -6.1130   58.2110 C.3   584  PHE584      0.1639
     43  C        141.0810   -4.8500   58.2600 C.2   584  PHE584      0.2290
     44  O        140.8260   -4.3180   59.3500 O.2   584  PHE584     -0.2864
     45  CB       141.4390   -7.0640   59.3120 C.3   584  PHE584      0.0560
     46  CG       142.2890   -8.2900   59.4610 C.ar  584  PHE584     -0.0200
     47  CD1      142.1720   -9.3640   58.5760 C.ar  584  PHE584     -0.0042
     48  CD2      143.1780   -8.3920   60.5090 C.ar  584  PHE584     -0.0042
     49  CE1      142.9520  -10.5230   58.7070 C.ar  584  PHE584     -0.0003
     50  CE2      143.9520   -9.5390   60.6570 C.ar  584  PHE584     -0.0003
     51  CZ       143.8200  -10.6250   59.7510 C.ar  584  PHE584     -0.0000
     52  N        138.8650   -1.6460   58.7190 N.3   586  ARG586     -0.1245
     53  CA       137.7000   -1.3710   59.5390 C.3   586  ARG586      0.1563
     54  C        136.8490   -0.2900   58.8920 C.2   586  ARG586      0.2260
     55  O        137.3170    0.4480   58.0050 O.2   586  ARG586     -0.2867
     56  CB       138.1450   -0.9290   60.9350 C.3   586  ARG586      0.0307
     57  CG       139.1960    0.1760   60.9180 C.3   586  ARG586      0.0489
     58  CD       139.4080    0.8900   62.2950 C.3   586  ARG586      0.2205
     59  NE       140.3070    2.0300   62.1250 N.pl3 586  ARG586     -0.0865
     60  CZ       140.5680    2.9630   63.0520 C.cat 586  ARG586      0.5346
     61  NH1      140.0410    2.8670   64.2650 N.pl3 586  ARG586      0.1354
     62  NH2      141.3780    3.9930   62.7670 N.pl3 586  ARG586      0.1354
     63  N        138.2820    3.0830   58.6600 N.3   589  ASP589     -0.1239
     64  CA       139.2850    3.3540   57.6320 C.3   589  ASP589      0.1674
     65  C        138.6840    4.0140   56.3890 C.2   589  ASP589      0.2266
     66  O        139.4440    4.4770   55.5130 O.2   589  ASP589     -0.2867
     67  CB       139.9500    2.0540   57.1870 C.3   589  ASP589      0.1410
     68  CG       140.8950    1.4810   58.2410 C.2   589  ASP589      0.3668
     69  OD1      141.3970    2.2180   59.1050 O.co2 589  ASP589     -0.2456
     70  OD2      141.0780    0.2480   58.1720 O.co2 589  ASP589     -0.2456
     71  N        141.6990    6.8160   55.4310 N.3   593  MET593     -0.1231
     72  CA       142.0610    6.0640   56.6340 C.3   593  MET593      0.1687
     73  C        142.9370    6.8660   57.6080 C.2   593  MET593      0.2434
     74  O        143.8820    7.5170   57.2010 O.2   593  MET593     -0.2733
     75  CB       142.7240    4.7210   56.2730 C.3   593  MET593      0.0400
     76  CG       144.2040    4.8020   56.0350 C.3   593  MET593      0.0596
     77  SD       144.8480    3.1760   55.5650 S.3   593  MET593     -0.1393
     78  CE       144.5860    3.2140   53.7510 C.3   593  MET593      0.0692
     79  N        142.5980    6.8270   58.9040 N.am  594  PRO594     -0.2729
     80  CA       143.5340    7.3870   59.8810 C.3   594  PRO594      0.1401
     81  C        144.8640    6.6260   59.8840 C.2   594  PRO594      0.2269
     82  O        144.9270    5.4060   59.6030 O.2   594  PRO594     -0.2865
     83  CB       142.7820    7.2340   61.2090 C.3   594  PRO594      0.0296
     84  CG       141.3430    7.3560   60.8140 C.3   594  PRO594      0.0237
     85  CD       141.2510    6.6130   59.4680 C.3   594  PRO594      0.0939
     86  N        148.0300    4.5410   60.6810 N.3   596  ASP596     -0.1239
     87  CA       148.4730    3.4920   61.5970 C.3   596  ASP596      0.1674
     88  C        149.9660    3.3720   61.4060 C.2   596  ASP596      0.2266
     89  O        150.5060    3.8160   60.3790 O.2   596  ASP596     -0.2867
     90  CB       147.7450    2.1770   61.3020 C.3   596  ASP596      0.1410
     91  CG       147.7830    1.2190   62.4870 C.2   596  ASP596      0.3668
     92  OD1      148.2830    1.6050   63.5630 O.co2 596  ASP596     -0.2456
     93  OD2      147.2890    0.0860   62.3480 O.co2 596  ASP596     -0.2456
@<TRIPOS>BOND
     1    14    12   ar
     2    14    15   ar
     3    12    11   ar
     4    78    77    1
     5    15    13   ar
     6    11    10    1
     7    11    13   ar
     8     7    10    1
     9     7     6    1
    10     7     8    1
    11     8     9    2
    12    71    72    1
    13    66    65    2
    14    77    76    1
    15    37    39   ar
    16    37    36   ar
    17    76    75    1
    18    39    40   ar
    19    75    72    1
    20    34    33    2
    21    65    64    1
    22    72    73    1
    23     3     2    1
    24     3     4    2
    25     2     5    1
    26     2     1    1
    27    35    36    1
    28    35    32    1
    29    36    38   ar
    30    67    64    1
    31    67    68    1
    32    74    73    2
    33    40    38   ar
    34    19    18    2
    35    33    32    1
    36    33    41   am
    37    73    79   am
    38    64    63    1
    39    32    31    1
    40    31    26   am
    41    55    54    2
    42    70    68   ar
    43    42    43    1
    44    42    41    1
    45    42    45    1
    46    68    69   ar
    47    43    44    2
    48    47    49   ar
    49    47    46   ar
    50    18    17    1
    51    18    24   am
    52    49    51   ar
    53    52    53    1
    54    25    26    1
    55    25    24    1
    56    25    28    1
    57    16    17    1
    58    54    53    1
    59    79    85    1
    60    79    80    1
    61    26    27    2
    62    30    28    1
    63    20    17    1
    64    20    21    1
    65    45    46    1
    66    29    28    1
    67    46    48   ar
    68    85    84    1
    69    53    56    1
    70    22    21    1
    71    82    81    2
    72    51    50   ar
    73    80    81    1
    74    80    83    1
    75    21    23    1
    76    89    88    2
    77    48    50   ar
    78    86    87    1
    79    84    83    1
    80    57    56    1
    81    57    58    1
    82    90    87    1
    83    90    91    1
    84    88    87    1
    85    59    58    1
    86    59    60    2
    87    93    91   ar
    88    91    92   ar
    89    62    60    1
    90    60    61    1
