@<TRIPOS>MOLECULE
tmp/3wabA00.pdb
 151 141 0 0 0
SMALL
GASTEIGER

@<TRIPOS>ATOM
      1  N         10.8760  -20.3470    8.1010 N.3    64  HIS64      -0.1241
      2  CA         9.9450  -20.9990    8.9940 C.3    64  HIS64       0.1621
      3  C         10.5980  -22.2300    9.6080 C.2    64  HIS64       0.2264
      4  O         11.1100  -23.1050    8.9070 O.2    64  HIS64      -0.2867
      5  CB         8.6660  -21.3250    8.2190 C.3    64  HIS64       0.0745
      6  CG         7.8770  -20.1050    7.8420 C.ar   64  HIS64       0.0817
      7  ND1        7.3190  -19.9270    6.5940 N.ar   64  HIS64      -0.2268
      8  CD2        7.5550  -18.9990    8.5550 C.ar   64  HIS64       0.1154
      9  CE1        6.6910  -18.7660    6.5520 C.ar   64  HIS64       0.1986
     10  NE2        6.8180  -18.1830    7.7300 N.ar   64  HIS64      -0.2212
     11  N          9.9000  -26.0600    8.5280 N.3    67  GLU67      -0.1245
     12  CA        10.1600  -26.4460    7.1420 C.3    67  GLU67       0.1567
     13  C         11.5950  -26.9150    6.9180 C.2    67  GLU67       0.2260
     14  O         12.3340  -26.3510    6.1070 O.2    67  GLU67      -0.2867
     15  CB         9.7960  -25.2760    6.2270 C.3    67  GLU67       0.0388
     16  CG         8.2960  -24.9920    6.2580 C.3    67  GLU67       0.1160
     17  CD         7.9240  -23.6380    5.7090 C.2    67  GLU67       0.3649
     18  OE1        6.7860  -23.1960    5.9600 O.co2  67  GLU67      -0.2457
     19  OE2        8.7550  -23.0130    5.0300 O.co2  67  GLU67      -0.2457
     20  N          6.5240  -22.6370   13.7880 N.3   122  ARG122     -0.1245
     21  CA         6.6890  -21.9320   12.5170 C.3   122  ARG122      0.1563
     22  C          7.3510  -20.5530   12.6230 C.2   122  ARG122      0.2260
     23  O          8.2800  -20.2370   11.8650 O.2   122  ARG122     -0.2867
     24  CB         5.3100  -21.7820   11.8540 C.3   122  ARG122      0.0307
     25  CG         5.2220  -20.7390   10.7320 C.3   122  ARG122      0.0489
     26  CD         3.7580  -20.4770   10.3490 C.3   122  ARG122      0.2205
     27  NE         3.5900  -19.4100    9.3630 N.pl3 122  ARG122     -0.0865
     28  CZ         3.7580  -19.5590    8.0520 C.cat 122  ARG122      0.5346
     29  NH1        4.1050  -20.7390    7.5500 N.pl3 122  ARG122      0.1354
     30  NH2        3.5650  -18.5280    7.2350 N.pl3 122  ARG122      0.1354
     31  N          7.6860  -14.0710    7.4230 N.3   139  ASN139     -0.1225
     32  CA         7.2560  -13.8430    6.0480 C.3   139  ASN139      0.1785
     33  C          5.9920  -12.9920    5.9660 C.2   139  ASN139      0.2597
     34  O          5.3060  -12.9690    4.9510 O.2   139  ASN139     -0.2718
     35  CB         7.0630  -15.1680    5.2990 C.3   139  ASN139      0.1169
     36  CG         7.3060  -15.0200    3.8020 C.2   139  ASN139      0.2627
     37  OD1        8.1230  -14.1990    3.3820 O.2   139  ASN139     -0.2716
     38  ND2        6.6130  -15.8180    2.9960 N.am  139  ASN139     -0.0877
     39  N          5.6920  -12.2940    7.0560 N.am  140  ARG140     -0.1979
     40  CA         4.5540  -11.3820    7.1040 C.3   140  ARG140      0.1597
     41  C          5.0810  -10.1200    7.7920 C.2   140  ARG140      0.2287
     42  O          4.3370   -9.1750    8.0380 O.2   140  ARG140     -0.2864
     43  CB         3.4080  -11.9850    7.9270 C.3   140  ARG140      0.0334
     44  CG         2.8720  -13.3110    7.3880 C.3   140  ARG140      0.0492
     45  CD         2.1940  -13.1540    6.0250 C.3   140  ARG140      0.2205
     46  NE         1.4480  -14.3540    5.6650 N.pl3 140  ARG140     -0.0865
     47  CZ         2.0070  -15.4960    5.2780 C.cat 140  ARG140      0.5346
     48  NH1        3.3280  -15.5950    5.1860 N.pl3 140  ARG140      0.1354
     49  NH2        1.2460  -16.5460    5.0120 N.pl3 140  ARG140      0.1354
     50  N         11.0410  -22.3510    0.9260 N.3   192  HIS192     -0.1226
     51  CA        10.0660  -22.7710    1.9390 C.3   192  HIS192      0.1752
     52  C          9.6270  -24.2080    1.6660 C.2   192  HIS192      0.2596
     53  O         10.1090  -24.8280    0.7240 O.2   192  HIS192     -0.2718
     54  CB         8.8480  -21.8560    1.9040 C.3   192  HIS192      0.0759
     55  CG         9.1480  -20.4470    2.3050 C.ar  192  HIS192      0.0818
     56  ND1        8.7610  -19.9190    3.5180 N.ar  192  HIS192     -0.2268
     57  CD2        9.8180  -19.4620    1.6640 C.ar  192  HIS192      0.1154
     58  CE1        9.1800  -18.6700    3.6070 C.ar  192  HIS192      0.1986
     59  NE2        9.8250  -18.3680    2.4960 N.ar  192  HIS192     -0.2212
     60  N          8.6200  -24.6620    2.4110 N.am  193  SER193     -0.1952
     61  CA         7.9560  -25.9530    2.2060 C.3   193  SER193      0.1924
     62  C          6.5900  -25.8490    2.8910 C.2   193  SER193      0.2314
     63  O          6.4950  -25.1940    3.9260 O.2   193  SER193     -0.2863
     64  CB         8.7780  -27.0950    2.8040 C.3   193  SER193      0.2116
     65  OG         8.4620  -27.2970    4.1700 O.3   193  SER193     -0.2180
     66  N          6.5510  -19.4390   -6.8390 N.3   199  LEU199     -0.1245
     67  CA         5.7660  -18.2050   -6.8560 C.3   199  LEU199      0.1561
     68  C          6.6440  -16.9730   -7.0800 C.2   199  LEU199      0.2260
     69  O          7.8360  -16.9860   -6.7700 O.2   199  LEU199     -0.2867
     70  CB         5.0250  -18.0460   -5.5210 C.3   199  LEU199      0.0270
     71  CG         4.3040  -19.2980   -5.0040 C.3   199  LEU199      0.0019
     72  CD1        4.0920  -19.2050   -3.5100 C.3   199  LEU199      0.0001
     73  CD2        2.9920  -19.4840   -5.7380 C.3   199  LEU199      0.0001
     74  N          1.9750  -11.0710   -3.3840 N.3   203  SER203     -0.1217
     75  CA         1.0930  -11.8740   -2.5460 C.3   203  SER203      0.1889
     76  C          0.2950  -10.9770   -1.6040 C.2   203  SER203      0.2288
     77  O         -0.6810  -11.4060   -0.9940 O.2   203  SER203     -0.2866
     78  CB         1.9050  -12.8850   -1.7340 C.3   203  SER203      0.2089
     79  OG         2.5890  -13.7930   -2.5780 O.3   203  SER203     -0.2183
     80  N         -1.2570  -19.3480   -4.5380 N.3   243  ILE243     -0.1231
     81  CA        -1.3360  -20.0000   -3.2350 C.3   243  ILE243      0.1692
     82  C         -2.3800  -19.2840   -2.3690 C.2   243  ILE243      0.2592
     83  O         -3.3810  -19.8880   -1.9740 O.2   243  ILE243     -0.2718
     84  CB         0.0650  -20.0580   -2.5520 C.3   243  ILE243      0.0266
     85  CG1       -0.0010  -20.9720   -1.3300 C.3   243  ILE243      0.0019
     86  CG2        0.5510  -18.6630   -2.1670 C.3   243  ILE243      0.0020
     87  CD1        1.3580  -21.3760   -0.8030 C.3   243  ILE243      0.0001
     88  N         -2.1610  -18.0010   -2.0950 N.am  244  TYR244     -0.1976
     89  CA        -3.1020  -17.1790   -1.3220 C.3   244  TYR244      0.1639
     90  C         -2.5270  -15.8020   -1.0370 C.2   244  TYR244      0.2290
     91  O         -1.3200  -15.5970   -1.1350 O.2   244  TYR244     -0.2864
     92  CB        -3.4960  -17.8360    0.0220 C.3   244  TYR244      0.0560
     93  CG        -2.3560  -18.3950    0.8610 C.ar  244  TYR244     -0.0198
     94  CD1       -1.2220  -17.6370    1.1590 C.ar  244  TYR244     -0.0009
     95  CD2       -2.4180  -19.6990    1.3550 C.ar  244  TYR244     -0.0009
     96  CE1       -0.1720  -18.1710    1.9270 C.ar  244  TYR244      0.0417
     97  CE2       -1.3820  -20.2410    2.1220 C.ar  244  TYR244      0.0417
     98  CZ        -0.2640  -19.4770    2.4030 C.ar  244  TYR244      0.1957
     99  OH         0.7520  -20.0350    3.1540 O.3   244  TYR244     -0.2866
    100  N         -0.9800  -12.8750    1.0130 N.3   246  ALA246     -0.1245
    101  CA        -0.1540  -12.9340    2.2160 C.3   246  ALA246      0.1562
    102  C          0.7800  -11.7380    2.2080 C.2   246  ALA246      0.2260
    103  O          1.8540  -11.7870    1.6120 O.2   246  ALA246     -0.2867
    104  CB         0.6540  -14.2280    2.2410 C.3   246  ALA246      0.0290
    105  N          5.5450  -10.2730    2.7090 N.3   249  GLY249     -0.1225
    106  CA         6.5200  -11.2390    2.2390 C.3   249  GLY249      0.1811
    107  C          7.8560  -10.6190    1.8630 C.2   249  GLY249      0.2280
    108  O          7.9280   -9.4610    1.4450 O.2   249  GLY249     -0.2866
    109  N          9.7480  -11.8010   -0.5380 N.3   251  ASP251     -0.1225
    110  CA         9.8360  -11.8450   -1.9890 C.3   251  ASP251      0.1805
    111  C          9.2180  -10.5770   -2.5930 C.2   251  ASP251      0.2597
    112  O          9.7920   -9.9770   -3.5040 O.2   251  ASP251     -0.2718
    113  CB         9.1700  -13.1210   -2.5340 C.3   251  ASP251      0.1424
    114  CG         7.6970  -13.2260   -2.1830 C.2   251  ASP251      0.3668
    115  OD1        7.2160  -12.4690   -1.3160 O.co2 251  ASP251     -0.2456
    116  OD2        7.0150  -14.0840   -2.7740 O.co2 251  ASP251     -0.2456
    117  N          8.0730  -10.1500   -2.0650 N.am  252  ASP252     -0.1974
    118  CA         7.4220   -8.9420   -2.5710 C.3   252  ASP252      0.1709
    119  C          8.2520   -7.6980   -2.2610 C.2   252  ASP252      0.2293
    120  O          8.4890   -6.8690   -3.1410 O.2   252  ASP252     -0.2864
    121  CB         6.0160   -8.7830   -1.9730 C.3   252  ASP252      0.1436
    122  CG         4.9960   -9.7040   -2.6210 C.2   252  ASP252      0.3671
    123  OD1        5.3540  -10.4000   -3.5930 O.co2 252  ASP252     -0.2456
    124  OD2        3.8290   -9.7250   -2.1660 O.co2 252  ASP252     -0.2456
    125  N          9.6430  -17.3880   -4.6640 N.3   264  THR264     -0.1218
    126  CA         9.4570  -18.1180   -3.4130 C.3   264  THR264      0.1862
    127  C          9.2130  -19.5730   -3.8110 C.2   264  THR264      0.2287
    128  O          8.3420  -19.8540   -4.6300 O.2   264  THR264     -0.2866
    129  CB         8.2320  -17.5830   -2.6240 C.3   264  THR264      0.1770
    130  OG1        8.5090  -16.2570   -2.1520 O.3   264  THR264     -0.2211
    131  CG2        7.9090  -18.4880   -1.4360 C.3   264  THR264      0.0375
    132  N          8.1250  -23.4430   -2.7330 N.3   266  GLU266     -0.1245
    133  CA         7.4470  -24.2940   -1.7610 C.3   266  GLU266      0.1567
    134  C          7.9290  -25.6710   -2.2000 C.2   266  GLU266      0.2260
    135  O          7.4590  -26.2110   -3.2100 O.2   266  GLU266     -0.2867
    136  CB         5.9210  -24.1960   -1.9010 C.3   266  GLU266      0.0388
    137  CG         5.2880  -22.9570   -1.2650 C.3   266  GLU266      0.1160
    138  CD         5.1000  -23.0910    0.2330 C.2   266  GLU266      0.3649
    139  OE1        6.0840  -23.4350    0.9250 O.co2 266  GLU266     -0.2457
    140  OE2        3.9720  -22.8470    0.7230 O.co2 266  GLU266     -0.2457
    141  N          5.3340  -30.9950    6.4970 N.3   275  PHE275     -0.1241
    142  CA         6.5720  -30.4630    7.0590 C.3   275  PHE275      0.1605
    143  C          7.5090  -31.5490    7.5790 C.2   275  PHE275      0.2264
    144  O          8.7180  -31.3350    7.7050 O.2   275  PHE275     -0.2867
    145  CB         6.2320  -29.4920    8.1880 C.3   275  PHE275      0.0534
    146  CG         5.3550  -28.3570    7.7550 C.ar  275  PHE275     -0.0203
    147  CD1        5.8090  -27.4350    6.8140 C.ar  275  PHE275     -0.0042
    148  CD2        4.0630  -28.2260    8.2600 C.ar  275  PHE275     -0.0042
    149  CE1        4.9890  -26.3920    6.3740 C.ar  275  PHE275     -0.0003
    150  CE2        3.2310  -27.1900    7.8290 C.ar  275  PHE275     -0.0003
    151  CZ         3.6960  -26.2700    6.8830 C.ar  275  PHE275     -0.0000
@<TRIPOS>BOND
     1    68    67    1
     2    68    69    2
     3    67    66    1
     4    67    70    1
     5    73    71    1
     6    70    71    1
     7    71    72    1
     8   125   126    1
     9   128   127    2
    10    80    81    1
    11   127   126    1
    12   123   122   ar
    13   112   111    2
    14   126   129    1
    15    74    75    1
    16    81    84    1
    17    81    82    1
    18   135   134    2
    19   120   119    2
    20   116   114   ar
    21   132   133    1
    22   129   130    1
    23   129   131    1
    24   122   124   ar
    25   122   121    1
    26   111   117   am
    27   111   110    1
    28    79    78    1
    29   118   119    1
    30   118   117    1
    31   118   121    1
    32    84    86    1
    33    84    85    1
    34    75    78    1
    35    75    76    1
    36   113   114    1
    37   113   110    1
    38    82    88   am
    39    82    83    2
    40   134   133    1
    41   114   115   ar
    42    88    89    1
    43   110   109    1
    44   136   133    1
    45   136   137    1
    46    76    77    2
    47    85    87    1
    48    89    90    1
    49    89    92    1
    50   137   138    1
    51    91    90    2
    52    92    93    1
    53   138   140   ar
    54   138   139   ar
    55    53    52    2
    56    93    94   ar
    57    93    95   ar
    58    50    51    1
    59   100   101    1
    60    94    96   ar
    61    95    97   ar
    62   108   107    2
    63   103   102    2
    64    57    55   ar
    65    57    59   ar
    66    52    51    1
    67    52    60   am
    68   107   106    1
    69    54    51    1
    70    54    55    1
    71    96    98   ar
    72    97    98   ar
    73    61    60    1
    74    61    64    1
    75    61    62    1
    76   102   101    1
    77   101   104    1
    78   106   105    1
    79    55    56   ar
    80    98    99    1
    81    59    58   ar
    82    64    65    1
    83    62    63    2
    84    38    36   am
    85    37    36    2
    86    56    58   ar
    87    36    35    1
    88    34    33    2
    89    49    47    1
    90    19    17   ar
    91    48    47    1
    92    47    46    2
    93    35    32    1
    94    46    45    1
    95    17    18   ar
    96    17    16    1
    97    33    32    1
    98    33    39   am
    99    45    44    1
   100    32    31    1
   101    14    13    2
   102    15    16    1
   103    15    12    1
   104   149   147   ar
   105   149   151   ar
   106   141   142    1
   107     9     7   ar
   108     9    10   ar
   109     7     6   ar
   110   147   146   ar
   111   151   150   ar
   112    13    12    1
   113    39    40    1
   114   142   143    1
   115   142   145    1
   116    40    41    1
   117    40    43    1
   118    12    11    1
   119    30    28    1
   120    44    43    1
   121    29    28    1
   122   143   144    2
   123    10     8   ar
   124   146   145    1
   125   146   148   ar
   126    41    42    2
   127   150   148   ar
   128     6     5    1
   129     6     8   ar
   130    28    27    2
   131     1     2    1
   132     5     2    1
   133     4     3    2
   134     2     3    1
   135    27    26    1
   136    26    25    1
   137    25    24    1
   138    24    21    1
   139    23    22    2
   140    21    22    1
   141    21    20    1
