@<TRIPOS>MOLECULE
tmp/3wagB00.pdb
 136 133 0 0 0
SMALL
GASTEIGER

@<TRIPOS>ATOM
      1  N        -17.2680   29.7240    6.1320 N.3    12  SER12      -0.1217
      2  CA       -18.2010   30.0430    5.0350 C.3    12  SER12       0.1889
      3  C        -18.5920   28.8260    4.2350 C.2    12  SER12       0.2288
      4  O        -19.7160   28.7130    3.8150 O.2    12  SER12      -0.2866
      5  CB       -17.5740   31.0610    4.0530 C.3    12  SER12       0.2089
      6  OG       -17.5370   32.2710    4.7590 O.3    12  SER12      -0.2183
      7  N        -21.0340   26.8950    6.4290 N.3    15  TYR15      -0.1241
      8  CA       -22.3510   27.5280    6.5700 C.3    15  TYR15       0.1605
      9  C        -23.1240   27.2690    5.2990 C.2    15  TYR15       0.2264
     10  O        -24.3600   27.1300    5.3280 O.2    15  TYR15      -0.2867
     11  CB       -22.1890   29.0550    6.7060 C.3    15  TYR15       0.0534
     12  CG       -21.7640   29.4700    8.0860 C.ar   15  TYR15      -0.0201
     13  CD1      -21.4490   28.5300    9.0810 C.ar   15  TYR15      -0.0009
     14  CD2      -21.7110   30.7930    8.3940 C.ar   15  TYR15      -0.0009
     15  CE1      -21.0630   28.9390   10.3220 C.ar   15  TYR15       0.0417
     16  CE2      -21.3000   31.2160    9.6080 C.ar   15  TYR15       0.0417
     17  CZ       -21.0090   30.3030   10.5730 C.ar   15  TYR15       0.1957
     18  OH       -20.6370   30.8430   11.7460 O.3    15  TYR15      -0.2866
     19  N        -29.3440   30.8460    3.0920 N.3   214  PRO214     -0.2102
     20  CA       -27.9830   31.3330    3.5210 C.3   214  PRO214      0.1504
     21  C        -27.9360   31.3620    5.0280 C.2   214  PRO214      0.2576
     22  O        -28.6660   32.1030    5.6460 O.2   214  PRO214     -0.2718
     23  CB       -27.9490   32.7580    2.9990 C.3   214  PRO214      0.0282
     24  CG       -29.4130   33.1910    2.9410 C.3   214  PRO214      0.0208
     25  CD       -30.3070   31.9610    2.9530 C.3   214  PRO214      0.0893
     26  N        -27.1180   30.5270    5.6330 N.am  215  PHE215     -0.1963
     27  CA       -27.0840   30.4630    7.1200 C.3   215  PHE215      0.1771
     28  C        -26.0390   31.5670    7.5430 C.2   215  PHE215      0.2619
     29  O        -24.9240   31.5900    7.0080 O.2   215  PHE215     -0.2715
     30  CB       -26.6630   29.0520    7.5550 C.3   215  PHE215      0.0574
     31  CG       -26.3860   28.9010    9.0560 C.ar  215  PHE215     -0.0200
     32  CD1      -27.4070   28.9880    9.9960 C.ar  215  PHE215     -0.0042
     33  CD2      -25.0670   28.6200    9.4940 C.ar  215  PHE215     -0.0042
     34  CE1      -27.1370   28.8290   11.3470 C.ar  215  PHE215     -0.0003
     35  CE2      -24.7890   28.4360   10.8350 C.ar  215  PHE215     -0.0003
     36  CZ       -25.8180   28.5480   11.7720 C.ar  215  PHE215     -0.0000
     37  N        -26.3990   32.4220    8.4880 N.am  216  ASN216     -0.1972
     38  CA       -25.5780   33.5570    8.8900 C.3   216  ASN216      0.1688
     39  C        -24.8160   33.3100   10.1650 C.2   216  ASN216      0.2292
     40  O        -24.1950   34.2160   10.6990 O.2   216  ASN216     -0.2864
     41  CB       -26.4670   34.7880    9.0090 C.3   216  ASN216      0.1181
     42  CG       -27.1530   35.1030    7.6880 C.2   216  ASN216      0.2629
     43  OD1      -26.5730   34.9210    6.5810 O.2   216  ASN216     -0.2716
     44  ND2      -28.3870   35.5280    7.7850 N.am  216  ASN216     -0.0877
     45  N        -21.7210   46.3920    4.4640 N.3   237  THR237     -0.1218
     46  CA       -20.8700   45.2580    4.8570 C.3   237  THR237      0.1862
     47  C        -19.7720   45.1370    3.8090 C.2   237  THR237      0.2287
     48  O        -19.8350   44.2820    2.9300 O.2   237  THR237     -0.2866
     49  CB       -21.6300   43.8720    5.0370 C.3   237  THR237      0.1770
     50  OG1      -22.2470   43.4590    3.8110 O.3   237  THR237     -0.2211
     51  CG2      -22.6870   43.9420    6.0270 C.3   237  THR237      0.0375
     52  N        -21.0150   47.2140    9.3160 N.3   266  THR266     -0.1218
     53  CA       -20.0750   46.3320    9.9990 C.3   266  THR266      0.1862
     54  C        -18.6230   46.8100    9.8690 C.2   266  THR266      0.2287
     55  O        -18.0610   46.8640    8.7750 O.2   266  THR266     -0.2866
     56  CB       -20.1330   44.8690    9.5210 C.3   266  THR266      0.1770
     57  OG1      -19.7510   44.8110    8.1380 O.3   266  THR266     -0.2211
     58  CG2      -21.5350   44.2750    9.7130 C.3   266  THR266      0.0375
     59  N        -19.7250   45.1630   15.0760 N.3   286  ASP286     -0.1225
     60  CA       -18.7440   44.2040   14.5260 C.3   286  ASP286      0.1805
     61  C        -19.4310   43.1210   13.6610 C.2   286  ASP286      0.2598
     62  O        -18.8190   42.5910   12.7770 O.2   286  ASP286     -0.2718
     63  CB       -17.9140   43.5550   15.6180 C.3   286  ASP286      0.1424
     64  CG       -18.7470   42.7080   16.5230 C.2   286  ASP286      0.3668
     65  OD1      -19.3260   43.2270   17.5090 O.co2 286  ASP286     -0.2456
     66  OD2      -18.8380   41.5120   16.2390 O.co2 286  ASP286     -0.2456
     67  N        -20.7080   42.8420   13.9270 N.am  287  PHE287     -0.1962
     68  CA       -21.5230   41.8100   13.2400 C.3   287  PHE287      0.1771
     69  C        -23.0310   42.1190   13.4460 C.2   287  PHE287      0.2619
     70  O        -23.3910   42.6410   14.4730 O.2   287  PHE287     -0.2715
     71  CB       -21.1580   40.3700   13.6900 C.3   287  PHE287      0.0574
     72  CG       -22.0290   39.2750   13.0740 C.ar  287  PHE287     -0.0200
     73  CD1      -21.6810   38.6800   11.8800 C.ar  287  PHE287     -0.0042
     74  CD2      -23.1790   38.8260   13.7310 C.ar  287  PHE287     -0.0042
     75  CE1      -22.4670   37.6500   11.3320 C.ar  287  PHE287     -0.0003
     76  CE2      -23.9630   37.8090   13.2090 C.ar  287  PHE287     -0.0003
     77  CZ       -23.6170   37.2350   11.9880 C.ar  287  PHE287     -0.0000
     78  N        -23.8710   41.8990   12.4260 N.am  288  VAL288     -0.1964
     79  CA       -25.3370   41.9650   12.6250 C.3   288  VAL288      0.1712
     80  C        -26.0180   40.8430   11.8020 C.2   288  VAL288      0.2458
     81  O        -25.7140   40.7040   10.6370 O.2   288  VAL288     -0.2730
     82  CB       -25.9370   43.3680   12.3220 C.3   288  VAL288      0.0289
     83  CG1      -25.6320   43.7890   10.8840 C.3   288  VAL288      0.0023
     84  CG2      -27.4500   43.4070   12.6360 C.3   288  VAL288      0.0023
     85  N        -26.8910   40.0120   12.4240 N.am  289  PRO289     -0.2716
     86  CA       -27.4870   38.9130   11.6330 C.3   289  PRO289      0.1536
     87  C        -28.3280   39.4630   10.5110 C.2   289  PRO289      0.2598
     88  O        -29.3440   40.1100   10.7660 O.2   289  PRO289     -0.2715
     89  CB       -28.3180   38.1280   12.6330 C.3   289  PRO289      0.0310
     90  CG       -28.3680   38.9190   13.8890 C.3   289  PRO289      0.0237
     91  CD       -27.3270   40.0200   13.8270 C.3   289  PRO289      0.0939
     92  N        -27.9080   39.2130    9.2710 N.am  290  LEU290     -0.1978
     93  CA       -28.5720   39.8000    8.1190 C.3   290  LEU290      0.1596
     94  C        -30.0830   39.4750    8.0140 C.2   290  LEU290      0.2287
     95  O        -30.9020   40.3290    7.6950 O.2   290  LEU290     -0.2864
     96  CB       -27.8340   39.3700    6.8540 C.3   290  LEU290      0.0297
     97  CG       -26.9360   40.3510    6.1170 C.3   290  LEU290      0.0022
     98  CD1      -26.6660   41.6250    6.8930 C.3   290  LEU290      0.0001
     99  CD2      -25.6780   39.6860    5.5230 C.3   290  LEU290      0.0001
    100  N        -19.6800   43.2880   -0.9430 N.3   303  HIS303     -0.1241
    101  CA       -18.5860   42.8470   -1.8140 C.3   303  HIS303      0.1621
    102  C        -18.9610   41.7850   -2.8090 C.2   303  HIS303      0.2264
    103  O        -18.1010   41.3210   -3.5570 O.2   303  HIS303     -0.2867
    104  CB       -17.5530   42.2020   -0.9280 C.3   303  HIS303      0.0745
    105  CG       -18.1600   41.2350    0.0510 C.ar  303  HIS303      0.0817
    106  ND1      -18.6960   41.6290    1.2400 N.ar  303  HIS303     -0.2268
    107  CD2      -18.3760   39.8600   -0.0440 C.ar  303  HIS303      0.1154
    108  CE1      -19.1760   40.5450    1.8780 C.ar  303  HIS303      0.1986
    109  NE2      -19.0120   39.4720    1.0750 N.ar  303  HIS303     -0.2212
    110  N        -20.1980   38.5560   -2.3630 N.3   305  GLY305     -0.1210
    111  CA       -20.1190   37.1730   -1.9310 C.3   305  GLY305      0.1956
    112  C        -21.4820   36.4640   -1.8320 C.2   305  GLY305      0.2612
    113  O        -22.5450   37.0920   -1.6880 O.2   305  GLY305     -0.2717
    114  N        -21.4260   35.1430   -1.9720 N.am  306  GLY306     -0.1942
    115  CA       -22.5960   34.2540   -1.9900 C.3   306  GLY306      0.2014
    116  C        -23.5640   34.3540   -0.8610 C.2   306  GLY306      0.2639
    117  O        -24.7910   34.4180   -1.0810 O.2   306  GLY306     -0.2714
    118  N        -23.0420   34.3940    0.3650 N.am  307  GLY307     -0.1939
    119  CA       -23.9090   34.3700    1.5310 C.3   307  GLY307      0.2014
    120  C        -24.7020   35.6610    1.5920 C.2   307  GLY307      0.2639
    121  O        -25.9350   35.6750    1.8230 O.2   307  GLY307     -0.2714
    122  N        -23.9760   36.7620    1.4310 N.am  308  THR308     -0.1950
    123  CA       -24.5880   38.0840    1.5020 C.3   308  THR308      0.1897
    124  C        -25.5910   38.3370    0.3790 C.2   308  THR308      0.2313
    125  O        -26.6860   38.8470    0.6430 O.2   308  THR308     -0.2863
    126  CB       -23.5480   39.2250    1.5340 C.3   308  THR308      0.1794
    127  OG1      -22.6380   38.9970    2.6210 O.3   308  THR308     -0.2208
    128  CG2      -24.2390   40.5330    1.7230 C.3   308  THR308      0.0378
    129  N        -28.8290   36.3600    0.9890 N.3   311  ASN311     -0.1240
    130  CA       -29.6490   37.1490    1.8660 C.3   311  ASN311      0.1653
    131  C        -30.3780   38.3190    1.1210 C.2   311  ASN311      0.2266
    132  O        -31.5440   38.6080    1.3890 O.2   311  ASN311     -0.2867
    133  CB       -28.8050   37.7290    3.0290 C.3   311  ASN311      0.1155
    134  CG       -28.4850   36.7250    4.0960 C.2   311  ASN311      0.2627
    135  OD1      -29.2810   36.4540    4.9960 O.2   311  ASN311     -0.2716
    136  ND2      -27.2990   36.1990    4.0350 N.am  311  ASN311     -0.0877
@<TRIPOS>BOND
     1   103   102    2
     2   102   101    1
     3   110   111    1
     4   115   114    1
     5   115   116    1
     6   114   112   am
     7   111   112    1
     8   112   113    2
     9   101   100    1
    10   101   104    1
    11   117   116    2
    12   104   105    1
    13   116   118   am
    14   107   105   ar
    15   107   109   ar
    16   105   106   ar
    17   118   119    1
    18   124   125    2
    19   124   123    1
    20   129   130    1
    21   109   108   ar
    22   131   132    2
    23   131   130    1
    24   106   108   ar
    25   122   123    1
    26   122   120   am
    27   123   126    1
    28   119   120    1
    29   126   128    1
    30   126   127    1
    31   120   121    2
    32   130   133    1
    33    48    47    2
    34    24    25    1
    35    24    23    1
    36    25    19    1
    37    23    20    1
    38   133   134    1
    39    19    20    1
    40    20    21    1
    41    47    46    1
    42    50    49    1
    43     4     3    2
    44   136   134   am
    45     5     6    1
    46     5     2    1
    47   134   135    2
    48     3     2    1
    49    45    46    1
    50    46    49    1
    51    21    26   am
    52    21    22    2
    53     2     1    1
    54    49    51    1
    55     9    10    2
    56     9     8    1
    57    99    97    1
    58    26    27    1
    59    97    96    1
    60    97    98    1
    61     7     8    1
    62     8    11    1
    63    43    42    2
    64    11    12    1
    65    96    93    1
    66    29    28    2
    67    27    28    1
    68    27    30    1
    69    28    37   am
    70    30    31    1
    71    42    44   am
    72    42    41    1
    73    95    94    2
    74    94    93    1
    75    12    14   ar
    76    12    13   ar
    77    93    92    1
    78    57    56    1
    79    14    16   ar
    80    37    38    1
    81    55    54    2
    82    38    41    1
    83    38    39    1
    84    31    33   ar
    85    31    32   ar
    86    13    15   ar
    87    92    87   am
    88    52    53    1
    89    33    35   ar
    90    56    58    1
    91    56    53    1
    92    16    17   ar
    93    54    53    1
    94    32    34   ar
    95    39    40    2
    96    15    17   ar
    97    87    88    2
    98    87    86    1
    99    17    18    1
   100    81    80    2
   101    35    36   ar
   102    83    82    1
   103    75    73   ar
   104    75    77   ar
   105    34    36   ar
   106    86    85    1
   107    86    89    1
   108    80    85   am
   109    80    79    1
   110    73    72   ar
   111    77    76   ar
   112    82    79    1
   113    82    84    1
   114    85    91    1
   115    78    79    1
   116    78    69   am
   117    89    90    1
   118    62    61    2
   119    72    71    1
   120    72    74   ar
   121    76    74   ar
   122    68    69    1
   123    68    71    1
   124    68    67    1
   125    69    70    2
   126    61    67   am
   127    61    60    1
   128    91    90    1
   129    60    59    1
   130    60    63    1
   131    63    64    1
   132    66    64   ar
   133    64    65   ar
