@<TRIPOS>MOLECULE
tmp/3wamA00.pdb
 87 83 0 0 0
SMALL
GASTEIGER

@<TRIPOS>ATOM
      1  N        -35.9420   19.6110    1.7650 N.3    26  LYS26      -0.1245
      2  CA       -35.8230   18.2320    2.1220 C.3    26  LYS26       0.1561
      3  C        -34.4400   17.8880    2.7010 C.2    26  LYS26       0.2260
      4  O        -33.4470   18.5980    2.5350 O.2    26  LYS26      -0.2867
      5  CB       -35.9830   17.3380    0.8590 C.3    26  LYS26       0.0271
      6  CG       -37.2140   17.6280    0.0940 C.3    26  LYS26       0.0035
      7  CD       -38.5030   17.3130    0.9730 C.3    26  LYS26       0.0206
      8  CE       -39.7250   17.7740    0.1240 C.3    26  LYS26       0.1093
      9  NZ       -40.9660   17.3930    1.0010 N.3    26  LYS26      -0.1314
     10  N        -35.1850    1.4000   -3.0780 N.3    45  LYS45      -0.1245
     11  CA       -34.4490    2.5960   -3.3710 C.3    45  LYS45       0.1561
     12  C        -33.4530    2.8540   -2.2010 C.2    45  LYS45       0.2260
     13  O        -33.5170    2.1490   -1.1640 O.2    45  LYS45      -0.2867
     14  CB       -35.3840    3.7880   -3.4750 C.3    45  LYS45       0.0271
     15  CG       -36.2420    4.0430   -2.3270 C.3    45  LYS45       0.0035
     16  CD       -37.1170    5.2550   -2.5050 C.3    45  LYS45       0.0206
     17  CE       -36.4850    6.3980   -1.9020 C.3    45  LYS45       0.1093
     18  NZ       -37.2100    7.6120   -2.2670 N.3    45  LYS45      -0.1314
     19  N        -31.9840    6.4700   -1.8470 N.3    47  LYS47      -0.1231
     20  CA       -31.9890    7.9350   -1.4420 C.3    47  LYS47       0.1693
     21  C        -33.3760    8.3700   -1.0990 C.2    47  LYS47       0.2592
     22  O        -34.3490    8.2290   -1.8870 O.2    47  LYS47      -0.2718
     23  CB       -31.3930    8.8620   -2.5630 C.3    47  LYS47       0.0285
     24  CG       -29.8570    8.7620   -2.5610 C.3    47  LYS47       0.0035
     25  CD       -29.2140    9.4860   -3.8180 C.3    47  LYS47       0.0206
     26  CE       -29.3830    8.6120   -5.0070 C.3    47  LYS47       0.1093
     27  NZ       -28.4410    8.7550   -6.1870 N.3    47  LYS47      -0.1314
     28  N        -33.5200    8.9500    0.0960 N.am   48  PHE48      -0.1962
     29  CA       -34.8060    9.4460    0.5390 C.3    48  PHE48       0.1771
     30  C        -34.6300   10.9630    0.7140 C.2    48  PHE48       0.2619
     31  O        -33.7090   11.3970    1.4550 O.2    48  PHE48      -0.2715
     32  CB       -35.1170    8.8190    1.8810 C.3    48  PHE48       0.0574
     33  CG       -35.4800    7.3440    1.7690 C.ar   48  PHE48      -0.0200
     34  CD1      -34.4660    6.3760    1.5650 C.ar   48  PHE48      -0.0042
     35  CD2      -36.8080    6.9540    1.8740 C.ar   48  PHE48      -0.0042
     36  CE1      -34.8280    4.9680    1.4380 C.ar   48  PHE48      -0.0003
     37  CE2      -37.1720    5.5740    1.7730 C.ar   48  PHE48      -0.0003
     38  CZ       -36.1700    4.5780    1.5150 C.ar   48  PHE48      -0.0000
     39  N        -35.5510   11.7240    0.1740 N.am   49  LEU49      -0.1963
     40  CA       -35.5640   13.1640    0.3580 C.3    49  LEU49       0.1728
     41  C        -36.7700   13.5080    1.2440 C.2    49  LEU49       0.2616
     42  O        -37.9110   13.5240    0.7450 O.2    49  LEU49      -0.2715
     43  CB       -35.6480   13.8680   -1.0070 C.3    49  LEU49       0.0311
     44  CG       -34.5070   13.4200   -1.9730 C.3    49  LEU49       0.0022
     45  CD1      -34.6840   14.3370   -3.2790 C.3    49  LEU49       0.0001
     46  CD2      -33.1670   13.6980   -1.3970 C.3    49  LEU49       0.0001
     47  N        -36.4920   13.7000    2.5400 N.am   50  VAL50      -0.1964
     48  CA       -37.5820   13.7120    3.5330 C.3    50  VAL50       0.1712
     49  C        -37.8010   15.0680    4.1150 C.2    50  VAL50       0.2458
     50  O        -36.9110   15.8880    4.1580 O.2    50  VAL50      -0.2730
     51  CB       -37.3910   12.5840    4.6350 C.3    50  VAL50       0.0289
     52  CG1      -37.8060   11.2600    3.9900 C.3    50  VAL50       0.0023
     53  CG2      -36.0310   12.5640    5.1160 C.3    50  VAL50       0.0023
     54  N        -39.0530   15.3270    4.5870 N.am   51  PRO51      -0.2727
     55  CA       -39.2600   16.6790    5.1910 C.3    51  PRO51       0.1402
     56  C        -38.3900   16.8670    6.4090 C.2    51  PRO51       0.2269
     57  O        -38.1380   15.8990    7.2110 O.2    51  PRO51      -0.2865
     58  CB       -40.7240   16.5660    5.7070 C.3    51  PRO51       0.0296
     59  CG       -41.3440   15.5750    4.7390 C.3    51  PRO51       0.0237
     60  CD       -40.2880   14.5280    4.5710 C.3    51  PRO51       0.0939
     61  N        -40.0240   15.6250    9.7610 N.3    54  LEU54      -0.1245
     62  CA       -40.4250   14.2180    9.9510 C.3    54  LEU54       0.1561
     63  C        -39.5780   13.6270   11.0890 C.2    54  LEU54       0.2260
     64  O        -38.3530   13.9030   11.1700 O.2    54  LEU54      -0.2867
     65  CB       -40.0400   13.4460    8.6210 C.3    54  LEU54       0.0270
     66  CG       -40.5200   11.9770    8.6270 C.3    54  LEU54       0.0019
     67  CD1      -41.9590   11.9270    8.2760 C.3    54  LEU54       0.0001
     68  CD2      -39.6570   11.2690    7.4790 C.3    54  LEU54       0.0001
     69  N        -41.6900    4.9170    6.8330 N.3    62  ILE62      -0.1245
     70  CA       -41.3970    5.1760    5.4560 C.3    62  ILE62       0.1561
     71  C        -40.3830    4.1240    4.9300 C.2    62  ILE62       0.2260
     72  O        -40.5370    3.6360    3.8030 O.2    62  ILE62      -0.2867
     73  CB       -40.8500    6.6240    5.2460 C.3    62  ILE62       0.0252
     74  CG1      -42.0360    7.5610    5.3930 C.3    62  ILE62       0.0019
     75  CG2      -40.1960    6.8150    3.9030 C.3    62  ILE62       0.0019
     76  CD1      -41.6860    8.9820    5.6490 C.3    62  ILE62       0.0001
     77  N        -40.8510    0.9030    1.9540 N.3    66  ARG66      -0.1245
     78  CA       -40.0080    0.7270    0.7610 C.3    66  ARG66       0.1563
     79  C        -39.3200   -0.6340    0.7480 C.2    66  ARG66       0.2260
     80  O        -38.7000   -0.9810   -0.2300 O.2    66  ARG66      -0.2867
     81  CB       -38.9120    1.8150    0.6860 C.3    66  ARG66       0.0307
     82  CG       -39.5620    3.1870    0.7960 C.3    66  ARG66       0.0489
     83  CD       -39.5700    3.8380   -0.4930 C.3    66  ARG66       0.2205
     84  NE       -40.1990    3.0650   -1.5660 N.pl3  66  ARG66      -0.0865
     85  CZ       -40.3080    3.5120   -2.8280 C.cat  66  ARG66       0.5346
     86  NH1      -39.8940    4.7090   -3.1860 N.pl3  66  ARG66       0.1354
     87  NH2      -40.8660    2.7620   -3.7680 N.pl3  66  ARG66       0.1354
@<TRIPOS>BOND
     1    27    26    1
     2    26    25    1
     3    25    24    1
     4    87    85    1
     5    14    11    1
     6    14    15    1
     7    11    10    1
     8    11    12    1
     9    45    44    1
    10    86    85    1
    11    85    84    2
    12    23    24    1
    13    23    20    1
    14    16    15    1
    15    16    17    1
    16    18    17    1
    17    12    13    2
    18    44    46    1
    19    44    43    1
    20    22    21    2
    21    19    20    1
    22    84    83    1
    23    20    21    1
    24    21    28   am
    25    43    40    1
    26    83    82    1
    27    80    79    2
    28     6     5    1
    29     6     7    1
    30    28    29    1
    31     8     7    1
    32     8     9    1
    33    39    40    1
    34    39    30   am
    35    40    41    1
    36    29    30    1
    37    29    32    1
    38    81    78    1
    39    81    82    1
    40    30    31    2
    41    42    41    2
    42    79    78    1
    43    78    77    1
    44     5     2    1
    45    41    47   am
    46    36    38   ar
    47    36    34   ar
    48    38    37   ar
    49    34    33   ar
    50     1     2    1
    51    33    35   ar
    52    33    32    1
    53    37    35   ar
    54     2     3    1
    55     4     3    2
    56    47    48    1
    57    48    49    1
    58    48    51    1
    59    72    71    2
    60    75    73    1
    61    52    51    1
    62    49    50    2
    63    49    54   am
    64    60    54    1
    65    60    59    1
    66    54    55    1
    67    51    53    1
    68    59    58    1
    69    71    70    1
    70    55    58    1
    71    55    56    1
    72    73    74    1
    73    73    70    1
    74    74    76    1
    75    70    69    1
    76    56    57    2
    77    68    66    1
    78    67    66    1
    79    65    66    1
    80    65    62    1
    81    61    62    1
    82    62    63    1
    83    63    64    2
