@<TRIPOS>MOLECULE
tmp/3wasA00.pdb
 177 166 0 0 0
SMALL
GASTEIGER

@<TRIPOS>ATOM
      1  N          8.7680   16.3050  213.9700 N.3    72  ASN72      -0.1240
      2  CA         9.8690   16.6480  213.0750 C.3    72  ASN72       0.1653
      3  C         10.4550   18.0400  213.2470 C.2    72  ASN72       0.2266
      4  O         10.2880   18.9200  212.3950 O.2    72  ASN72      -0.2867
      5  CB         9.4560   16.3910  211.6240 C.3    72  ASN72       0.1155
      6  CG         9.0190   14.9520  211.3810 C.2    72  ASN72       0.2627
      7  OD1        8.9940   14.1240  212.2950 O.2    72  ASN72      -0.2716
      8  ND2        8.6870   14.6440  210.1320 N.am   72  ASN72      -0.0877
      9  N          7.5460   21.3780  214.0780 N.3    87  ARG87      -0.1245
     10  CA         6.4540   21.2280  213.1270 C.3    87  ARG87       0.1563
     11  C          5.2100   20.9050  213.9440 C.2    87  ARG87       0.2260
     12  O          5.1020   19.8270  214.5520 O.2    87  ARG87      -0.2867
     13  CB         6.7300   20.0940  212.1380 C.3    87  ARG87       0.0307
     14  CG         5.5540   19.8360  211.2000 C.3    87  ARG87       0.0489
     15  CD         5.8030   18.6470  210.3070 C.3    87  ARG87       0.2205
     16  NE         4.6330   18.3220  209.4940 N.pl3  87  ARG87      -0.0865
     17  CZ         4.5940   17.3110  208.6290 C.cat  87  ARG87       0.5346
     18  NH1        5.6590   16.5340  208.4570 N.pl3  87  ARG87       0.1354
     19  NH2        3.4790   17.0850  207.9390 N.pl3  87  ARG87       0.1354
     20  N         -5.0540   19.6100  209.6620 N.3    93  ARG93      -0.1245
     21  CA        -4.0780   18.8460  208.8640 C.3    93  ARG93       0.1563
     22  C         -2.9920   19.6900  208.2100 C.2    93  ARG93       0.2260
     23  O         -2.0940   19.1530  207.5550 O.2    93  ARG93      -0.2867
     24  CB        -4.7340   17.8750  207.8570 C.3    93  ARG93       0.0307
     25  CG        -4.4520   16.3920  208.1590 C.3    93  ARG93       0.0489
     26  CD        -2.9670   16.0510  208.0280 C.3    93  ARG93       0.2205
     27  NE        -2.5560   15.8900  206.6320 N.pl3  93  ARG93      -0.0865
     28  CZ        -1.3160   15.6050  206.2470 C.cat  93  ARG93       0.5346
     29  NH1       -0.3500   15.4620  207.1480 N.pl3  93  ARG93       0.1354
     30  NH2       -1.0370   15.4640  204.9530 N.pl3  93  ARG93       0.1354
     31  N          1.3090   23.3290  202.2880 N.3   127  ASN127     -0.1240
     32  CA         1.8910   22.9050  203.5550 C.3   127  ASN127      0.1653
     33  C          3.3790   23.1870  203.5790 C.2   127  ASN127      0.2266
     34  O          4.0430   23.1580  202.5400 O.2   127  ASN127     -0.2867
     35  CB         1.6300   21.4180  203.8070 C.3   127  ASN127      0.1155
     36  CG         1.6160   21.0760  205.2820 C.2   127  ASN127      0.2627
     37  OD1        1.1440   21.8620  206.1050 O.2   127  ASN127     -0.2716
     38  ND2        2.1130   19.8920  205.6200 N.am  127  ASN127     -0.0877
     39  N          6.8470   22.0760  206.0760 N.3   129  TYR129     -0.1227
     40  CA         7.2270   21.1230  207.1260 C.3   129  TYR129      0.1736
     41  C          8.7060   20.7780  207.2150 C.2   129  TYR129      0.2595
     42  O          9.4530   20.9640  206.2610 O.2   129  TYR129     -0.2718
     43  CB         6.3970   19.8330  207.0410 C.3   129  TYR129      0.0548
     44  CG         6.2800   19.1360  205.7010 C.ar  129  TYR129     -0.0200
     45  CD1        6.9670   17.9530  205.4510 C.ar  129  TYR129     -0.0009
     46  CD2        5.4010   19.5910  204.7260 C.ar  129  TYR129     -0.0009
     47  CE1        6.8140   17.2730  204.2540 C.ar  129  TYR129      0.0417
     48  CE2        5.2440   18.9130  203.5240 C.ar  129  TYR129      0.0417
     49  CZ         5.9510   17.7560  203.3020 C.ar  129  TYR129      0.1957
     50  OH         5.7840   17.0890  202.1160 O.3   129  TYR129     -0.2866
     51  N          9.1010   20.2820  208.3880 N.am  130  ASP130     -0.1974
     52  CA        10.3990   19.6300  208.6030 C.3   130  ASP130      0.1709
     53  C         11.5880   20.5740  208.3820 C.2   130  ASP130      0.2293
     54  O         12.4510   20.3130  207.5390 O.2   130  ASP130     -0.2864
     55  CB        10.5470   18.3850  207.7080 C.3   130  ASP130      0.1436
     56  CG         9.4880   17.3180  207.9580 C.2   130  ASP130      0.3671
     57  OD1        8.5680   17.5140  208.7850 O.co2 130  ASP130     -0.2456
     58  OD2        9.5800   16.2730  207.2750 O.co2 130  ASP130     -0.2456
     59  N          5.0910   22.1850  200.0870 N.3   148  GLU148     -0.1245
     60  CA         4.2970   21.2420  199.3190 C.3   148  GLU148      0.1567
     61  C          3.0790   21.9040  198.6780 C.2   148  GLU148      0.2260
     62  O          2.4090   22.7430  199.2920 O.2   148  GLU148     -0.2867
     63  CB         3.8500   20.0910  200.2110 C.3   148  GLU148      0.0388
     64  CG         3.0550   19.0300  199.4800 C.3   148  GLU148      0.1160
     65  CD         2.4870   17.9880  200.4170 C.2   148  GLU148      0.3649
     66  OE1        3.2230   17.5300  201.3230 O.co2 148  GLU148     -0.2457
     67  OE2        1.2990   17.6340  200.2570 O.co2 148  GLU148     -0.2457
     68  N         13.1000   16.7730  198.9820 N.3   190  ARG190     -0.1231
     69  CA        12.6830   16.8990  200.3730 C.3   190  ARG190      0.1694
     70  C         13.9040   16.4590  201.1670 C.2   190  ARG190      0.2592
     71  O         14.7510   15.7490  200.6390 O.2   190  ARG190     -0.2718
     72  CB        11.4360   16.0480  200.6830 C.3   190  ARG190      0.0321
     73  CG        10.8800   16.2120  202.1090 C.3   190  ARG190      0.0489
     74  CD         9.4510   15.6510  202.2800 C.3   190  ARG190      0.2205
     75  NE         9.3540   14.2810  201.7850 N.pl3 190  ARG190     -0.0865
     76  CZ         8.5220   13.8770  200.8290 C.cat 190  ARG190      0.5346
     77  NH1        7.6710   14.7390  200.2790 N.pl3 190  ARG190      0.1354
     78  NH2        8.5390   12.6060  200.4270 N.pl3 190  ARG190      0.1354
     79  N         14.0090   16.8950  202.4140 N.am  191  ASN191     -0.1974
     80  CA        15.2040   16.6630  203.2290 C.3   191  ASN191      0.1688
     81  C         16.4480   17.3960  202.7490 C.2   191  ASN191      0.2292
     82  O         17.5720   16.9120  202.9320 O.2   191  ASN191     -0.2864
     83  CB        15.5010   15.1650  203.3940 C.3   191  ASN191      0.1181
     84  CG        14.2630   14.3810  203.7640 C.2   191  ASN191      0.2629
     85  OD1       13.7640   14.4990  204.8830 O.2   191  ASN191     -0.2716
     86  ND2       13.7400   13.5970  202.8160 N.am  191  ASN191     -0.0877
     87  N          6.5900   12.2740  194.5500 N.3   213  PHE213     -0.1227
     88  CA         6.3070   12.9470  195.8100 C.3   213  PHE213      0.1736
     89  C          6.6100   12.0560  197.0100 C.2   213  PHE213      0.2595
     90  O          7.1050   12.5330  198.0390 O.2   213  PHE213     -0.2718
     91  CB         4.8480   13.4340  195.8380 C.3   213  PHE213      0.0547
     92  CG         4.4040   13.9510  197.1790 C.ar  213  PHE213     -0.0202
     93  CD1        4.9420   15.1240  197.6950 C.ar  213  PHE213     -0.0042
     94  CD2        3.4560   13.2650  197.9250 C.ar  213  PHE213     -0.0042
     95  CE1        4.5530   15.5980  198.9410 C.ar  213  PHE213     -0.0003
     96  CE2        3.0570   13.7430  199.1680 C.ar  213  PHE213     -0.0003
     97  CZ         3.6090   14.9070  199.6730 C.ar  213  PHE213     -0.0000
     98  N          6.3270   10.7630  196.8800 N.am  214  ILE214     -0.1980
     99  CA         6.5880    9.8200  197.9650 C.3   214  ILE214      0.1595
    100  C          7.7310    8.8530  197.6320 C.2   214  ILE214      0.2287
    101  O          8.5780    8.5670  198.4830 O.2   214  ILE214     -0.2864
    102  CB         5.2960    9.0780  198.3800 C.3   214  ILE214      0.0276
    103  CG1        4.4250   10.0130  199.2240 C.3   214  ILE214      0.0022
    104  CG2        5.6120    7.8050  199.1640 C.3   214  ILE214      0.0022
    105  CD1        3.0860    9.4310  199.6160 C.3   214  ILE214      0.0001
    106  N         14.2670    4.4810  200.6060 N.3   253  LYS253     -0.1245
    107  CA        14.7260    5.8590  200.5660 C.3   253  LYS253      0.1561
    108  C         15.5310    6.1770  201.7980 C.2   253  LYS253      0.2260
    109  O         15.6080    5.3830  202.7300 O.2   253  LYS253     -0.2867
    110  CB        13.5950    6.8730  200.3440 C.3   253  LYS253      0.0271
    111  CG        12.3640    6.7100  201.1790 C.3   253  LYS253      0.0035
    112  CD        11.2950    7.7080  200.7080 C.3   253  LYS253      0.0206
    113  CE         9.9800    7.5040  201.4380 C.3   253  LYS253      0.1093
    114  NZ         9.0670    8.6760  201.2220 N.3   253  LYS253     -0.1314
    115  N         17.7210    9.4940  208.2070 N.3   272  HIS272     -0.1241
    116  CA        16.7180    8.4570  208.3000 C.3   272  HIS272      0.1621
    117  C         16.7980    7.5170  207.1070 C.2   272  HIS272      0.2264
    118  O         17.1920    7.9200  206.0000 O.2   272  HIS272     -0.2867
    119  CB        15.2980    9.0240  208.4650 C.3   272  HIS272      0.0745
    120  CG        14.7720    9.7390  207.2600 C.ar  272  HIS272      0.0817
    121  ND1       14.9950   11.0840  207.0310 N.ar  272  HIS272     -0.2268
    122  CD2       13.9890    9.3130  206.2370 C.ar  272  HIS272      0.1154
    123  CE1       14.3950   11.4450  205.9110 C.ar  272  HIS272      0.1986
    124  NE2       13.7750   10.3890  205.4090 N.ar  272  HIS272     -0.2212
    125  N          5.4770    1.7520  205.2920 N.3   281  LEU281     -0.1245
    126  CA         6.8690    2.1840  205.3330 C.3   281  LEU281      0.1561
    127  C          7.3800    2.2090  206.7660 C.2   281  LEU281      0.2260
    128  O          6.6760    2.6270  207.6880 O.2   281  LEU281     -0.2867
    129  CB         7.0450    3.5610  204.6880 C.3   281  LEU281      0.0270
    130  CG         6.6230    3.6820  203.2270 C.3   281  LEU281      0.0019
    131  CD1        6.8420    5.1170  202.7490 C.3   281  LEU281      0.0001
    132  CD2        7.3960    2.7170  202.3530 C.3   281  LEU281      0.0001
    133  N         10.4490    3.6660  209.1410 N.3   283  TYR283     -0.1241
    134  CA        11.5220    4.6590  209.2170 C.3   283  TYR283      0.1605
    135  C         12.3380    4.4730  210.4760 C.2   283  TYR283      0.2264
    136  O         11.7850    4.4130  211.5860 O.2   283  TYR283     -0.2867
    137  CB        10.9400    6.0680  209.3110 C.3   283  TYR283      0.0534
    138  CG        10.3960    6.6660  208.0420 C.ar  283  TYR283     -0.0201
    139  CD1       10.9130    7.8570  207.5410 C.ar  283  TYR283     -0.0009
    140  CD2        9.3400    6.0710  207.3660 C.ar  283  TYR283     -0.0009
    141  CE1       10.3980    8.4340  206.3800 C.ar  283  TYR283      0.0417
    142  CE2        8.8250    6.6330  206.2030 C.ar  283  TYR283      0.0417
    143  CZ         9.3620    7.8070  205.7190 C.ar  283  TYR283      0.1957
    144  OH         8.8550    8.3560  204.5680 O.3   283  TYR283     -0.2866
    145  N          1.3490    8.0860  212.2070 N.3   318  VAL318     -0.1245
    146  CA         2.0850    7.3450  211.1890 C.3   318  VAL318      0.1561
    147  C          3.0540    6.4290  211.9110 C.2   318  VAL318      0.2260
    148  O          4.2160    6.7700  212.1600 O.2   318  VAL318     -0.2867
    149  CB         2.8220    8.2790  210.1950 C.3   318  VAL318      0.0252
    150  CG1        3.3550    7.4640  209.0370 C.3   318  VAL318      0.0019
    151  CG2        1.8750    9.3540  209.6840 C.3   318  VAL318      0.0019
    152  N          7.6660    4.7540  212.8150 N.3   321  VAL321     -0.1245
    153  CA         8.5370    5.8140  212.3150 C.3   321  VAL321      0.1561
    154  C          9.3110    6.4950  213.4430 C.2   321  VAL321      0.2260
    155  O          8.7270    6.8870  214.4560 O.2   321  VAL321     -0.2867
    156  CB         7.7020    6.9070  211.5920 C.3   321  VAL321      0.0252
    157  CG1        8.5420    8.1510  211.3150 C.3   321  VAL321      0.0019
    158  CG2        7.0970    6.3750  210.3040 C.3   321  VAL321      0.0019
    159  N         12.0230    9.8970  213.2530 N.3   323  PHE323     -0.1241
    160  CA        12.4730   10.9150  212.3190 C.3   323  PHE323      0.1605
    161  C         13.2050   11.9850  213.1060 C.2   323  PHE323      0.2264
    162  O         12.7380   12.3900  214.1630 O.2   323  PHE323     -0.2867
    163  CB        11.2670   11.5520  211.6100 C.3   323  PHE323      0.0534
    164  CG        11.6210   12.3290  210.3770 C.ar  323  PHE323     -0.0203
    165  CD1       11.5590   11.7260  209.1230 C.ar  323  PHE323     -0.0042
    166  CD2       12.0310   13.6590  210.4630 C.ar  323  PHE323     -0.0042
    167  CE1       11.8870   12.4390  207.9750 C.ar  323  PHE323     -0.0003
    168  CE2       12.3670   14.3800  209.3110 C.ar  323  PHE323     -0.0003
    169  CZ        12.3020   13.7690  208.0750 C.ar  323  PHE323     -0.0000
    170  N          5.3030   10.4490  213.7530 N.3   343  ASP343     -0.1239
    171  CA         4.7730   11.7350  213.2770 C.3   343  ASP343      0.1674
    172  C          3.8530   12.4140  214.2980 C.2   343  ASP343      0.2266
    173  O          3.0170   13.2450  213.9280 O.2   343  ASP343     -0.2867
    174  CB         4.0260   11.5760  211.9390 C.3   343  ASP343      0.1410
    175  CG         4.9460   11.3720  210.7550 C.2   343  ASP343      0.3668
    176  OD1        6.1530   11.1040  210.9250 O.co2 343  ASP343     -0.2456
    177  OD2        4.4470   11.4680  209.6140 O.co2 343  ASP343     -0.2456
@<TRIPOS>BOND
     1    87    88    1
     2    88    91    1
     3    88    89    1
     4    91    92    1
     5    98    89   am
     6    98    99    1
     7    89    90    2
     8    92    93   ar
     9    92    94   ar
    10   100    99    1
    11   100   101    2
    12    93    95   ar
    13    94    96   ar
    14    99   102    1
    15   102   104    1
    16   102   103    1
    17    61    62    2
    18    61    60    1
    19    95    97   ar
    20    68    69    1
    21    96    97   ar
    22   103   105    1
    23    60    59    1
    24    60    63    1
    25    64    63    1
    26    64    65    1
    27    67    65   ar
    28    77    76    1
    29   110   107    1
    30   110   111    1
    31    69    72    1
    32    69    70    1
    33    65    66   ar
    34    78    76    1
    35   107   106    1
    36   107   108    1
    37    71    70    2
    38    72    73    1
    39   112   111    1
    40   112   113    1
    41    76    75    2
    42    70    79   am
    43   114   113    1
    44    75    74    1
    45   108   109    2
    46    73    74    1
    47    50    49    1
    48    31    32    1
    49   132   130    1
    50    79    80    1
    51    34    33    2
    52   131   130    1
    53    81    82    2
    54    81    80    1
    55    86    84   am
    56   130   129    1
    57    80    83    1
    58    49    48   ar
    59    49    47   ar
    60    83    84    1
    61    48    46   ar
    62    32    33    1
    63    32    35    1
    64    84    85    2
    65    35    36    1
    66    47    45   ar
    67   144   143    1
    68   129   126    1
    69    46    44   ar
    70    30    28    1
    71    36    38   am
    72    36    37    2
    73   125   126    1
    74   126   127    1
    75   124   123   ar
    76   124   122   ar
    77    45    44   ar
    78    44    43    1
    79   143   142   ar
    80   143   141   ar
    81   123   121   ar
    82   118   117    2
    83    39    40    1
    84   142   140   ar
    85   122   120   ar
    86    28    27    2
    87    28    29    1
    88    42    41    2
    89   141   139   ar
    90    27    26    1
    91   127   128    2
    92   121   120   ar
    93    43    40    1
    94   117   116    1
    95    40    41    1
    96    41    51   am
    97   120   119    1
    98    58    56   ar
    99   140   138   ar
   100    54    53    2
   101   139   138   ar
   102    23    22    2
   103    55    56    1
   104    55    52    1
   105    24    25    1
   106    24    21    1
   107    19    17    1
   108    56    57   ar
   109   167   169   ar
   110   167   165   ar
   111    26    25    1
   112   138   137    1
   113   169   168   ar
   114   115   116    1
   115    22    21    1
   116   116   119    1
   117    53    52    1
   118    51    52    1
   119    18    17    1
   120    17    16    2
   121    21    20    1
   122   150   149    1
   123   165   164   ar
   124   133   134    1
   125   134   137    1
   126   134   135    1
   127   168   166   ar
   128    16    15    1
   129   177   175   ar
   130   151   149    1
   131     8     6   am
   132   149   146    1
   133   158   156    1
   134    15    14    1
   135   164   166   ar
   136   164   163    1
   137   135   136    2
   138   175   176   ar
   139   175   174    1
   140   146   147    1
   141   146   145    1
   142    14    13    1
   143   157   156    1
   144     6     5    1
   145     6     7    2
   146   156   153    1
   147   163   160    1
   148     5     2    1
   149   147   148    2
   150   174   171    1
   151    13    10    1
   152   153   152    1
   153   153   154    1
   154   160   161    1
   155   160   159    1
   156     4     3    2
   157     2     3    1
   158     2     1    1
   159   161   162    2
   160    10    11    1
   161    10     9    1
   162   171   170    1
   163   171   172    1
   164   154   155    2
   165   173   172    2
   166    11    12    2
