@<TRIPOS>MOLECULE
tmp/3watA00.pdb
 126 118 0 0 0
SMALL
GASTEIGER

@<TRIPOS>ATOM
      1  N          8.7450   16.2830  213.9930 N.3    72  ASN72      -0.1240
      2  CA         9.8590   16.6310  213.1080 C.3    72  ASN72       0.1653
      3  C         10.4180   18.0360  213.2990 C.2    72  ASN72       0.2266
      4  O         10.2180   18.9330  212.4650 O.2    72  ASN72      -0.2867
      5  CB         9.4530   16.3860  211.6520 C.3    72  ASN72       0.1155
      6  CG         9.0120   14.9520  211.3970 C.2    72  ASN72       0.2627
      7  OD1        8.9470   14.1200  212.3100 O.2    72  ASN72      -0.2716
      8  ND2        8.7140   14.6530  210.1460 N.am   72  ASN72      -0.0877
      9  N          7.5050   21.3890  214.1600 N.3    87  ARG87      -0.1245
     10  CA         6.3980   21.2460  213.2160 C.3    87  ARG87       0.1563
     11  C          5.1500   20.9130  214.0270 C.2    87  ARG87       0.2260
     12  O          5.0390   19.8270  214.6200 O.2    87  ARG87      -0.2867
     13  CB         6.6750   20.1370  212.1990 C.3    87  ARG87       0.0307
     14  CG         5.4830   19.8700  211.2900 C.3    87  ARG87       0.0489
     15  CD         5.7480   18.6950  210.3920 C.3    87  ARG87       0.2205
     16  NE         4.5870   18.3640  209.5750 N.pl3  87  ARG87      -0.0865
     17  CZ         4.5530   17.3660  208.6910 C.cat  87  ARG87       0.5346
     18  NH1        5.6190   16.5910  208.5010 N.pl3  87  ARG87       0.1354
     19  NH2        3.4390   17.1540  207.9940 N.pl3  87  ARG87       0.1354
     20  N         -5.1210   19.6240  209.7340 N.3    93  ARG93      -0.1245
     21  CA        -4.1300   18.8620  208.9490 C.3    93  ARG93       0.1563
     22  C         -3.0540   19.7100  208.2810 C.2    93  ARG93       0.2260
     23  O         -2.1850   19.1830  207.5800 O.2    93  ARG93      -0.2867
     24  CB        -4.7780   17.8900  207.9440 C.3    93  ARG93       0.0307
     25  CG        -4.4900   16.4090  208.2350 C.3    93  ARG93       0.0489
     26  CD        -3.0060   16.0750  208.1200 C.3    93  ARG93       0.2205
     27  NE        -2.5870   15.9300  206.7280 N.pl3  93  ARG93      -0.0865
     28  CZ        -1.3450   15.6690  206.3380 C.cat  93  ARG93       0.5346
     29  NH1       -0.3760   15.5290  207.2350 N.pl3  93  ARG93       0.1354
     30  NH2       -1.0710   15.5480  205.0430 N.pl3  93  ARG93       0.1354
     31  N          1.2730   23.3880  202.3420 N.3   127  ASN127     -0.1240
     32  CA         1.8340   22.9690  203.6200 C.3   127  ASN127      0.1653
     33  C          3.3230   23.2500  203.6450 C.2   127  ASN127      0.2266
     34  O          3.9890   23.2280  202.6070 O.2   127  ASN127     -0.2867
     35  CB         1.5810   21.4790  203.8840 C.3   127  ASN127      0.1155
     36  CG         1.5490   21.1570  205.3630 C.2   127  ASN127      0.2627
     37  OD1        1.1020   21.9760  206.1670 O.2   127  ASN127     -0.2716
     38  ND2        2.0330   19.9770  205.7330 N.am  127  ASN127     -0.0877
     39  N          6.7880   22.1230  206.1280 N.3   129  TYR129     -0.1227
     40  CA         7.1590   21.1680  207.1740 C.3   129  TYR129      0.1736
     41  C          8.6360   20.8290  207.2680 C.2   129  TYR129      0.2595
     42  O          9.4000   21.0450  206.3240 O.2   129  TYR129     -0.2718
     43  CB         6.3190   19.8760  207.0920 C.3   129  TYR129      0.0548
     44  CG         6.2050   19.1670  205.7470 C.ar  129  TYR129     -0.0200
     45  CD1        6.8890   17.9780  205.5030 C.ar  129  TYR129     -0.0009
     46  CD2        5.3520   19.6420  204.7570 C.ar  129  TYR129     -0.0009
     47  CE1        6.7430   17.3010  204.3050 C.ar  129  TYR129      0.0417
     48  CE2        5.2060   18.9690  203.5460 C.ar  129  TYR129      0.0417
     49  CZ         5.9000   17.8060  203.3320 C.ar  129  TYR129      0.1957
     50  OH         5.7440   17.1290  202.1440 O.3   129  TYR129     -0.2866
     51  N          9.0160   20.3160  208.4370 N.am  130  ASP130     -0.1974
     52  CA        10.3070   19.6590  208.6710 C.3   130  ASP130      0.1709
     53  C         11.4990   20.5870  208.4640 C.2   130  ASP130      0.2293
     54  O         12.3550   20.3310  207.6190 O.2   130  ASP130     -0.2864
     55  CB        10.4510   18.4100  207.7830 C.3   130  ASP130      0.1436
     56  CG         9.3950   17.3440  208.0630 C.2   130  ASP130      0.3671
     57  OD1        8.4520   17.5860  208.8540 O.co2 130  ASP130     -0.2456
     58  OD2        9.5250   16.2470  207.4690 O.co2 130  ASP130     -0.2456
     59  N          5.0420   22.2720  200.1430 N.3   148  GLU148     -0.1245
     60  CA         4.2370   21.3270  199.3840 C.3   148  GLU148      0.1567
     61  C          3.0130   21.9740  198.7440 C.2   148  GLU148      0.2260
     62  O          2.3410   22.8120  199.3550 O.2   148  GLU148     -0.2867
     63  CB         3.8000   20.1680  200.2710 C.3   148  GLU148      0.0388
     64  CG         2.9930   19.1180  199.5230 C.3   148  GLU148      0.1160
     65  CD         2.4320   18.0580  200.4400 C.2   148  GLU148      0.3649
     66  OE1        3.1760   17.5710  201.3270 O.co2 148  GLU148     -0.2457
     67  OE2        1.2370   17.7260  200.2930 O.co2 148  GLU148     -0.2457
     68  N         13.0210   16.7970  199.1290 N.3   190  ARG190     -0.1245
     69  CA        12.6050   16.9260  200.5180 C.3   190  ARG190      0.1563
     70  C         13.8290   16.4980  201.3120 C.2   190  ARG190      0.2260
     71  O         14.6900   15.8040  200.7740 O.2   190  ARG190     -0.2867
     72  CB        11.3570   16.0780  200.8160 C.3   190  ARG190      0.0307
     73  CG        10.8080   16.2070  202.2490 C.3   190  ARG190      0.0489
     74  CD         9.3660   15.6810  202.3790 C.3   190  ARG190      0.2205
     75  NE         9.2600   14.3120  201.8740 N.pl3 190  ARG190     -0.0865
     76  CZ         8.4240   13.9110  200.9150 C.cat 190  ARG190      0.5346
     77  NH1        7.5620   14.7630  200.3630 N.pl3 190  ARG190      0.1354
     78  NH2        8.4430   12.6420  200.5150 N.pl3 190  ARG190      0.1354
     79  N          6.4840   12.3000  194.6150 N.3   213  PHE213     -0.1227
     80  CA         6.2050   12.9690  195.8790 C.3   213  PHE213      0.1736
     81  C          6.5320   12.0740  197.0780 C.2   213  PHE213      0.2595
     82  O          7.0400   12.5510  198.1040 O.2   213  PHE213     -0.2718
     83  CB         4.7420   13.4360  195.9170 C.3   213  PHE213      0.0547
     84  CG         4.3130   13.9770  197.2480 C.ar  213  PHE213     -0.0202
     85  CD1        4.8540   15.1590  197.7330 C.ar  213  PHE213     -0.0042
     86  CD2        3.3860   13.2930  198.0240 C.ar  213  PHE213     -0.0042
     87  CE1        4.4740   15.6590  198.9690 C.ar  213  PHE213     -0.0003
     88  CE2        2.9970   13.7900  199.2640 C.ar  213  PHE213     -0.0003
     89  CZ         3.5480   14.9720  199.7310 C.ar  213  PHE213     -0.0000
     90  N          6.2490   10.7800  196.9440 N.am  214  ILE214     -0.1980
     91  CA         6.4910    9.8330  198.0320 C.3   214  ILE214      0.1595
     92  C          7.6510    8.8860  197.7240 C.2   214  ILE214      0.2287
     93  O          8.4880    8.6130  198.5900 O.2   214  ILE214     -0.2864
     94  CB         5.2030    9.0590  198.3960 C.3   214  ILE214      0.0276
     95  CG1        4.2780    9.9720  199.2050 C.3   214  ILE214      0.0022
     96  CG2        5.5170    7.8090  199.2030 C.3   214  ILE214      0.0022
     97  CD1        2.9480    9.3510  199.5540 C.3   214  ILE214      0.0001
     98  N         14.2360    4.4830  200.7110 N.3   253  LYS253     -0.1245
     99  CA        14.4610    5.9220  200.8040 C.3   253  LYS253      0.1561
    100  C         15.4640    6.1820  201.9030 C.2   253  LYS253      0.2260
    101  O         15.6300    5.3740  202.8070 O.2   253  LYS253     -0.2867
    102  CB        13.1750    6.6600  201.2100 C.3   253  LYS253      0.0271
    103  CG        12.0240    6.5900  200.2440 C.3   253  LYS253      0.0035
    104  CD        11.1040    7.7920  200.4120 C.3   253  LYS253      0.0206
    105  CE        10.0470    7.5850  201.4910 C.3   253  LYS253      0.1093
    106  NZ         9.0060    8.6730  201.3750 N.3   253  LYS253     -0.1314
    107  N         10.4370    3.6260  209.2250 N.3   283  TYR283     -0.1241
    108  CA        11.4930    4.6350  209.2900 C.3   283  TYR283      0.1605
    109  C         12.3240    4.4610  210.5490 C.2   283  TYR283      0.2264
    110  O         11.7750    4.4160  211.6570 O.2   283  TYR283     -0.2867
    111  CB        10.8910    6.0340  209.3750 C.3   283  TYR283      0.0534
    112  CG        10.3750    6.6360  208.0960 C.ar  283  TYR283     -0.0201
    113  CD1       10.9150    7.8230  207.6070 C.ar  283  TYR283     -0.0009
    114  CD2        9.3320    6.0490  207.3940 C.ar  283  TYR283     -0.0009
    115  CE1       10.4290    8.4050  206.4510 C.ar  283  TYR283      0.0417
    116  CE2        8.8390    6.6240  206.2310 C.ar  283  TYR283      0.0417
    117  CZ         9.4010    7.7970  205.7630 C.ar  283  TYR283      0.1957
    118  OH         8.9250    8.3610  204.6000 O.3   283  TYR283     -0.2866
    119  N          5.3020   10.4680  213.7860 N.3   343  ASP343     -0.1239
    120  CA         4.7480   11.7440  213.3120 C.3   343  ASP343      0.1674
    121  C          3.8260   12.4230  214.3390 C.2   343  ASP343      0.2266
    122  O          3.0110   13.2730  213.9780 O.2   343  ASP343     -0.2867
    123  CB         4.0010   11.5710  211.9700 C.3   343  ASP343      0.1410
    124  CG         4.9250   11.3820  210.7730 C.2   343  ASP343      0.3668
    125  OD1        6.1400   11.1500  210.9340 O.co2 343  ASP343     -0.2456
    126  OD2        4.4150   11.4440  209.6330 O.co2 343  ASP343     -0.2456
@<TRIPOS>BOND
     1    79    80    1
     2    80    83    1
     3    80    81    1
     4    83    84    1
     5    90    81   am
     6    90    91    1
     7    81    82    2
     8    84    85   ar
     9    84    86   ar
    10    92    91    1
    11    92    93    2
    12    85    87   ar
    13    86    88   ar
    14    91    94    1
    15    94    96    1
    16    94    95    1
    17    61    62    2
    18    61    60    1
    19    87    89   ar
    20    68    69    1
    21    95    97    1
    22    88    89   ar
    23    60    59    1
    24    60    63    1
    25    64    63    1
    26    64    65    1
    27   103   104    1
    28   103   102    1
    29    67    65   ar
    30    77    76    1
    31   104   105    1
    32    65    66   ar
    33    78    76    1
    34    69    72    1
    35    69    70    1
    36    98    99    1
    37    71    70    2
    38    99   102    1
    39    99   100    1
    40    72    73    1
    41    76    75    2
    42   106   105    1
    43    75    74    1
    44   100   101    2
    45    50    49    1
    46    73    74    1
    47    31    32    1
    48    34    33    2
    49    49    48   ar
    50    49    47   ar
    51    48    46   ar
    52    32    33    1
    53    32    35    1
    54    35    36    1
    55    47    45   ar
    56   118   117    1
    57    46    44   ar
    58    30    28    1
    59    36    38   am
    60    36    37    2
    61    45    44   ar
    62    44    43    1
    63   117   116   ar
    64   117   115   ar
    65    39    40    1
    66   116   114   ar
    67    42    41    2
    68    28    27    2
    69    28    29    1
    70   115   113   ar
    71    27    26    1
    72    43    40    1
    73    40    41    1
    74    41    51   am
    75   114   112   ar
    76    58    56   ar
    77    23    22    2
    78   113   112   ar
    79    54    53    2
    80    55    56    1
    81    55    52    1
    82    24    25    1
    83    24    21    1
    84    19    17    1
    85    56    57   ar
    86   112   111    1
    87    26    25    1
    88    22    21    1
    89    51    52    1
    90    53    52    1
    91    18    17    1
    92    17    16    2
    93    21    20    1
    94   107   108    1
    95   108   111    1
    96   108   109    1
    97    16    15    1
    98   126   124   ar
    99     8     6   am
   100    15    14    1
   101   109   110    2
   102   124   125   ar
   103   124   123    1
   104    14    13    1
   105     6     5    1
   106     6     7    2
   107     5     2    1
   108   123   120    1
   109    13    10    1
   110     4     3    2
   111     2     3    1
   112     2     1    1
   113    10    11    1
   114    10     9    1
   115   120   119    1
   116   120   121    1
   117   122   121    2
   118    11    12    2
