@<TRIPOS>MOLECULE
tmp/3watA01.pdb
 122 115 0 0 0
SMALL
GASTEIGER

@<TRIPOS>ATOM
      1  N          8.7450   16.2830  213.9930 N.3    72  ASN72      -0.1240
      2  CA         9.8590   16.6310  213.1080 C.3    72  ASN72       0.1653
      3  C         10.4180   18.0360  213.2990 C.2    72  ASN72       0.2266
      4  O         10.2180   18.9330  212.4650 O.2    72  ASN72      -0.2867
      5  CB         9.4530   16.3860  211.6520 C.3    72  ASN72       0.1155
      6  CG         9.0120   14.9520  211.3970 C.2    72  ASN72       0.2627
      7  OD1        8.9470   14.1200  212.3100 O.2    72  ASN72      -0.2716
      8  ND2        8.7140   14.6530  210.1460 N.am   72  ASN72      -0.0877
      9  N          7.5050   21.3890  214.1600 N.3    87  ARG87      -0.1245
     10  CA         6.3980   21.2460  213.2160 C.3    87  ARG87       0.1563
     11  C          5.1500   20.9130  214.0270 C.2    87  ARG87       0.2260
     12  O          5.0390   19.8270  214.6200 O.2    87  ARG87      -0.2867
     13  CB         6.6750   20.1370  212.1990 C.3    87  ARG87       0.0307
     14  CG         5.4830   19.8700  211.2900 C.3    87  ARG87       0.0489
     15  CD         5.7480   18.6950  210.3920 C.3    87  ARG87       0.2205
     16  NE         4.5870   18.3640  209.5750 N.pl3  87  ARG87      -0.0865
     17  CZ         4.5530   17.3660  208.6910 C.cat  87  ARG87       0.5346
     18  NH1        5.6190   16.5910  208.5010 N.pl3  87  ARG87       0.1354
     19  NH2        3.4390   17.1540  207.9940 N.pl3  87  ARG87       0.1354
     20  N          6.7880   22.1230  206.1280 N.3   129  TYR129     -0.1227
     21  CA         7.1590   21.1680  207.1740 C.3   129  TYR129      0.1736
     22  C          8.6360   20.8290  207.2680 C.2   129  TYR129      0.2595
     23  O          9.4000   21.0450  206.3240 O.2   129  TYR129     -0.2718
     24  CB         6.3190   19.8760  207.0920 C.3   129  TYR129      0.0548
     25  CG         6.2050   19.1670  205.7470 C.ar  129  TYR129     -0.0200
     26  CD1        6.8890   17.9780  205.5030 C.ar  129  TYR129     -0.0009
     27  CD2        5.3520   19.6420  204.7570 C.ar  129  TYR129     -0.0009
     28  CE1        6.7430   17.3010  204.3050 C.ar  129  TYR129      0.0417
     29  CE2        5.2060   18.9690  203.5460 C.ar  129  TYR129      0.0417
     30  CZ         5.9000   17.8060  203.3320 C.ar  129  TYR129      0.1957
     31  OH         5.7440   17.1290  202.1440 O.3   129  TYR129     -0.2866
     32  N          9.0160   20.3160  208.4370 N.am  130  ASP130     -0.1974
     33  CA        10.3070   19.6590  208.6710 C.3   130  ASP130      0.1709
     34  C         11.4990   20.5870  208.4640 C.2   130  ASP130      0.2293
     35  O         12.3550   20.3310  207.6190 O.2   130  ASP130     -0.2864
     36  CB        10.4510   18.4100  207.7830 C.3   130  ASP130      0.1436
     37  CG         9.3950   17.3440  208.0630 C.2   130  ASP130      0.3671
     38  OD1        8.4520   17.5860  208.8540 O.co2 130  ASP130     -0.2456
     39  OD2        9.5250   16.2470  207.4690 O.co2 130  ASP130     -0.2456
     40  N         13.0210   16.7970  199.1290 N.3   190  ARG190     -0.1231
     41  CA        12.6050   16.9260  200.5180 C.3   190  ARG190      0.1694
     42  C         13.8290   16.4980  201.3120 C.2   190  ARG190      0.2592
     43  O         14.6900   15.8040  200.7740 O.2   190  ARG190     -0.2718
     44  CB        11.3570   16.0780  200.8160 C.3   190  ARG190      0.0321
     45  CG        10.8080   16.2070  202.2490 C.3   190  ARG190      0.0489
     46  CD         9.3660   15.6810  202.3790 C.3   190  ARG190      0.2205
     47  NE         9.2600   14.3120  201.8740 N.pl3 190  ARG190     -0.0865
     48  CZ         8.4240   13.9110  200.9150 C.cat 190  ARG190      0.5346
     49  NH1        7.5620   14.7630  200.3630 N.pl3 190  ARG190      0.1354
     50  NH2        8.4430   12.6420  200.5150 N.pl3 190  ARG190      0.1354
     51  N         13.9270   16.9310  202.5620 N.am  191  ASN191     -0.1974
     52  CA        15.1280   16.7190  203.3760 C.3   191  ASN191      0.1688
     53  C         16.3650   17.4490  202.8730 C.2   191  ASN191      0.2292
     54  O         17.4990   16.9730  203.0560 O.2   191  ASN191     -0.2864
     55  CB        15.4470   15.2240  203.5340 C.3   191  ASN191      0.1181
     56  CG        14.2200   14.4100  203.8880 C.2   191  ASN191      0.2629
     57  OD1       13.7100   14.5140  205.0010 O.2   191  ASN191     -0.2716
     58  ND2       13.7420   13.5800  202.9440 N.am  191  ASN191     -0.0877
     59  N         14.2360    4.4830  200.7110 N.3   253  LYS253     -0.1245
     60  CA        14.4610    5.9220  200.8040 C.3   253  LYS253      0.1561
     61  C         15.4640    6.1820  201.9030 C.2   253  LYS253      0.2260
     62  O         15.6300    5.3740  202.8070 O.2   253  LYS253     -0.2867
     63  CB        13.1750    6.6600  201.2100 C.3   253  LYS253      0.0271
     64  CG        12.0240    6.5900  200.2440 C.3   253  LYS253      0.0035
     65  CD        11.1040    7.7920  200.4120 C.3   253  LYS253      0.0206
     66  CE        10.0470    7.5850  201.4910 C.3   253  LYS253      0.1093
     67  NZ         9.0060    8.6730  201.3750 N.3   253  LYS253     -0.1314
     68  N         17.6580    9.5350  208.2860 N.3   272  HIS272     -0.1241
     69  CA        16.6590    8.4840  208.3650 C.3   272  HIS272      0.1621
     70  C         16.7410    7.5420  207.1820 C.2   272  HIS272      0.2264
     71  O         17.1440    7.9410  206.0820 O.2   272  HIS272     -0.2867
     72  CB        15.2370    9.0290  208.5310 C.3   272  HIS272      0.0745
     73  CG        14.7050    9.7510  207.3310 C.ar  272  HIS272      0.0817
     74  ND1       14.8890   11.1050  207.1400 N.ar  272  HIS272     -0.2268
     75  CD2       13.9470    9.3240  206.2930 C.ar  272  HIS272      0.1154
     76  CE1       14.2910   11.4730  206.0200 C.ar  272  HIS272      0.1986
     77  NE2       13.7090   10.4120  205.4870 N.ar  272  HIS272     -0.2212
     78  N         10.4370    3.6260  209.2250 N.3   283  TYR283     -0.1241
     79  CA        11.4930    4.6350  209.2900 C.3   283  TYR283      0.1605
     80  C         12.3240    4.4610  210.5490 C.2   283  TYR283      0.2264
     81  O         11.7750    4.4160  211.6570 O.2   283  TYR283     -0.2867
     82  CB        10.8910    6.0340  209.3750 C.3   283  TYR283      0.0534
     83  CG        10.3750    6.6360  208.0960 C.ar  283  TYR283     -0.0201
     84  CD1       10.9150    7.8230  207.6070 C.ar  283  TYR283     -0.0009
     85  CD2        9.3320    6.0490  207.3940 C.ar  283  TYR283     -0.0009
     86  CE1       10.4290    8.4050  206.4510 C.ar  283  TYR283      0.0417
     87  CE2        8.8390    6.6240  206.2310 C.ar  283  TYR283      0.0417
     88  CZ         9.4010    7.7970  205.7630 C.ar  283  TYR283      0.1957
     89  OH         8.9250    8.3610  204.6000 O.3   283  TYR283     -0.2866
     90  N          1.3230    8.0940  212.2470 N.3   318  VAL318     -0.1245
     91  CA         2.0550    7.3420  211.2390 C.3   318  VAL318      0.1561
     92  C          3.0250    6.4280  211.9670 C.2   318  VAL318      0.2260
     93  O          4.1830    6.7780  212.2090 O.2   318  VAL318     -0.2867
     94  CB         2.8000    8.2690  210.2570 C.3   318  VAL318      0.0252
     95  CG1        3.3830    7.4490  209.1070 C.3   318  VAL318      0.0019
     96  CG2        1.8440    9.3430  209.7210 C.3   318  VAL318      0.0019
     97  N          7.6530    4.7460  212.8700 N.3   321  VAL321     -0.1245
     98  CA         8.5260    5.8070  212.3710 C.3   321  VAL321      0.1561
     99  C          9.2930    6.4840  213.5050 C.2   321  VAL321      0.2260
    100  O          8.7050    6.8690  214.5160 O.2   321  VAL321     -0.2867
    101  CB         7.6840    6.8890  211.6540 C.3   321  VAL321      0.0252
    102  CG1        8.5180    8.1440  211.3750 C.3   321  VAL321      0.0019
    103  CG2        7.0870    6.3430  210.3690 C.3   321  VAL321      0.0019
    104  N         11.9930    9.8970  213.3300 N.3   323  PHE323     -0.1241
    105  CA        12.4640   10.9080  212.3910 C.3   323  PHE323      0.1605
    106  C         13.1970   11.9760  213.1870 C.2   323  PHE323      0.2264
    107  O         12.7320   12.3750  214.2490 O.2   323  PHE323     -0.2867
    108  CB        11.2640   11.5590  211.6910 C.3   323  PHE323      0.0534
    109  CG        11.6140   12.3260  210.4470 C.ar  323  PHE323     -0.0203
    110  CD1       11.5100   11.7210  209.1990 C.ar  323  PHE323     -0.0042
    111  CD2       12.0280   13.6530  210.5170 C.ar  323  PHE323     -0.0042
    112  CE1       11.8180   12.4220  208.0390 C.ar  323  PHE323     -0.0003
    113  CE2       12.3550   14.3580  209.3620 C.ar  323  PHE323     -0.0003
    114  CZ        12.2500   13.7440  208.1240 C.ar  323  PHE323     -0.0000
    115  N          5.3020   10.4680  213.7860 N.3   343  ASP343     -0.1239
    116  CA         4.7480   11.7440  213.3120 C.3   343  ASP343      0.1674
    117  C          3.8260   12.4230  214.3390 C.2   343  ASP343      0.2266
    118  O          3.0110   13.2730  213.9780 O.2   343  ASP343     -0.2867
    119  CB         4.0010   11.5710  211.9700 C.3   343  ASP343      0.1410
    120  CG         4.9250   11.3820  210.7730 C.2   343  ASP343      0.3668
    121  OD1        6.1400   11.1500  210.9340 O.co2 343  ASP343     -0.2456
    122  OD2        4.4150   11.4440  209.6330 O.co2 343  ASP343     -0.2456
@<TRIPOS>BOND
     1    40    41    1
     2    64    65    1
     3    64    63    1
     4    49    48    1
     5    65    66    1
     6    50    48    1
     7    41    44    1
     8    41    42    1
     9    59    60    1
    10    43    42    2
    11    60    63    1
    12    60    61    1
    13    44    45    1
    14    48    47    2
    15    42    51   am
    16    67    66    1
    17    47    46    1
    18    61    62    2
    19    31    30    1
    20    45    46    1
    21    51    52    1
    22    53    54    2
    23    53    52    1
    24    58    56   am
    25    30    29   ar
    26    30    28   ar
    27    52    55    1
    28    55    56    1
    29    29    27   ar
    30    56    57    2
    31    28    26   ar
    32    89    88    1
    33    27    25   ar
    34    77    76   ar
    35    77    75   ar
    36    26    25   ar
    37    25    24    1
    38    88    87   ar
    39    88    86   ar
    40    76    74   ar
    41    71    70    2
    42    20    21    1
    43    87    85   ar
    44    75    73   ar
    45    23    22    2
    46    86    84   ar
    47    24    21    1
    48    74    73   ar
    49    21    22    1
    50    70    69    1
    51    22    32   am
    52    73    72    1
    53    85    83   ar
    54    39    37   ar
    55    84    83   ar
    56    35    34    2
    57    36    37    1
    58    36    33    1
    59    19    17    1
    60   112   114   ar
    61   112   110   ar
    62    37    38   ar
    63    83    82    1
    64   114   113   ar
    65    68    69    1
    66    69    72    1
    67    32    33    1
    68    34    33    1
    69    18    17    1
    70    17    16    2
    71    95    94    1
    72   110   109   ar
    73    78    79    1
    74    79    82    1
    75    79    80    1
    76   113   111   ar
    77    16    15    1
    78   122   120   ar
    79    96    94    1
    80     8     6   am
    81    94    91    1
    82   103   101    1
    83    15    14    1
    84   109   111   ar
    85   109   108    1
    86    80    81    2
    87   120   121   ar
    88   120   119    1
    89    91    92    1
    90    91    90    1
    91    14    13    1
    92   102   101    1
    93     6     5    1
    94     6     7    2
    95     5     2    1
    96   101    98    1
    97   108   105    1
    98    92    93    2
    99   119   116    1
   100    13    10    1
   101    98    97    1
   102    98    99    1
   103   105   106    1
   104   105   104    1
   105     4     3    2
   106     2     3    1
   107     2     1    1
   108   106   107    2
   109    10    11    1
   110    10     9    1
   111   116   115    1
   112   116   117    1
   113    99   100    2
   114   118   117    2
   115    11    12    2
