@<TRIPOS>MOLECULE
tmp/3wauB01.pdb
 133 125 0 0 0
SMALL
GASTEIGER

@<TRIPOS>ATOM
      1  N         -8.8160   16.3340  262.3320 N.3    72  ASN72      -0.1240
      2  CA        -9.9420   16.7180  263.1790 C.3    72  ASN72       0.1653
      3  C        -10.5200   18.1060  262.9340 C.2    72  ASN72       0.2266
      4  O        -10.3770   19.0070  263.7640 O.2    72  ASN72      -0.2867
      5  CB        -9.5510   16.5550  264.6470 C.3    72  ASN72       0.1155
      6  CG        -9.0700   15.1540  264.9600 C.2    72  ASN72       0.2627
      7  OD1       -8.9720   14.3100  264.0670 O.2    72  ASN72      -0.2716
      8  ND2       -8.7650   14.8970  266.2290 N.am   72  ASN72      -0.0877
      9  N         -7.5690   21.3710  262.1350 N.3    87  ARG87      -0.1245
     10  CA        -6.5060   21.2490  263.1190 C.3    87  ARG87       0.1563
     11  C         -5.2340   20.9120  262.3480 C.2    87  ARG87       0.2260
     12  O         -5.1080   19.8310  261.7540 O.2    87  ARG87      -0.2867
     13  CB        -6.8290   20.1570  264.1410 C.3    87  ARG87       0.0307
     14  CG        -5.6870   19.8870  265.1160 C.3    87  ARG87       0.0489
     15  CD        -5.9970   18.7000  265.9930 C.3    87  ARG87       0.2205
     16  NE        -4.8070   18.2790  266.7340 N.pl3  87  ARG87      -0.0865
     17  CZ        -4.7790   17.2620  267.5840 C.cat  87  ARG87       0.5346
     18  NH1       -5.8770   16.5590  267.8070 N.pl3  87  ARG87       0.1354
     19  NH2       -3.6520   16.9590  268.2090 N.pl3  87  ARG87       0.1354
     20  N         -6.8510   22.0900  270.1800 N.3   129  TYR129     -0.1227
     21  CA        -7.2870   21.1490  269.1430 C.3   129  TYR129      0.1736
     22  C         -8.7780   20.8490  269.0700 C.2   129  TYR129      0.2595
     23  O         -9.5320   21.1250  270.0110 O.2   129  TYR129     -0.2718
     24  CB        -6.4900   19.8390  269.2050 C.3   129  TYR129      0.0548
     25  CG        -6.3320   19.1680  270.5550 C.ar  129  TYR129     -0.0200
     26  CD1       -7.0990   18.0630  270.9010 C.ar  129  TYR129     -0.0009
     27  CD2       -5.3560   19.5840  271.4480 C.ar  129  TYR129     -0.0009
     28  CE1       -6.9270   17.4200  272.1220 C.ar  129  TYR129      0.0417
     29  CE2       -5.1790   18.9500  272.6620 C.ar  129  TYR129      0.0417
     30  CZ        -5.9600   17.8720  272.9920 C.ar  129  TYR129      0.1957
     31  OH        -5.7630   17.2490  274.2020 O.3   129  TYR129     -0.2866
     32  N         -9.1770   20.3060  267.9150 N.am  130  ASP130     -0.1974
     33  CA       -10.4910   19.6960  267.6940 C.3   130  ASP130      0.1709
     34  C        -11.6520   20.6760  267.8490 C.2   130  ASP130      0.2293
     35  O        -12.5140   20.4800  268.7000 O.2   130  ASP130     -0.2864
     36  CB       -10.6870   18.5000  268.6330 C.3   130  ASP130      0.1436
     37  CG        -9.6550   17.4030  268.4200 C.2   130  ASP130      0.3671
     38  OD1       -8.7220   17.6060  267.6120 O.co2 130  ASP130     -0.2456
     39  OD2       -9.7620   16.3410  269.0820 O.co2 130  ASP130     -0.2456
     40  N        -13.7990   16.7970  277.8850 N.3   190  ARG190     -0.1231
     41  CA       -13.2650   16.7140  276.5270 C.3   190  ARG190      0.1694
     42  C        -14.4470   16.5370  275.5800 C.2   190  ARG190      0.2592
     43  O        -15.5500   16.1980  276.0250 O.2   190  ARG190     -0.2718
     44  CB       -12.2770   15.5420  276.3990 C.3   190  ARG190      0.0321
     45  CG       -11.0020   15.6860  277.2420 C.3   190  ARG190      0.0489
     46  CD       -10.3360   14.3390  277.5480 C.3   190  ARG190      0.2205
     47  NE        -9.5570   13.8020  276.4360 N.pl3 190  ARG190     -0.0865
     48  CZ        -8.8110   12.7000  276.5010 C.cat 190  ARG190      0.5346
     49  NH1       -8.7450   11.9950  277.6250 N.pl3 190  ARG190      0.1354
     50  NH2       -8.1380   12.2930  275.4350 N.pl3 190  ARG190      0.1354
     51  N        -14.2240   16.7770  274.2890 N.am  191  ASN191     -0.1974
     52  CA       -15.2740   16.6420  273.2730 C.3   191  ASN191      0.1688
     53  C        -16.5400   17.4390  273.5840 C.2   191  ASN191      0.2292
     54  O        -17.6680   16.9620  273.3840 O.2   191  ASN191     -0.2864
     55  CB       -15.6060   15.1710  273.0200 C.3   191  ASN191      0.1181
     56  CG       -14.3920   14.3700  272.6170 C.2   191  ASN191      0.2629
     57  OD1      -13.8580   14.5420  271.5180 O.2   191  ASN191     -0.2716
     58  ND2      -13.9390   13.4890  273.5070 N.am  191  ASN191     -0.0877
     59  N        -18.2660   15.3280  277.7860 N.3   208  ARG208     -0.1245
     60  CA       -17.7950   13.9890  278.1510 C.3   208  ARG208      0.1563
     61  C        -16.9660   14.1260  279.4100 C.2   208  ARG208      0.2260
     62  O        -15.7560   14.3520  279.3410 O.2   208  ARG208     -0.2867
     63  CB       -16.9530   13.3190  277.0630 C.3   208  ARG208      0.0307
     64  CG       -16.3830   11.9540  277.5180 C.3   208  ARG208      0.0489
     65  CD       -14.8840   11.8540  277.3030 C.3   208  ARG208      0.2205
     66  NE       -14.5810   11.2010  276.0340 N.pl3 208  ARG208     -0.0865
     67  CZ       -13.3740   11.1050  275.4960 C.cat 208  ARG208      0.5346
     68  NH1      -12.3210   11.6300  276.1090 N.pl3 208  ARG208      0.1354
     69  NH2      -13.2290   10.4850  274.3330 N.pl3 208  ARG208      0.1354
     70  N        -14.3510    4.5250  275.6540 N.3   244  LYS244     -0.1245
     71  CA       -14.6200    5.9560  275.5720 C.3   244  LYS244      0.1561
     72  C        -15.6600    6.2020  274.4840 C.2   244  LYS244      0.2260
     73  O        -15.8300    5.3890  273.5770 O.2   244  LYS244     -0.2867
     74  CB       -13.3540    6.7370  275.1790 C.3   244  LYS244      0.0271
     75  CG       -12.0910    6.4510  275.9690 C.3   244  LYS244      0.0035
     76  CD       -10.9320    7.2960  275.4370 C.3   244  LYS244      0.0206
     77  CE        -9.6300    7.0140  276.1810 C.3   244  LYS244      0.1093
     78  NZ        -8.7950    8.2530  276.3080 N.3   244  LYS244     -0.1314
     79  N        -17.7980    9.4810  268.0550 N.3   263  HIS263     -0.1241
     80  CA       -16.7950    8.4240  267.9320 C.3   263  HIS263      0.1621
     81  C        -16.8440    7.5110  269.1400 C.2   263  HIS263      0.2264
     82  O        -17.2120    7.9330  270.2440 O.2   263  HIS263     -0.2867
     83  CB       -15.3790    8.9760  267.7130 C.3   263  HIS263      0.0745
     84  CG       -14.8640    9.8100  268.8420 C.ar  263  HIS263      0.0817
     85  ND1      -15.0540   11.1770  268.9070 N.ar  263  HIS263     -0.2268
     86  CD2      -14.1550    9.4780  269.9510 C.ar  263  HIS263      0.1154
     87  CE1      -14.4910   11.6460  270.0040 C.ar  263  HIS263      0.1986
     88  NE2      -13.9390   10.6340  270.6560 N.ar  263  HIS263     -0.2212
     89  N        -10.4670    3.7610  267.1570 N.3   274  TYR274     -0.1241
     90  CA       -11.5170    4.7740  267.0860 C.3   274  TYR274      0.1605
     91  C        -12.3490    4.5730  265.8250 C.2   274  TYR274      0.2264
     92  O        -11.8000    4.4940  264.7230 O.2   274  TYR274     -0.2867
     93  CB       -10.9080    6.1830  267.0290 C.3   274  TYR274      0.0534
     94  CG       -10.4220    6.7550  268.3430 C.ar  274  TYR274     -0.0201
     95  CD1      -10.9780    7.9220  268.8640 C.ar  274  TYR274     -0.0009
     96  CD2       -9.3850    6.1540  269.0490 C.ar  274  TYR274     -0.0009
     97  CE1      -10.5120    8.4610  270.0650 C.ar  274  TYR274      0.0417
     98  CE2       -8.9290    6.6800  270.2460 C.ar  274  TYR274      0.0417
     99  CZ        -9.4930    7.8280  270.7470 C.ar  274  TYR274      0.1957
    100  OH        -9.0260    8.3240  271.9410 O.3   274  TYR274     -0.2866
    101  N         -1.3190    8.1080  264.1470 N.3   309  VAL309     -0.1245
    102  CA        -2.0240    7.3370  265.1530 C.3   309  VAL309      0.1561
    103  C         -2.9940    6.4370  264.4140 C.2   309  VAL309      0.2260
    104  O         -4.1430    6.7920  264.1880 O.2   309  VAL309     -0.2867
    105  CB        -2.7950    8.2350  266.1530 C.3   309  VAL309      0.0252
    106  CG1       -3.4850    7.3790  267.2280 C.3   309  VAL309      0.0019
    107  CG2       -1.8730    9.2720  266.7990 C.3   309  VAL309      0.0019
    108  N         -7.7030    4.7570  263.5210 N.3   312  VAL312     -0.1245
    109  CA        -8.5570    5.8310  264.0170 C.3   312  VAL312      0.1561
    110  C         -9.3370    6.5180  262.8980 C.2   312  VAL312      0.2260
    111  O         -8.7570    6.9200  261.8880 O.2   312  VAL312     -0.2867
    112  CB        -7.7050    6.9260  264.7300 C.3   312  VAL312      0.0252
    113  CG1       -8.5370    8.1780  264.9910 C.3   312  VAL312      0.0019
    114  CG2       -7.1110    6.3870  266.0330 C.3   312  VAL312      0.0019
    115  N        -11.9990    9.9430  263.0570 N.3   314  PHE314     -0.1241
    116  CA       -12.4790   10.9800  263.9750 C.3   314  PHE314      0.1605
    117  C        -13.1920   12.0650  263.1740 C.2   314  PHE314      0.2264
    118  O        -12.7030   12.4660  262.1330 O.2   314  PHE314     -0.2867
    119  CB       -11.2860   11.5950  264.7240 C.3   314  PHE314      0.0534
    120  CG       -11.6660   12.4700  265.8880 C.ar  314  PHE314     -0.0203
    121  CD1      -11.6260   11.9700  267.1810 C.ar  314  PHE314     -0.0042
    122  CD2      -12.0240   13.8040  265.6940 C.ar  314  PHE314     -0.0042
    123  CE1      -11.9560   12.7690  268.2660 C.ar  314  PHE314     -0.0003
    124  CE2      -12.3600   14.6090  266.7720 C.ar  314  PHE314     -0.0003
    125  CZ       -12.3180   14.0930  268.0640 C.ar  314  PHE314     -0.0000
    126  N         -5.3170   10.4290  262.6350 N.3   334  ASP334     -0.1239
    127  CA        -4.7750   11.7140  263.0670 C.3   334  ASP334      0.1674
    128  C         -3.8040   12.3700  262.0930 C.2   334  ASP334      0.2266
    129  O         -2.9420   13.1500  262.5060 O.2   334  ASP334     -0.2867
    130  CB        -4.1400   11.5870  264.4490 C.3   334  ASP334      0.1410
    131  CG        -5.1330   11.1220  265.4940 C.2   334  ASP334      0.3668
    132  OD1       -6.3410   11.1320  265.2340 O.co2 334  ASP334     -0.2456
    133  OD2       -4.7090   10.7150  266.5790 O.co2 334  ASP334     -0.2456
@<TRIPOS>BOND
     1    12    11    2
     2   111   110    2
     3   128   129    2
     4   128   127    1
     5   118   117    2
     6     9    10    1
     7     1     2    1
     8    11    10    1
     9   126   127    1
    10   110   109    1
    11     3     2    1
    12     3     4    2
    13   115   116    1
    14   127   130    1
    15    10    13    1
    16   117   116    1
    17     2     5    1
    18   108   109    1
    19   116   119    1
    20   109   112    1
    21     7     6    2
    22    13    14    1
    23   101   102    1
    24   104   103    2
    25   103   102    1
    26   130   131    1
    27     5     6    1
    28    92    91    2
    29   119   120    1
    30   112   113    1
    31   112   114    1
    32     6     8   am
    33    14    15    1
    34   102   105    1
    35   132   131   ar
    36   131   133   ar
    37   122   120   ar
    38   122   124   ar
    39    91    90    1
    40   120   121   ar
    41    15    16    1
    42   105   107    1
    43   105   106    1
    44    16    17    2
    45   124   125   ar
    46    93    90    1
    47    93    94    1
    48    90    89    1
    49   121   123   ar
    50    17    18    1
    51    17    19    1
    52    38    37   ar
    53    33    34    1
    54    33    32    1
    55    33    36    1
    56    83    80    1
    57    83    84    1
    58    34    35    2
    59    32    22   am
    60    80    79    1
    61    80    81    1
    62   125   123   ar
    63    94    95   ar
    64    94    96   ar
    65    37    36    1
    66    37    39   ar
    67    84    85   ar
    68    84    86   ar
    69    95    97   ar
    70    85    87   ar
    71    96    98   ar
    72    22    21    1
    73    22    23    2
    74    81    82    2
    75    21    24    1
    76    21    20    1
    77    24    25    1
    78    86    88   ar
    79    87    88   ar
    80    97    99   ar
    81    98    99   ar
    82    25    26   ar
    83    25    27   ar
    84    99   100    1
    85    26    28   ar
    86    27    29   ar
    87    57    56    2
    88    28    30   ar
    89    56    55    1
    90    56    58   am
    91    29    30   ar
    92    30    31    1
    93    55    52    1
    94    52    53    1
    95    52    51    1
    96    54    53    2
    97    73    72    2
    98    51    42   am
    99    69    67    1
   100    72    71    1
   101    74    71    1
   102    74    75    1
   103    50    48    1
   104    76    75    1
   105    76    77    1
   106    67    66    2
   107    67    68    1
   108    71    70    1
   109    42    43    2
   110    42    41    1
   111    66    65    1
   112    77    78    1
   113    44    41    1
   114    44    45    1
   115    47    48    2
   116    47    46    1
   117    48    49    1
   118    41    40    1
   119    63    64    1
   120    63    60    1
   121    45    46    1
   122    65    64    1
   123    59    60    1
   124    60    61    1
   125    62    61    2
