@<TRIPOS>MOLECULE
tmp/3wavA03.pdb
 205 201 0 0 0
SMALL
GASTEIGER

@<TRIPOS>ATOM
      1  N          6.0600   29.8900   10.0740 N.3   117  ILE117     -0.1245
      2  CA         7.4500   30.0240    9.6860 C.3   117  ILE117      0.1561
      3  C          8.2590   29.7860   10.9410 C.2   117  ILE117      0.2260
      4  O          8.1250   30.5070   11.9150 O.2   117  ILE117     -0.2867
      5  CB         7.7340   31.4240    9.1690 C.3   117  ILE117      0.0252
      6  CG1        6.8070   31.7520    7.9870 C.3   117  ILE117      0.0019
      7  CG2        9.2140   31.5610    8.7780 C.3   117  ILE117      0.0019
      8  CD1        6.5840   33.2490    7.7670 C.3   117  ILE117      0.0001
      9  N         11.7870   29.8790   12.2490 N.3   119  SER119     -0.1217
     10  CA        13.1370   30.3390   11.9260 C.3   119  SER119      0.1889
     11  C         14.1500   29.9690   13.0000 C.2   119  SER119      0.2288
     12  O         13.9040   30.1430   14.1990 O.2   119  SER119     -0.2866
     13  CB        13.1600   31.8530   11.7320 C.3   119  SER119      0.2089
     14  OG        12.7080   32.4950   12.9030 O.3   119  SER119     -0.2183
     15  N         18.1760   30.5520   14.1120 N.3   121  ASP121     -0.1239
     16  CA        19.3050   31.4270   13.8930 C.3   121  ASP121      0.1674
     17  C         20.5910   30.6190   13.7930 C.2   121  ASP121      0.2266
     18  O         20.8980   29.8050   14.6670 O.2   121  ASP121     -0.2867
     19  CB        19.3980   32.4160   15.0540 C.3   121  ASP121      0.1410
     20  CG        20.2470   33.6000   14.7180 C.2   121  ASP121      0.3668
     21  OD1       21.3410   33.4040   14.1440 O.co2 121  ASP121     -0.2456
     22  OD2       19.8000   34.7330   14.9920 O.co2 121  ASP121     -0.2456
     23  N         22.5050   38.1670   11.0730 N.3   159  THR159     -0.1203
     24  CA        21.0930   38.0050   11.3990 C.3   159  THR159      0.1994
     25  C         20.1320   39.0740   10.9140 C.2   159  THR159      0.2617
     26  O         19.1280   38.7680   10.2550 O.2   159  THR159     -0.2717
     27  CB        20.9380   37.9460   12.9080 C.3   159  THR159      0.1784
     28  OG1       21.8420   36.9690   13.4260 O.3   159  THR159     -0.2211
     29  CG2       19.4940   37.6020   13.2780 C.3   159  THR159      0.0376
     30  N         20.3660   40.3210   11.3010 N.am  160  PHE160     -0.1975
     31  CA        19.3950   41.3590   10.9280 C.3   160  PHE160      0.1639
     32  C         19.1950   41.5060    9.3980 C.2   160  PHE160      0.2290
     33  O         18.0500   41.5230    8.9140 O.2   160  PHE160     -0.2864
     34  CB        19.7210   42.7080   11.5920 C.3   160  PHE160      0.0560
     35  CG        19.0990   42.8830   12.9550 C.ar  160  PHE160     -0.0200
     36  CD1       19.7100   42.3670   14.0880 C.ar  160  PHE160     -0.0042
     37  CD2       17.9240   43.5860   13.1040 C.ar  160  PHE160     -0.0042
     38  CE1       19.1390   42.5410   15.3420 C.ar  160  PHE160     -0.0003
     39  CE2       17.3560   43.7660   14.3600 C.ar  160  PHE160     -0.0003
     40  CZ        17.9630   43.2410   15.4710 C.ar  160  PHE160     -0.0000
     41  N         17.2100   38.1720    8.2600 N.3   163  LEU163     -0.1231
     42  CA        15.8340   38.0440    8.6950 C.3   163  LEU163      0.1693
     43  C         14.9610   39.0440    7.9470 C.2   163  LEU163      0.2592
     44  O         13.8440   38.7170    7.5360 O.2   163  LEU163     -0.2718
     45  CB        15.7120   38.2380   10.2000 C.3   163  LEU163      0.0284
     46  CG        16.2870   37.1150   11.0880 C.3   163  LEU163      0.0019
     47  CD1       16.0660   37.4620   12.5510 C.3   163  LEU163      0.0001
     48  CD2       15.7040   35.7240   10.7670 C.3   163  LEU163      0.0001
     49  N         15.4560   40.2590    7.7450 N.am  164  TYR164     -0.1976
     50  CA        14.6070   41.2280    7.0610 C.3   164  TYR164      0.1639
     51  C         14.5060   40.9480    5.5580 C.2   164  TYR164      0.2290
     52  O         13.4940   41.2590    4.9150 O.2   164  TYR164     -0.2864
     53  CB        15.0700   42.6640    7.3180 C.3   164  TYR164      0.0560
     54  CG        13.9410   43.6670    7.1570 C.ar  164  TYR164     -0.0198
     55  CD1       12.7020   43.4410    7.7410 C.ar  164  TYR164     -0.0009
     56  CD2       14.1210   44.8370    6.4310 C.ar  164  TYR164     -0.0009
     57  CE1       11.6530   44.3700    7.6000 C.ar  164  TYR164      0.0417
     58  CE2       13.0840   45.7560    6.2690 C.ar  164  TYR164      0.0417
     59  CZ        11.8580   45.5120    6.8660 C.ar  164  TYR164      0.1957
     60  OH        10.8200   46.4170    6.7260 O.3   164  TYR164     -0.2866
     61  N         14.4250   37.8470    4.3850 N.3   166  LEU166     -0.1231
     62  CA        13.3990   36.7960    4.3610 C.3   166  LEU166      0.1693
     63  C         11.9970   37.3990    4.3840 C.2   166  LEU166      0.2591
     64  O         11.1070   36.9450    3.6710 O.2   166  LEU166     -0.2718
     65  CB        13.5530   35.8340    5.5410 C.3   166  LEU166      0.0284
     66  CG        14.7170   34.8440    5.4830 C.3   166  LEU166      0.0019
     67  CD1       15.0180   34.2600    6.8650 C.3   166  LEU166      0.0001
     68  CD2       14.4310   33.7200    4.4690 C.3   166  LEU166      0.0001
     69  N         11.8160   38.4300    5.2110 N.am  167  ALA167     -0.1980
     70  CA        10.5010   39.0470    5.3960 C.3   167  ALA167      0.1597
     71  C         10.0720   39.9040    4.2170 C.2   167  ALA167      0.2287
     72  O          8.8720   40.1340    4.0390 O.2   167  ALA167     -0.2864
     73  CB        10.4740   39.8880    6.6740 C.3   167  ALA167      0.0319
     74  N         22.5420   46.1050   17.2020 N.3   193  LEU193     -0.1231
     75  CA        21.8500   44.9070   17.6780 C.3   193  LEU193      0.1693
     76  C         21.1230   45.1840   18.9750 C.2   193  LEU193      0.2591
     77  O         19.9220   44.9320   19.0950 O.2   193  LEU193     -0.2718
     78  CB        22.8650   43.8050   17.9650 C.3   193  LEU193      0.0284
     79  CG        23.2640   42.8070   16.8860 C.3   193  LEU193      0.0019
     80  CD1       24.5490   42.1090   17.3210 C.3   193  LEU193      0.0001
     81  CD2       22.1540   41.7950   16.6690 C.3   193  LEU193      0.0001
     82  N         21.8760   45.6860   19.9530 N.am  194  ARG194     -0.1980
     83  CA        21.3400   46.0270   21.2650 C.3   194  ARG194      0.1597
     84  C         21.0990   47.5280   21.3540 C.2   194  ARG194      0.2287
     85  O         21.8570   48.3150   20.7900 O.2   194  ARG194     -0.2864
     86  CB        22.3090   45.5850   22.3690 C.3   194  ARG194      0.0334
     87  CG        22.7340   44.1160   22.3180 C.3   194  ARG194      0.0492
     88  CD        21.8480   43.2290   23.1830 C.3   194  ARG194      0.2205
     89  NE        20.4860   43.1260   22.6670 N.pl3 194  ARG194     -0.0865
     90  CZ        20.1280   42.3670   21.6430 C.cat 194  ARG194      0.5346
     91  NH1       21.0310   41.6290   21.0160 N.pl3 194  ARG194      0.1354
     92  NH2       18.8620   42.3190   21.2580 N.pl3 194  ARG194      0.1354
     93  N          4.2800   40.5830    7.1110 N.3   210  TRP210     -0.1241
     94  CA         3.1540   40.8160    8.0190 C.3   210  TRP210      0.1605
     95  C          2.3580   42.0530    7.5960 C.2   210  TRP210      0.2264
     96  O          1.1360   42.1190    7.7750 O.2   210  TRP210     -0.2867
     97  CB         3.6060   40.9210    9.4910 C.3   210  TRP210      0.0550
     98  CG         4.7050   41.9300    9.7680 C.ar  210  TRP210      0.0003
     99  CD1        4.5490   43.2440   10.1410 C.ar  210  TRP210      0.0946
    100  CD2        6.1270   41.6910    9.7380 C.ar  210  TRP210      0.0152
    101  NE1        5.7900   43.8330   10.3240 N.ar  210  TRP210     -0.2442
    102  CE2        6.7670   42.9040   10.0800 C.ar  210  TRP210      0.0810
    103  CE3        6.9150   40.5760    9.4310 C.ar  210  TRP210      0.0012
    104  CZ2        8.1580   43.0260   10.1350 C.ar  210  TRP210      0.0191
    105  CZ3        8.2900   40.6980    9.4860 C.ar  210  TRP210      0.0001
    106  CH2        8.8980   41.9160    9.8370 C.ar  210  TRP210      0.0015
    107  N          5.0750   38.3640   14.7940 N.3   223  PHE223     -0.1227
    108  CA         6.2510   37.6120   14.3790 C.3   223  PHE223      0.1736
    109  C          7.3340   37.6140   15.4440 C.2   223  PHE223      0.2595
    110  O          7.9870   36.5980   15.6690 O.2   223  PHE223     -0.2718
    111  CB         6.8370   38.2040   13.0910 C.3   223  PHE223      0.0547
    112  CG         6.2440   37.6400   11.8190 C.ar  223  PHE223     -0.0202
    113  CD1        4.8740   37.5080   11.6690 C.ar  223  PHE223     -0.0042
    114  CD2        7.0650   37.2740   10.7660 C.ar  223  PHE223     -0.0042
    115  CE1        4.3340   36.9950   10.4900 C.ar  223  PHE223     -0.0003
    116  CE2        6.5390   36.7680    9.5970 C.ar  223  PHE223     -0.0003
    117  CZ         5.1680   36.6320    9.4580 C.ar  223  PHE223     -0.0000
    118  N          7.5220   38.7600   16.0910 N.am  224  PHE224     -0.1962
    119  CA         8.6400   38.9490   17.0070 C.3   224  PHE224      0.1771
    120  C          8.3240   38.4920   18.4080 C.2   224  PHE224      0.2619
    121  O          7.1800   38.5610   18.8420 O.2   224  PHE224     -0.2715
    122  CB         9.0670   40.4100   17.0110 C.3   224  PHE224      0.0574
    123  CG         9.4920   40.9000   15.6680 C.ar  224  PHE224     -0.0200
    124  CD1       10.7860   40.6650   15.2090 C.ar  224  PHE224     -0.0042
    125  CD2        8.5980   41.5680   14.8450 C.ar  224  PHE224     -0.0042
    126  CE1       11.1870   41.1030   13.9570 C.ar  224  PHE224     -0.0003
    127  CE2        8.9920   42.0110   13.5890 C.ar  224  PHE224     -0.0003
    128  CZ        10.2920   41.7780   13.1490 C.ar  224  PHE224     -0.0000
    129  N          9.3410   38.0270   19.1250 N.am  225  TRP225     -0.1974
    130  CA         9.1390   37.6480   20.5130 C.3   225  TRP225      0.1640
    131  C         10.2040   38.2690   21.3930 C.2   225  TRP225      0.2290
    132  O         11.3820   38.1850   21.0710 O.2   225  TRP225     -0.2864
    133  CB         9.2170   36.1330   20.6670 C.3   225  TRP225      0.0576
    134  CG         8.2990   35.4060   19.7680 C.ar  225  TRP225      0.0006
    135  CD1        8.5310   35.0540   18.4760 C.ar  225  TRP225      0.0946
    136  CD2        6.9870   34.9340   20.0910 C.ar  225  TRP225      0.0152
    137  NE1        7.4440   34.3820   17.9730 N.ar  225  TRP225     -0.2442
    138  CE2        6.4810   34.3020   18.9460 C.ar  225  TRP225      0.0810
    139  CE3        6.2000   34.9740   21.2410 C.ar  225  TRP225      0.0012
    140  CZ2        5.2130   33.7130   18.9160 C.ar  225  TRP225      0.0191
    141  CZ3        4.9370   34.3950   21.2110 C.ar  225  TRP225      0.0001
    142  CH2        4.4570   33.7780   20.0560 C.ar  225  TRP225      0.0015
    143  N         12.9320   38.5030   24.0470 N.3   227  VAL227     -0.1245
    144  CA        13.8960   37.4260   24.2480 C.3   227  VAL227      0.1561
    145  C         13.6370   36.6330   25.5220 C.2   227  VAL227      0.2260
    146  O         14.0100   35.4650   25.6160 O.2   227  VAL227     -0.2867
    147  CB        15.3600   37.9410   24.2150 C.3   227  VAL227      0.0252
    148  CG1       15.7080   38.4760   22.8200 C.3   227  VAL227      0.0019
    149  CG2       15.5820   39.0150   25.2680 C.3   227  VAL227      0.0019
    150  N          6.3650   30.4280   23.4990 N.3   234  ARG234     -0.1245
    151  CA         6.0990   30.8900   22.1370 C.3   234  ARG234      0.1563
    152  C          5.2630   29.8530   21.4060 C.2   234  ARG234      0.2260
    153  O          4.2730   30.1740   20.7440 O.2   234  ARG234     -0.2867
    154  CB         7.4050   31.1680   21.3560 C.3   234  ARG234      0.0307
    155  CG         8.3190   32.1540   22.0720 C.3   234  ARG234      0.0489
    156  CD         9.6580   32.3600   21.3480 C.3   234  ARG234      0.2205
    157  NE        10.6010   32.9980   22.2550 N.pl3 234  ARG234     -0.0865
    158  CZ        11.7480   33.5560   21.8930 C.cat 234  ARG234      0.5346
    159  NH1       12.1330   33.5580   20.6250 N.pl3 234  ARG234      0.1354
    160  NH2       12.5200   34.1040   22.8170 N.pl3 234  ARG234      0.1354
    161  N          4.9060   33.1720   13.0870 N.3   254  ALA254     -0.1231
    162  CA         6.3540   33.0460   13.0660 C.3   254  ALA254      0.1694
    163  C          6.8470   32.6400   14.4330 C.2   254  ALA254      0.2592
    164  O          6.4400   33.1930   15.4620 O.2   254  ALA254     -0.2718
    165  CB         7.0130   34.3470   12.6490 C.3   254  ALA254      0.0304
    166  N          7.7330   31.6530   14.4330 N.am  255  PHE255     -0.1962
    167  CA         8.4880   31.3190   15.6100 C.3   255  PHE255      0.1771
    168  C          9.9470   31.6330   15.2910 C.2   255  PHE255      0.2619
    169  O         10.3850   31.4920   14.1480 O.2   255  PHE255     -0.2715
    170  CB         8.3220   29.8370   15.9710 C.3   255  PHE255      0.0574
    171  CG         9.2980   29.3620   17.0150 C.ar  255  PHE255     -0.0200
    172  CD1       10.5660   28.9030   16.6430 C.ar  255  PHE255     -0.0042
    173  CD2        8.9590   29.3720   18.3730 C.ar  255  PHE255     -0.0042
    174  CE1       11.4780   28.4870   17.6050 C.ar  255  PHE255     -0.0003
    175  CE2        9.8540   28.9400   19.3220 C.ar  255  PHE255     -0.0003
    176  CZ        11.1230   28.4970   18.9340 C.ar  255  PHE255     -0.0000
    177  N         10.6850   32.0740   16.2950 N.am  256  TYR256     -0.1974
    178  CA        12.1120   32.3200   16.1290 C.3   256  TYR256      0.1639
    179  C         12.9070   31.7170   17.2770 C.2   256  TYR256      0.2290
    180  O         12.5130   31.8210   18.4360 O.2   256  TYR256     -0.2864
    181  CB        12.3780   33.8280   16.0420 C.3   256  TYR256      0.0560
    182  CG        13.8390   34.2130   16.2020 C.ar  256  TYR256     -0.0198
    183  CD1       14.7300   34.1270   15.1310 C.ar  256  TYR256     -0.0009
    184  CD2       14.3220   34.6750   17.4240 C.ar  256  TYR256     -0.0009
    185  CE1       16.0820   34.4700   15.2810 C.ar  256  TYR256      0.0417
    186  CE2       15.6610   35.0230   17.5870 C.ar  256  TYR256      0.0417
    187  CZ        16.5340   34.9220   16.5160 C.ar  256  TYR256      0.1957
    188  OH        17.8560   35.2760   16.6950 O.3   256  TYR256     -0.2866
    189  N         16.9550   31.6890   18.8430 N.3   258  GLU258     -0.1245
    190  CA        18.3120   32.2530   18.8050 C.3   258  GLU258      0.1567
    191  C         19.3810   31.1740   18.6870 C.2   258  GLU258      0.2260
    192  O         20.5520   31.4810   18.4390 O.2   258  GLU258     -0.2867
    193  CB        18.5910   33.0710   20.0700 C.3   258  GLU258      0.0388
    194  CG        17.5570   34.1500   20.4130 C.3   258  GLU258      0.1160
    195  CD        16.4820   33.6690   21.3830 C.2   258  GLU258      0.3649
    196  OE1       16.7550   32.7460   22.1880 O.co2 258  GLU258     -0.2457
    197  OE2       15.3620   34.2230   21.3400 O.co2 258  GLU258     -0.2457
    198  N          5.9210   32.7090    0.0900 N.3   458  MET458     -0.1245
    199  CA         5.0530   32.8420    1.2440 C.3   458  MET458      0.1570
    200  C          3.7990   33.6140    0.8400 C.2   458  MET458      0.2261
    201  O          2.6920   33.2860    1.2720 O.2   458  MET458     -0.2867
    202  CB         5.8030   33.4630    2.4280 C.3   458  MET458      0.0387
    203  CG         6.9540   32.5700    2.9100 C.3   458  MET458      0.0595
    204  SD         7.8310   33.2190    4.3550 S.3   458  MET458     -0.1393
    205  CE         8.6940   34.6040    3.6050 C.3   458  MET458      0.0692
@<TRIPOS>BOND
     1   198   199    1
     2   200   199    1
     3   200   201    2
     4   199   202    1
     5   202   203    1
     6   203   204    1
     7   205   204    1
     8    64    63    2
     9    72    71    2
    10    71    70    1
    11    62    63    1
    12    62    61    1
    13    62    65    1
    14    63    69   am
    15    68    66    1
    16    52    51    2
    17    69    70    1
    18    70    73    1
    19    66    65    1
    20    66    67    1
    21    51    50    1
    22    58    56   ar
    23    58    59   ar
    24    56    54   ar
    25    60    59    1
    26    59    57   ar
    27    50    53    1
    28    50    49    1
    29    93    94    1
    30    54    53    1
    31    54    55   ar
    32    44    43    2
    33    95    96    2
    34    95    94    1
    35    57    55   ar
    36    49    43   am
    37     8     6    1
    38    43    42    1
    39     6     5    1
    40    94    97    1
    41    41    42    1
    42    42    45    1
    43     7     5    1
    44    33    32    2
    45     5     2    1
    46    32    31    1
    47   103   105   ar
    48   103   100   ar
    49   117   116   ar
    50   117   115   ar
    51   105   106   ar
    52    97    98    1
    53   116   114   ar
    54     2     1    1
    55     2     3    1
    56   100    98   ar
    57   100   102   ar
    58    98    99   ar
    59   106   104   ar
    60   102   104   ar
    61   102   101   ar
    62    99   101   ar
    63    45    46    1
    64    26    25    2
    65   115   113   ar
    66   114   112   ar
    67    48    46    1
    68    25    30   am
    69    25    24    1
    70    31    30    1
    71    31    34    1
    72     3     4    2
    73    23    24    1
    74    46    47    1
    75    24    27    1
    76    34    35    1
    77   113   112   ar
    78    13    10    1
    79    13    14    1
    80   112   111    1
    81    10     9    1
    82    10    11    1
    83   165   162    1
    84    27    29    1
    85    27    28    1
    86    35    37   ar
    87    35    36   ar
    88    11    12    2
    89   162   161    1
    90   162   163    1
    91   111   108    1
    92    37    39   ar
    93   128   127   ar
    94   128   126   ar
    95   127   125   ar
    96    17    16    1
    97    17    18    2
    98    16    15    1
    99    16    19    1
   100   126   124   ar
   101    36    38   ar
   102    21    20   ar
   103   169   168    2
   104    39    40   ar
   105   108   107    1
   106   108   109    1
   107   163   166   am
   108   163   164    2
   109   166   167    1
   110    20    22   ar
   111    20    19    1
   112   125   123   ar
   113   183   185   ar
   114   183   182   ar
   115   124   123   ar
   116   185   187   ar
   117   168   167    1
   118   168   177   am
   119    38    40   ar
   120   109   110    2
   121   109   118   am
   122   167   170    1
   123   123   122    1
   124   170   171    1
   125   181   178    1
   126   181   182    1
   127   118   119    1
   128   178   177    1
   129   178   179    1
   130   182   184   ar
   131   187   188    1
   132   187   186   ar
   133   172   171   ar
   134   172   174   ar
   135    81    79    1
   136    79    80    1
   137    79    78    1
   138   119   122    1
   139   119   120    1
   140   171   173   ar
   141    74    75    1
   142   179   180    2
   143   184   186   ar
   144   174   176   ar
   145    75    78    1
   146    75    76    1
   147   137   135   ar
   148   137   138   ar
   149   173   175   ar
   150   120   121    2
   151   120   129   am
   152   192   191    2
   153   135   134   ar
   154   191   190    1
   155   190   189    1
   156   190   193    1
   157   140   138   ar
   158   140   142   ar
   159   176   175   ar
   160   138   136   ar
   161    76    77    2
   162    76    82   am
   163   129   130    1
   164   134   136   ar
   165   134   133    1
   166    82    83    1
   167   142   141   ar
   168   193   194    1
   169   136   139   ar
   170   194   195    1
   171   130   133    1
   172   130   131    1
   173   159   158    1
   174   153   152    2
   175    85    84    2
   176    91    90    1
   177   132   131    2
   178   141   139   ar
   179    92    90    1
   180    83    84    1
   181    83    86    1
   182   197   195   ar
   183   156   155    1
   184   156   157    1
   185   154   155    1
   186   154   151    1
   187   195   196   ar
   188   152   151    1
   189    90    89    2
   190   158   157    2
   191   158   160    1
   192   151   150    1
   193    87    86    1
   194    87    88    1
   195    89    88    1
   196   148   147    1
   197   143   144    1
   198   147   144    1
   199   147   149    1
   200   144   145    1
   201   145   146    2
