@<TRIPOS>MOLECULE
tmp/3wawA03.pdb
 168 165 0 0 0
SMALL
GASTEIGER

@<TRIPOS>ATOM
      1  N          6.1520   30.0220   10.0330 N.3   117  ILE117     -0.1245
      2  CA         7.5690   30.1400    9.7080 C.3   117  ILE117      0.1561
      3  C          8.3560   29.8570   10.9710 C.2   117  ILE117      0.2260
      4  O          8.1830   30.5350   11.9850 O.2   117  ILE117     -0.2867
      5  CB         7.9260   31.5500    9.1960 C.3   117  ILE117      0.0252
      6  CG1        7.0190   31.9250    8.0200 C.3   117  ILE117      0.0019
      7  CG2        9.3920   31.6050    8.7830 C.3   117  ILE117      0.0019
      8  CD1        6.8380   33.4260    7.8110 C.3   117  ILE117      0.0001
      9  N         11.8840   29.9340   12.2260 N.3   119  SER119     -0.1217
     10  CA        13.2450   30.3590   11.8960 C.3   119  SER119      0.1889
     11  C         14.2400   30.0750   13.0110 C.2   119  SER119      0.2288
     12  O         13.9640   30.3040   14.1870 O.2   119  SER119     -0.2866
     13  CB        13.2910   31.8380   11.5040 C.3   119  SER119      0.2089
     14  OG        12.9910   32.6350   12.6260 O.3   119  SER119     -0.2183
     15  N         22.6710   38.3340   11.0450 N.3   159  THR159     -0.1203
     16  CA        21.2720   38.0980   11.4030 C.3   159  THR159      0.1994
     17  C         20.2460   39.1240   10.8990 C.2   159  THR159      0.2617
     18  O         19.3050   38.7690   10.1860 O.2   159  THR159     -0.2717
     19  CB        21.1140   38.0140   12.9210 C.3   159  THR159      0.1784
     20  OG1       22.0100   37.0300   13.4520 O.3   159  THR159     -0.2211
     21  CG2       19.6900   37.6690   13.2760 C.3   159  THR159      0.0376
     22  N         20.3830   40.3780   11.3190 N.am  160  PHE160     -0.1975
     23  CA        19.4220   41.4120   10.9000 C.3   160  PHE160      0.1639
     24  C         19.2560   41.5570    9.3710 C.2   160  PHE160      0.2290
     25  O         18.1250   41.6180    8.8700 O.2   160  PHE160     -0.2864
     26  CB        19.7430   42.7790   11.5320 C.3   160  PHE160      0.0560
     27  CG        19.1290   42.9820   12.8840 C.ar  160  PHE160     -0.0200
     28  CD1       17.8030   43.3350   13.0070 C.ar  160  PHE160     -0.0042
     29  CD2       19.8820   42.8180   14.0370 C.ar  160  PHE160     -0.0042
     30  CE1       17.2320   43.5200   14.2640 C.ar  160  PHE160     -0.0003
     31  CE2       19.3170   43.0080   15.2890 C.ar  160  PHE160     -0.0003
     32  CZ        17.9940   43.3570   15.3990 C.ar  160  PHE160     -0.0000
     33  N         17.2820   38.2560    8.2740 N.3   163  LEU163     -0.1245
     34  CA        15.8890   38.1420    8.6860 C.3   163  LEU163      0.1561
     35  C         15.0090   39.1470    7.9430 C.2   163  LEU163      0.2260
     36  O         13.8890   38.8280    7.5530 O.2   163  LEU163     -0.2867
     37  CB        15.7480   38.3240   10.1920 C.3   163  LEU163      0.0270
     38  CG        16.3890   37.2340   11.0560 C.3   163  LEU163      0.0019
     39  CD1       16.2620   37.5820   12.5320 C.3   163  LEU163      0.0001
     40  CD2       15.7600   35.8630   10.7490 C.3   163  LEU163      0.0001
     41  N         14.5320   37.9720    4.3620 N.3   166  LEU166     -0.1231
     42  CA        13.5140   36.9150    4.3630 C.3   166  LEU166      0.1693
     43  C         12.1120   37.5230    4.3850 C.2   166  LEU166      0.2591
     44  O         11.2210   37.1070    3.6300 O.2   166  LEU166     -0.2718
     45  CB        13.6960   35.9950    5.5760 C.3   166  LEU166      0.0284
     46  CG        14.8790   35.0170    5.5650 C.3   166  LEU166      0.0019
     47  CD1       15.1510   34.4280    6.9600 C.3   166  LEU166      0.0001
     48  CD2       14.6490   33.8980    4.5390 C.3   166  LEU166      0.0001
     49  N         11.9300   38.5350    5.2340 N.am  167  ALA167     -0.1980
     50  CA        10.6240   39.1560    5.3770 C.3   167  ALA167      0.1597
     51  C         10.1910   39.9820    4.1690 C.2   167  ALA167      0.2287
     52  O          9.0020   40.2330    4.0110 O.2   167  ALA167     -0.2864
     53  CB        10.5430   40.0010    6.6690 C.3   167  ALA167      0.0319
     54  N         21.9040   45.7020   19.8450 N.3   194  ARG194     -0.1245
     55  CA        21.3400   46.0140   21.1510 C.3   194  ARG194      0.1563
     56  C         21.1080   47.5180   21.2400 C.2   194  ARG194      0.2260
     57  O         21.8700   48.3030   20.6710 O.2   194  ARG194     -0.2867
     58  CB        22.2930   45.5560   22.2600 C.3   194  ARG194      0.0307
     59  CG        22.7300   44.0920   22.1860 C.3   194  ARG194      0.0489
     60  CD        21.8360   43.1800   23.0170 C.3   194  ARG194      0.2205
     61  NE        20.4830   43.0790   22.4770 N.pl3 194  ARG194     -0.0865
     62  CZ        20.1470   42.3400   21.4320 C.cat 194  ARG194      0.5346
     63  NH1       21.0650   41.6210   20.8040 N.pl3 194  ARG194      0.1354
     64  NH2       18.8880   42.2910   21.0250 N.pl3 194  ARG194      0.1354
     65  N          4.3920   40.6570    7.1350 N.3   210  TRP210     -0.1241
     66  CA         3.2810   40.9400    8.0390 C.3   210  TRP210      0.1605
     67  C          2.4920   42.1740    7.5950 C.2   210  TRP210      0.2264
     68  O          1.2620   42.1920    7.6810 O.2   210  TRP210     -0.2867
     69  CB         3.7210   41.0450    9.5200 C.3   210  TRP210      0.0550
     70  CG         4.7970   42.0760    9.8040 C.ar  210  TRP210      0.0003
     71  CD1        4.6100   43.3950   10.1290 C.ar  210  TRP210      0.0946
     72  CD2        6.2200   41.8640    9.7930 C.ar  210  TRP210      0.0152
     73  NE1        5.8340   44.0160   10.3120 N.ar  210  TRP210     -0.2442
     74  CE2        6.8330   43.0990   10.1100 C.ar  210  TRP210      0.0810
     75  CE3        7.0350   40.7550    9.5370 C.ar  210  TRP210      0.0012
     76  CZ2        8.2180   43.2490   10.1880 C.ar  210  TRP210      0.0191
     77  CZ3        8.4140   40.9070    9.6190 C.ar  210  TRP210      0.0001
     78  CH2        8.9880   42.1430    9.9340 C.ar  210  TRP210      0.0015
     79  N          5.3270   38.4360   14.6850 N.3   223  PHE223     -0.1227
     80  CA         6.5490   37.7200   14.3220 C.3   223  PHE223      0.1736
     81  C          7.6200   37.7640   15.4000 C.2   223  PHE223      0.2595
     82  O          8.3600   36.7970   15.5860 O.2   223  PHE223     -0.2718
     83  CB         7.1420   38.2810   13.0230 C.3   223  PHE223      0.0547
     84  CG         6.5070   37.7310   11.7730 C.ar  223  PHE223     -0.0202
     85  CD1        5.1330   37.5740   11.6870 C.ar  223  PHE223     -0.0042
     86  CD2        7.2830   37.3900   10.6820 C.ar  223  PHE223     -0.0042
     87  CE1        4.5500   37.0680   10.5390 C.ar  223  PHE223     -0.0003
     88  CE2        6.7060   36.8910    9.5330 C.ar  223  PHE223     -0.0003
     89  CZ         5.3360   36.7360    9.4620 C.ar  223  PHE223     -0.0000
     90  N          7.7030   38.8910   16.0990 N.am  224  PHE224     -0.1962
     91  CA         8.8020   39.1340   17.0180 C.3   224  PHE224      0.1771
     92  C          8.4580   38.7090   18.4250 C.2   224  PHE224      0.2619
     93  O          7.3060   38.7770   18.8400 O.2   224  PHE224     -0.2715
     94  CB         9.2010   40.6070   16.9960 C.3   224  PHE224      0.0574
     95  CG         9.7460   41.0550   15.6830 C.ar  224  PHE224     -0.0200
     96  CD1       11.1090   40.9770   15.4200 C.ar  224  PHE224     -0.0042
     97  CD2        8.8990   41.5360   14.6930 C.ar  224  PHE224     -0.0042
     98  CE1       11.6200   41.3820   14.1960 C.ar  224  PHE224     -0.0003
     99  CE2        9.4030   41.9410   13.4660 C.ar  224  PHE224     -0.0003
    100  CZ        10.7680   41.8600   13.2190 C.ar  224  PHE224     -0.0000
    101  N          9.4700   38.2600   19.1570 N.am  225  TRP225     -0.1974
    102  CA         9.2870   37.8770   20.5430 C.3   225  TRP225      0.1640
    103  C         10.3580   38.5390   21.3950 C.2   225  TRP225      0.2290
    104  O         11.5330   38.5660   21.0140 O.2   225  TRP225     -0.2864
    105  CB         9.3790   36.3650   20.6820 C.3   225  TRP225      0.0576
    106  CG         8.4140   35.6270   19.8160 C.ar  225  TRP225      0.0006
    107  CD1        8.5940   35.2670   18.5140 C.ar  225  TRP225      0.0946
    108  CD2        7.1160   35.1470   20.1910 C.ar  225  TRP225      0.0152
    109  NE1        7.4920   34.5880   18.0550 N.ar  225  TRP225     -0.2442
    110  CE2        6.5690   34.5030   19.0650 C.ar  225  TRP225      0.0810
    111  CE3        6.3650   35.1940   21.3720 C.ar  225  TRP225      0.0012
    112  CZ2        5.3030   33.9120   19.0800 C.ar  225  TRP225      0.0191
    113  CZ3        5.1060   34.6090   21.3850 C.ar  225  TRP225      0.0001
    114  CH2        4.5880   33.9840   20.2430 C.ar  225  TRP225      0.0015
    115  N         13.0880   38.7470   24.0080 N.3   227  VAL227     -0.1245
    116  CA        14.0760   37.6920   24.2360 C.3   227  VAL227      0.1561
    117  C         13.8670   36.9130   25.5330 C.2   227  VAL227      0.2260
    118  O         14.3670   35.7960   25.6750 O.2   227  VAL227     -0.2867
    119  CB        15.5240   38.2410   24.1910 C.3   227  VAL227      0.0252
    120  CG1       15.8060   38.8930   22.8380 C.3   227  VAL227      0.0019
    121  CG2       15.7650   39.2300   25.3290 C.3   227  VAL227      0.0019
    122  N          6.4290   30.5700   23.5850 N.3   234  ARG234     -0.1245
    123  CA         6.1730   31.0290   22.2240 C.3   234  ARG234      0.1563
    124  C          5.3580   29.9820   21.4950 C.2   234  ARG234      0.2260
    125  O          4.3940   30.3060   20.7970 O.2   234  ARG234     -0.2867
    126  CB         7.4830   31.2930   21.4680 C.3   234  ARG234      0.0307
    127  CG         8.4030   32.2960   22.1530 C.3   234  ARG234      0.0489
    128  CD         9.7730   32.4270   21.4470 C.3   234  ARG234      0.2205
    129  NE        10.7100   33.1070   22.3320 N.pl3 234  ARG234     -0.0865
    130  CZ        11.8150   33.7360   21.9470 C.cat 234  ARG234      0.5346
    131  NH1       12.1610   33.7780   20.6700 N.pl3 234  ARG234      0.1354
    132  NH2       12.5800   34.3280   22.8560 N.pl3 234  ARG234      0.1354
    133  N          4.9830   33.1610   13.0890 N.3   254  ALA254     -0.1231
    134  CA         6.4300   33.0440   13.0730 C.3   254  ALA254      0.1694
    135  C          6.9470   32.7190   14.4630 C.2   254  ALA254      0.2592
    136  O          6.5470   33.3300   15.4570 O.2   254  ALA254     -0.2718
    137  CB         7.0690   34.3290   12.5590 C.3   254  ALA254      0.0304
    138  N          7.8220   31.7230   14.5170 N.am  255  PHE255     -0.1962
    139  CA         8.5820   31.4060   15.7110 C.3   255  PHE255      0.1771
    140  C         10.0330   31.7090   15.3880 C.2   255  PHE255      0.2619
    141  O         10.4570   31.5460   14.2500 O.2   255  PHE255     -0.2715
    142  CB         8.4270   29.9290   16.0670 C.3   255  PHE255      0.0574
    143  CG         9.4180   29.4390   17.0970 C.ar  255  PHE255     -0.0200
    144  CD1       10.6610   28.9390   16.7080 C.ar  255  PHE255     -0.0042
    145  CD2        9.0970   29.4530   18.4500 C.ar  255  PHE255     -0.0042
    146  CE1       11.5780   28.4940   17.6580 C.ar  255  PHE255     -0.0003
    147  CE2       10.0060   29.0100   19.4060 C.ar  255  PHE255     -0.0003
    148  CZ        11.2460   28.5200   19.0090 C.ar  255  PHE255     -0.0000
    149  N         10.7860   32.1550   16.3840 N.am  256  TYR256     -0.1974
    150  CA        12.2120   32.4090   16.2120 C.3   256  TYR256      0.1639
    151  C         13.0080   31.8070   17.3640 C.2   256  TYR256      0.2290
    152  O         12.6090   31.8900   18.5300 O.2   256  TYR256     -0.2864
    153  CB        12.4940   33.9140   16.1090 C.3   256  TYR256      0.0560
    154  CG        13.9610   34.2980   16.2660 C.ar  256  TYR256     -0.0198
    155  CD1       14.8530   34.2060   15.1940 C.ar  256  TYR256     -0.0009
    156  CD2       14.4500   34.7770   17.4850 C.ar  256  TYR256     -0.0009
    157  CE1       16.2060   34.5600   15.3370 C.ar  256  TYR256      0.0417
    158  CE2       15.7960   35.1330   17.6390 C.ar  256  TYR256      0.0417
    159  CZ        16.6660   35.0250   16.5660 C.ar  256  TYR256      0.1957
    160  OH        17.9890   35.3840   16.7360 O.3   256  TYR256     -0.2866
    161  N          5.9930   32.7190    0.1150 N.3   452  MET452     -0.1245
    162  CA         5.1490   32.8980    1.2850 C.3   452  MET452      0.1570
    163  C          3.8930   33.6690    0.8990 C.2   452  MET452      0.2261
    164  O          2.8090   33.3650    1.3820 O.2   452  MET452     -0.2867
    165  CB         5.9180   33.5840    2.4170 C.3   452  MET452      0.0387
    166  CG         7.1180   32.7660    2.8790 C.3   452  MET452      0.0595
    167  SD         7.8650   33.2900    4.4400 S.3   452  MET452     -0.1393
    168  CE         8.9750   34.5790    3.8760 C.3   452  MET452      0.0692
@<TRIPOS>BOND
     1   161   162    1
     2   163   162    1
     3   163   164    2
     4   162   165    1
     5   165   166    1
     6   166   167    1
     7    44    43    2
     8   168   167    1
     9    52    51    2
    10    51    50    1
    11    41    42    1
    12    42    43    1
    13    42    45    1
    14    43    49   am
    15    48    46    1
    16    49    50    1
    17    50    53    1
    18    46    45    1
    19    46    47    1
    20    65    66    1
    21    36    35    2
    22    67    68    2
    23    67    66    1
    24     8     6    1
    25    35    34    1
    26     6     5    1
    27    66    69    1
    28    33    34    1
    29    34    37    1
    30     7     5    1
    31    25    24    2
    32     5     2    1
    33    24    23    1
    34    89    88   ar
    35    89    87   ar
    36    69    70    1
    37    88    86   ar
    38    75    77   ar
    39    75    72   ar
    40    77    78   ar
    41     2     1    1
    42     2     3    1
    43    72    70   ar
    44    72    74   ar
    45    70    71   ar
    46    78    76   ar
    47    74    76   ar
    48    74    73   ar
    49    71    73   ar
    50    18    17    2
    51    37    38    1
    52    87    85   ar
    53    86    84   ar
    54    40    38    1
    55    17    22   am
    56    17    16    1
    57    23    22    1
    58    23    26    1
    59     3     4    2
    60    15    16    1
    61    38    39    1
    62    16    19    1
    63    13    10    1
    64    13    14    1
    65    26    27    1
    66    85    84   ar
    67    84    83    1
    68    10     9    1
    69    10    11    1
    70   137   134    1
    71    27    28   ar
    72    27    29   ar
    73    19    21    1
    74    19    20    1
    75    28    30   ar
    76    11    12    2
    77    83    80    1
    78   134   133    1
    79   134   135    1
    80   100    99   ar
    81   100    98   ar
    82    99    97   ar
    83    29    31   ar
    84    98    96   ar
    85   141   140    2
    86    30    32   ar
    87    80    79    1
    88    80    81    1
    89   135   138   am
    90   135   136    2
    91   138   139    1
    92    97    95   ar
    93   155   157   ar
    94   155   154   ar
    95    31    32   ar
    96   157   159   ar
    97   140   139    1
    98   140   149   am
    99    81    82    2
   100    81    90   am
   101    96    95   ar
   102    95    94    1
   103   139   142    1
   104   142   143    1
   105    90    91    1
   106   153   150    1
   107   153   154    1
   108   150   149    1
   109   150   151    1
   110   154   156   ar
   111   159   160    1
   112   159   158   ar
   113   144   143   ar
   114   144   146   ar
   115    94    91    1
   116    91    92    1
   117   143   145   ar
   118   151   152    2
   119   156   158   ar
   120   146   148   ar
   121   109   107   ar
   122   109   110   ar
   123    92    93    2
   124    92   101   am
   125   145   147   ar
   126   107   106   ar
   127   148   147   ar
   128   110   112   ar
   129   110   108   ar
   130   112   114   ar
   131   101   102    1
   132   106   108   ar
   133   106   105    1
   134    54    55    1
   135   108   111   ar
   136   114   113   ar
   137   102   105    1
   138   102   103    1
   139   131   130    1
   140    57    56    2
   141   125   124    2
   142    63    62    1
   143   104   103    2
   144    64    62    1
   145    55    56    1
   146    55    58    1
   147   111   113   ar
   148    62    61    2
   149   128   127    1
   150   128   129    1
   151   126   127    1
   152   126   123    1
   153   124   123    1
   154   130   129    2
   155   130   132    1
   156    59    58    1
   157    59    60    1
   158   123   122    1
   159    61    60    1
   160   120   119    1
   161   115   116    1
   162   119   116    1
   163   119   121    1
   164   116   117    1
   165   117   118    2
