@<TRIPOS>MOLECULE
tmp/3wawA01.pdb
 197 198 0 0 0
SMALL
GASTEIGER

@<TRIPOS>ATOM
      1  N         13.8940   41.5290   -0.4250 N.3   170  LEU170     -0.1231
      2  CA        14.8130   42.5540   -0.9010 C.3   170  LEU170      0.1693
      3  C         16.2710   42.3420   -0.4930 C.2   170  LEU170      0.2592
      4  O         16.5620   41.8120    0.5810 O.2   170  LEU170     -0.2718
      5  CB        14.3700   43.9290   -0.3990 C.3   170  LEU170      0.0284
      6  CG        13.0350   44.4720   -0.9130 C.3   170  LEU170      0.0019
      7  CD1       12.6670   45.7310   -0.1420 C.3   170  LEU170      0.0001
      8  CD2       13.1200   44.7710   -2.3880 C.3   170  LEU170      0.0001
      9  N         17.1860   42.7870   -1.3530 N.am  171  TYR171     -0.1976
     10  CA        18.5680   42.9580   -0.9310 C.3   171  TYR171      0.1639
     11  C         18.6490   43.9940    0.1790 C.2   171  TYR171      0.2290
     12  O         17.8890   44.9750    0.1930 O.2   171  TYR171     -0.2864
     13  CB        19.4740   43.3920   -2.0820 C.3   171  TYR171      0.0560
     14  CG        19.4690   42.4500   -3.2590 C.ar  171  TYR171     -0.0198
     15  CD1       19.9590   41.1500   -3.1420 C.ar  171  TYR171     -0.0009
     16  CD2       18.9900   42.8630   -4.4900 C.ar  171  TYR171     -0.0009
     17  CE1       19.9680   40.2970   -4.2300 C.ar  171  TYR171      0.0417
     18  CE2       18.9920   42.0130   -5.5820 C.ar  171  TYR171      0.0417
     19  CZ        19.4690   40.7280   -5.4440 C.ar  171  TYR171      0.1957
     20  OH        19.4630   39.8780   -6.5320 O.3   171  TYR171     -0.2866
     21  N         20.6630   46.3400    0.4840 N.3   173  GLU173     -0.1231
     22  CA        20.9190   47.6850   -0.0340 C.3   173  GLU173      0.1699
     23  C         19.5910   48.3600   -0.3650 C.2   173  GLU173      0.2593
     24  O         19.4990   49.5850   -0.3820 O.2   173  GLU173     -0.2718
     25  CB        21.8410   47.6580   -1.2630 C.3   173  GLU173      0.0402
     26  CG        21.1890   47.0680   -2.5150 C.3   173  GLU173      0.1161
     27  CD        22.0810   47.0840   -3.7400 C.2   173  GLU173      0.3649
     28  OE1       23.2100   47.6310   -3.6760 O.co2 173  GLU173     -0.2457
     29  OE2       21.6440   46.5330   -4.7800 O.co2 173  GLU173     -0.2457
     30  N         18.5670   47.5460   -0.6150 N.am  174  SER174     -0.1938
     31  CA        17.2320   48.0570   -0.8800 C.3   174  SER174      0.2055
     32  C         16.3870   48.2120    0.3790 C.2   174  SER174      0.2643
     33  O         15.7610   49.2500    0.5700 O.2   174  SER174     -0.2714
     34  CB        16.5000   47.1910   -1.9140 C.3   174  SER174      0.2130
     35  OG        16.9910   47.4200   -3.2260 O.3   174  SER174     -0.2179
     36  N         16.3560   47.2040    1.2490 N.am  175  HIS175     -0.1959
     37  CA        15.5510   47.3500    2.4690 C.3   175  HIS175      0.1787
     38  C         16.1630   48.2230    3.5620 C.2   175  HIS175      0.2620
     39  O         15.4570   48.6650    4.4620 O.2   175  HIS175     -0.2715
     40  CB        15.0200   46.0130    3.0260 C.3   175  HIS175      0.0785
     41  CG        16.0670   45.0540    3.5000 C.ar  175  HIS175      0.0821
     42  ND1       17.0070   45.3780    4.4560 N.ar  175  HIS175     -0.2267
     43  CD2       16.2530   43.7420    3.2170 C.ar  175  HIS175      0.1154
     44  CE1       17.7530   44.3180    4.7110 C.ar  175  HIS175      0.1986
     45  NE2       17.3180   43.3120    3.9730 N.ar  175  HIS175     -0.2212
     46  N         17.4700   48.4630    3.4880 N.am  176  GLY176     -0.1954
     47  CA        18.1160   49.3830    4.4110 C.3   176  GLY176      0.1869
     48  C         18.8660   48.7760    5.5850 C.2   176  GLY176      0.2309
     49  O         19.6650   49.4520    6.2290 O.2   176  GLY176     -0.2863
     50  N         12.3080   54.5080   10.9030 N.3   202  ARG202     -0.1231
     51  CA        13.0110   55.1670    9.8080 C.3   202  ARG202      0.1694
     52  C         14.1340   54.3160    9.2030 C.2   202  ARG202      0.2592
     53  O         14.6110   54.6030    8.1090 O.2   202  ARG202     -0.2718
     54  CB        13.5740   56.5180   10.2580 C.3   202  ARG202      0.0321
     55  CG        14.6440   56.4100   11.3360 C.3   202  ARG202      0.0489
     56  CD        15.2940   57.7590   11.6160 C.3   202  ARG202      0.2205
     57  NE        16.1710   57.6930   12.7790 N.pl3 202  ARG202     -0.0865
     58  CZ        16.9300   58.6990   13.2030 C.cat 202  ARG202      0.5346
     59  NH1       16.9180   59.8600   12.5560 N.pl3 202  ARG202      0.1354
     60  NH2       17.6980   58.5390   14.2730 N.pl3 202  ARG202      0.1354
     61  N         14.5530   53.2700    9.9060 N.am  203  TRP203     -0.1962
     62  CA        15.6160   52.4010    9.3830 C.3   203  TRP203      0.1771
     63  C         15.1070   51.3620    8.3940 C.2   203  TRP203      0.2620
     64  O         15.8370   50.9240    7.5080 O.2   203  TRP203     -0.2715
     65  CB        16.3250   51.6810   10.5330 C.3   203  TRP203      0.0590
     66  CG        17.0860   52.6070   11.4230 C.ar  203  TRP203      0.0006
     67  CD1       16.6410   53.1820   12.5740 C.ar  203  TRP203      0.0946
     68  CD2       18.4280   53.0720   11.2360 C.ar  203  TRP203      0.0152
     69  NE1       17.6220   53.9740   13.1160 N.ar  203  TRP203     -0.2442
     70  CE2       18.7330   53.9170   12.3180 C.ar  203  TRP203      0.0810
     71  CE3       19.4050   52.8490   10.2620 C.ar  203  TRP203      0.0012
     72  CZ2       19.9710   54.5420   12.4530 C.ar  203  TRP203      0.0191
     73  CZ3       20.6290   53.4700   10.3980 C.ar  203  TRP203      0.0001
     74  CH2       20.8990   54.3070   11.4850 C.ar  203  TRP203      0.0015
     75  N         13.8490   50.9670    8.5730 N.am  204  TRP204     -0.1960
     76  CA        13.3000   49.7770    7.9390 C.3   204  TRP204      0.1771
     77  C         12.5160   50.0820    6.6590 C.2   204  TRP204      0.2620
     78  O         11.4320   50.6530    6.7220 O.2   204  TRP204     -0.2715
     79  CB        12.4060   49.0600    8.9560 C.3   204  TRP204      0.0590
     80  CG        13.1170   48.7760   10.2410 C.ar  204  TRP204      0.0006
     81  CD1       13.2900   49.6330   11.2970 C.ar  204  TRP204      0.0946
     82  CD2       13.7690   47.5540   10.6070 C.ar  204  TRP204      0.0152
     83  NE1       14.0030   49.0170   12.2890 N.ar  204  TRP204     -0.2442
     84  CE2       14.3170   47.7450   11.8910 C.ar  204  TRP204      0.0810
     85  CE3       13.9500   46.3200    9.9670 C.ar  204  TRP204      0.0012
     86  CZ2       15.0260   46.7450   12.5580 C.ar  204  TRP204      0.0191
     87  CZ3       14.6550   45.3210   10.6350 C.ar  204  TRP204      0.0001
     88  CH2       15.1870   45.5450   11.9210 C.ar  204  TRP204      0.0015
     89  N         13.0570   49.6950    5.5050 N.am  205  GLY205     -0.1940
     90  CA        12.3950   49.9330    4.2270 C.3   205  GLY205      0.2014
     91  C         11.6610   48.7280    3.6600 C.2   205  GLY205      0.2639
     92  O         11.5280   47.7000    4.3220 O.2   205  GLY205     -0.2714
     93  N         11.1880   48.8570    2.4240 N.am  206  GLY206     -0.1954
     94  CA        10.4220   47.8170    1.7770 C.3   206  GLY206      0.1869
     95  C          9.1090   47.5310    2.4910 C.2   206  GLY206      0.2309
     96  O          8.5800   48.3740    3.2160 O.2   206  GLY206     -0.2863
     97  N         25.3930   42.5170   -4.5970 N.3   383  HIS383     -0.1241
     98  CA        24.3730   43.5760   -4.6140 C.3   383  HIS383      0.1621
     99  C         24.4710   44.4590   -3.3870 C.2   383  HIS383      0.2264
    100  O         23.4610   44.7450   -2.7250 O.2   383  HIS383     -0.2867
    101  CB        22.9560   42.9820   -4.7290 C.3   383  HIS383      0.0745
    102  CG        22.7000   42.3180   -6.0420 C.ar  383  HIS383      0.0817
    103  ND1       22.5220   43.0280   -7.2120 N.ar  383  HIS383     -0.2268
    104  CD2       22.6270   41.0070   -6.3780 C.ar  383  HIS383      0.1154
    105  CE1       22.3380   42.1800   -8.2100 C.ar  383  HIS383      0.1986
    106  NE2       22.4020   40.9480   -7.7310 N.ar  383  HIS383     -0.2212
    107  N         24.4650   50.0850   -3.2520 N.3   386  ASN386     -0.1225
    108  CA        23.5410   51.1770   -3.5030 C.3   386  ASN386      0.1785
    109  C         22.7430   51.6090   -2.2720 C.2   386  ASN386      0.2597
    110  O         21.5140   51.5170   -2.2320 O.2   386  ASN386     -0.2718
    111  CB        22.6160   50.8680   -4.6870 C.3   386  ASN386      0.1169
    112  CG        21.7590   52.0530   -5.0560 C.2   386  ASN386      0.2627
    113  OD1       22.2160   53.1970   -4.9750 O.2   386  ASN386     -0.2716
    114  ND2       20.5000   51.7990   -5.4120 N.am  386  ASN386     -0.0877
    115  N         23.4540   52.0900   -1.2630 N.am  387  ASN387     -0.1960
    116  CA        22.8170   52.5670   -0.0450 C.3   387  ASN387      0.1819
    117  C         23.7890   53.4810    0.6950 C.2   387  ASN387      0.2621
    118  O         24.9710   53.1670    0.8020 O.2   387  ASN387     -0.2715
    119  CB        22.4100   51.3870    0.8410 C.3   387  ASN387      0.1195
    120  CG        21.4510   51.7980    1.9520 C.2   387  ASN387      0.2630
    121  OD1       21.8190   52.5550    2.8510 O.2   387  ASN387     -0.2716
    122  ND2       20.2270   51.3000    1.8920 N.am  387  ASN387     -0.0877
    123  N         23.3020   54.6020    1.2100 N.am  388  ARG388     -0.1963
    124  CA        24.1810   55.5620    1.8980 C.3   388  ARG388      0.1729
    125  C         24.7830   55.0280    3.2050 C.2   388  ARG388      0.2616
    126  O         25.7580   55.5900    3.7230 O.2   388  ARG388     -0.2715
    127  CB        23.4370   56.8730    2.1760 C.3   388  ARG388      0.0348
    128  CG        22.2580   56.7150    3.1040 C.3   388  ARG388      0.0492
    129  CD        21.4080   57.9860    3.1400 C.3   388  ARG388      0.2205
    130  NE        20.4820   57.9770    4.2610 N.pl3 388  ARG388     -0.0865
    131  CZ        19.2750   58.5310    4.2420 C.cat 388  ARG388      0.5346
    132  NH1       18.8440   59.1500    3.1530 N.pl3 388  ARG388      0.1354
    133  NH2       18.5000   58.4620    5.3130 N.pl3 388  ARG388      0.1354
    134  N         24.2020   53.9530    3.7380 N.am  389  ARG389     -0.1977
    135  CA        24.6890   53.3380    4.9710 C.3   389  ARG389      0.1597
    136  C         25.8520   52.3770    4.7060 C.2   389  ARG389      0.2287
    137  O         26.4290   51.8160    5.6310 O.2   389  ARG389     -0.2864
    138  CB        23.5620   52.5810    5.6900 C.3   389  ARG389      0.0334
    139  CG        22.4820   53.4740    6.2650 C.3   389  ARG389      0.0492
    140  CD        21.1920   52.7110    6.4550 C.3   389  ARG389      0.2205
    141  NE        20.0740   53.6260    6.6650 N.pl3 389  ARG389     -0.0865
    142  CZ        18.8090   53.2430    6.7840 C.cat 389  ARG389      0.5346
    143  NH1       18.4970   51.9530    6.7190 N.pl3 389  ARG389      0.1354
    144  NH2       17.8580   54.1520    6.9570 N.pl3 389  ARG389      0.1354
    145  N          6.8290   44.9220   -4.6520 N.3   462  PRO462     -0.2102
    146  CA         8.0160   44.8430   -5.5180 C.3   462  PRO462      0.1504
    147  C          9.2440   44.3310   -4.7610 C.2   462  PRO462      0.2576
    148  O          9.5630   44.8310   -3.6800 O.2   462  PRO462     -0.2718
    149  CB         8.2250   46.2950   -5.9550 C.3   462  PRO462      0.0282
    150  CG         6.8480   46.8950   -5.9070 C.3   462  PRO462      0.0208
    151  CD         6.1510   46.2310   -4.7570 C.3   462  PRO462      0.0893
    152  N          9.9050   43.3180   -5.3020 N.am  463  ASN463     -0.1961
    153  CA        11.0470   42.7460   -4.6000 C.3   463  ASN463      0.1819
    154  C         12.0410   42.1200   -5.5450 C.2   463  ASN463      0.2621
    155  O         11.8690   42.1890   -6.7640 O.2   463  ASN463     -0.2715
    156  CB        10.5920   41.7530   -3.5230 C.3   463  ASN463      0.1195
    157  CG        10.0540   40.4590   -4.1100 C.2   463  ASN463      0.2630
    158  OD1       10.8080   39.5180   -4.3580 O.2   463  ASN463     -0.2716
    159  ND2        8.7450   40.4020   -4.3220 N.am  463  ASN463     -0.0877
    160  N         13.1000   41.5280   -4.9970 N.am  464  ASN464     -0.1972
    161  CA        14.1870   41.0630   -5.8480 C.3   464  ASN464      0.1688
    162  C         14.1310   39.5860   -6.2020 C.2   464  ASN464      0.2292
    163  O         14.9510   39.0930   -6.9710 O.2   464  ASN464     -0.2864
    164  CB        15.5220   41.4450   -5.2300 C.3   464  ASN464      0.1181
    165  CG        15.6430   42.9380   -5.0570 C.2   464  ASN464      0.2629
    166  OD1       15.7640   43.4450   -3.9400 O.2   464  ASN464     -0.2716
    167  ND2       15.5660   43.6550   -6.1750 N.am  464  ASN464     -0.0877
    168  N         23.7580   50.7590   -8.9420 N.3   663  ASN663     -0.1225
    169  CA        22.4600   50.3490   -8.4100 C.3   663  ASN663      0.1785
    170  C         22.0480   48.9720   -8.9280 C.2   663  ASN663      0.2598
    171  O         20.9710   48.4690   -8.6020 O.2   663  ASN663     -0.2718
    172  CB        21.3490   51.3880   -8.6800 C.3   663  ASN663      0.1169
    173  CG        21.0300   51.5640  -10.1820 C.2   663  ASN663      0.2627
    174  OD1       21.6640   50.9570  -11.0510 O.2   663  ASN663     -0.2716
    175  ND2       20.0390   52.4160  -10.4800 N.am  663  ASN663     -0.0877
    176  N         22.9190   48.3610   -9.7220 N.am  664  GLY664     -0.1942
    177  CA        22.6410   47.0470  -10.2690 C.3   664  GLY664      0.2014
    178  C         21.6420   47.0660  -11.4170 C.2   664  GLY664      0.2638
    179  O         21.1650   46.0070  -11.8560 O.2   664  GLY664     -0.2714
    180  N         21.3300   48.2620  -11.9140 N.am  665  LEU665     -0.1977
    181  CA        20.3780   48.4020  -13.0090 C.3   665  LEU665      0.1596
    182  C         21.0170   49.0740  -14.2220 C.2   665  LEU665      0.2287
    183  O         21.8820   49.9450  -14.0830 O.2   665  LEU665     -0.2864
    184  CB        19.1560   49.2100  -12.5660 C.3   665  LEU665      0.0297
    185  CG        18.3860   48.7360  -11.3260 C.3   665  LEU665      0.0022
    186  CD1       17.2500   49.6880  -11.0010 C.3   665  LEU665      0.0001
    187  CD2       17.8620   47.3240  -11.5260 C.3   665  LEU665      0.0001
    188  N         19.0620   42.4220  -15.1620 N.3   751  HIS751     -0.1241
    189  CA        18.8410   43.7020  -14.4800 C.3   751  HIS751      0.1621
    190  C         19.7640   44.7810  -15.0060 C.2   751  HIS751      0.2264
    191  O         19.3780   45.9470  -15.1210 O.2   751  HIS751     -0.2867
    192  CB        19.0980   43.5740  -12.9820 C.3   751  HIS751      0.0745
    193  CG        18.0950   42.7340  -12.2580 C.ar  751  HIS751      0.0817
    194  ND1       16.7460   42.7640  -12.5440 N.ar  751  HIS751     -0.2268
    195  CD2       18.2440   41.8500  -11.2440 C.ar  751  HIS751      0.1154
    196  CE1       16.1100   41.9250  -11.7470 C.ar  751  HIS751      0.1986
    197  NE2       16.9960   41.3570  -10.9490 N.ar  751  HIS751     -0.2212
@<TRIPOS>BOND
     1   188   189    1
     2   191   190    2
     3   190   189    1
     4   189   192    1
     5   182   183    2
     6   182   181    1
     7   181   184    1
     8   181   180    1
     9   192   193    1
    10   184   185    1
    11   194   193   ar
    12   194   196   ar
    13   193   195   ar
    14   180   178   am
    15   179   178    2
    16   196   197   ar
    17   187   185    1
    18   178   177    1
    19   185   186    1
    20   195   197   ar
    21   174   173    2
    22   175   173   am
    23   177   176    1
    24   173   172    1
    25   176   170   am
    26   168   169    1
    27   170   171    2
    28   170   169    1
    29   172   169    1
    30   105   106   ar
    31   105   103   ar
    32   106   104   ar
    33   103   102   ar
    34   163   162    2
    35   155   154    2
    36    20    19    1
    37   104   102   ar
    38   162   161    1
    39   167   165   am
    40   102   101    1
    41   149   150    1
    42   149   146    1
    43   150   151    1
    44   161   164    1
    45   161   160    1
    46    18    19   ar
    47    18    16   ar
    48   154   160   am
    49   154   153    1
    50   146   147    1
    51   146   145    1
    52    19    17   ar
    53   114   112   am
    54   152   147   am
    55   152   153    1
    56   164   165    1
    57   165   166    2
    58   112   113    2
    59   112   111    1
    60    29    27   ar
    61   147   148    2
    62   151   145    1
    63   101    98    1
    64   111   108    1
    65    98    97    1
    66    98    99    1
    67   153   156    1
    68    16    14   ar
    69   158   157    2
    70   159   157   am
    71    17    15   ar
    72   157   156    1
    73    27    28   ar
    74    27    26    1
    75   108   107    1
    76   108   109    1
    77    99   100    2
    78    14    15   ar
    79    14    13    1
    80    35    34    1
    81    26    25    1
    82     8     6    1
    83   109   110    2
    84   109   115   am
    85    13    10    1
    86    34    31    1
    87     9    10    1
    88     9     3   am
    89    25    22    1
    90   115   116    1
    91    10    11    1
    92     6     5    1
    93     6     7    1
    94     2     3    1
    95     2     1    1
    96     2     5    1
    97    31    30    1
    98    31    32    1
    99    30    23   am
   100     3     4    2
   101    24    23    2
   102    23    22    1
   103   116   117    1
   104   116   119    1
   105    22    21    1
   106    11    12    2
   107    32    33    2
   108    32    36   am
   109   117   118    2
   110   117   123   am
   111   119   120    1
   112   123   124    1
   113    36    37    1
   114    94    93    1
   115    94    95    1
   116   122   120   am
   117   124   127    1
   118   124   125    1
   119   120   121    2
   120   127   128    1
   121    93    91   am
   122    37    40    1
   123    37    38    1
   124    95    96    2
   125    40    41    1
   126   128   129    1
   127   129   130    1
   128   132   131    1
   129   125   126    2
   130   125   134   am
   131    43    41   ar
   132    43    45   ar
   133    46    38   am
   134    46    47    1
   135    41    42   ar
   136    38    39    2
   137    91    90    1
   138    91    92    2
   139   134   135    1
   140    45    44   ar
   141    90    89    1
   142   131   130    2
   143   131   133    1
   144    47    48    1
   145    42    44   ar
   146   136   135    1
   147   136   137    2
   148   135   138    1
   149    89    77   am
   150    48    49    2
   151   138   139    1
   152   139   140    1
   153   140   141    1
   154    77    78    2
   155    77    76    1
   156   141   142    2
   157   143   142    1
   158   142   144    1
   159    64    63    2
   160    76    75    1
   161    76    79    1
   162    53    52    2
   163    63    75   am
   164    63    62    1
   165    79    80    1
   166    52    51    1
   167    52    61   am
   168    62    61    1
   169    62    65    1
   170    51    54    1
   171    51    50    1
   172    85    82   ar
   173    85    87   ar
   174    80    82   ar
   175    80    81   ar
   176    54    55    1
   177    71    73   ar
   178    71    68   ar
   179    73    74   ar
   180    65    66    1
   181    82    84   ar
   182    87    88   ar
   183    68    66   ar
   184    68    70   ar
   185    81    83   ar
   186    55    56    1
   187    66    67   ar
   188    74    72   ar
   189    56    57    1
   190    84    83   ar
   191    84    86   ar
   192    88    86   ar
   193    70    72   ar
   194    70    69   ar
   195    59    58    1
   196    67    69   ar
   197    57    58    2
   198    58    60    1
