@<TRIPOS>MOLECULE
tmp/3waxA03.pdb
 244 237 0 0 0
SMALL
GASTEIGER

@<TRIPOS>ATOM
      1  N          6.3020   30.0130   10.1740 N.3   117  ILE117     -0.1245
      2  CA         7.7060   30.1090    9.8210 C.3   117  ILE117      0.1561
      3  C          8.4930   29.8480   11.0880 C.2   117  ILE117      0.2260
      4  O          8.3410   30.5560   12.0790 O.2   117  ILE117     -0.2867
      5  CB         8.0550   31.5030    9.3020 C.3   117  ILE117      0.0252
      6  CG1        7.2150   31.8450    8.0680 C.3   117  ILE117      0.0019
      7  CG2        9.5530   31.6060    9.0190 C.3   117  ILE117      0.0019
      8  CD1        6.9930   33.3420    7.8870 C.3   117  ILE117      0.0001
      9  N         11.9490   29.9530   12.3900 N.3   119  SER119     -0.1217
     10  CA        13.2730   30.4730   12.0690 C.3   119  SER119      0.1889
     11  C         14.3200   30.1330   13.1280 C.2   119  SER119      0.2288
     12  O         14.0770   30.2180   14.3330 O.2   119  SER119     -0.2866
     13  CB        13.2190   31.9880   11.8350 C.3   119  SER119      0.2089
     14  OG        12.8740   32.6630   13.0320 O.3   119  SER119     -0.2183
     15  N         18.3890   30.7630   14.2580 N.3   121  ASP121     -0.1239
     16  CA        19.5620   31.5910   14.0780 C.3   121  ASP121      0.1674
     17  C         20.8450   30.7670   13.9550 C.2   121  ASP121      0.2266
     18  O         21.1300   29.9140   14.7940 O.2   121  ASP121     -0.2867
     19  CB        19.6830   32.5960   15.2240 C.3   121  ASP121      0.1410
     20  CG        20.4490   33.8330   14.8180 C.2   121  ASP121      0.3668
     21  OD1       21.5370   33.7040   14.2000 O.co2 121  ASP121     -0.2456
     22  OD2       19.9350   34.9400   15.0740 O.co2 121  ASP121     -0.2456
     23  N         22.6480   38.4810   11.1160 N.3   159  THR159     -0.1203
     24  CA        21.2130   38.2890   11.4230 C.3   159  THR159      0.1994
     25  C         20.2630   39.3310   10.8980 C.2   159  THR159      0.2617
     26  O         19.3160   39.0010   10.1900 O.2   159  THR159     -0.2717
     27  CB        21.0080   38.2130   12.9170 C.3   159  THR159      0.1784
     28  OG1       21.7770   37.1130   13.3890 O.3   159  THR159     -0.2211
     29  CG2       19.5590   38.0050   13.3140 C.3   159  THR159      0.0376
     30  N         20.4880   40.5880   11.2720 N.am  160  PHE160     -0.1975
     31  CA        19.5360   41.6160   10.8900 C.3   160  PHE160      0.1639
     32  C         19.3780   41.8190    9.3700 C.2   160  PHE160      0.2290
     33  O         18.2560   41.9090    8.8750 O.2   160  PHE160     -0.2864
     34  CB        19.7830   42.9080   11.6760 C.3   160  PHE160      0.0560
     35  CG        19.3790   42.7920   13.1270 C.ar  160  PHE160     -0.0200
     36  CD1       20.2910   42.3690   14.0840 C.ar  160  PHE160     -0.0042
     37  CD2       18.0760   43.0270   13.5120 C.ar  160  PHE160     -0.0042
     38  CE1       19.9150   42.2320   15.4100 C.ar  160  PHE160     -0.0003
     39  CE2       17.6910   42.8900   14.8450 C.ar  160  PHE160     -0.0003
     40  CZ        18.6120   42.4910   15.7870 C.ar  160  PHE160     -0.0000
     41  N         17.4350   38.4270    8.3060 N.3   163  LEU163     -0.1231
     42  CA        16.0370   38.2980    8.7250 C.3   163  LEU163      0.1693
     43  C         15.1350   39.2680    7.9600 C.2   163  LEU163      0.2592
     44  O         14.0320   38.9250    7.5470 O.2   163  LEU163     -0.2718
     45  CB        15.8910   38.5240   10.2230 C.3   163  LEU163      0.0284
     46  CG        16.4510   37.4090   11.1110 C.3   163  LEU163      0.0019
     47  CD1       16.2280   37.7350   12.5730 C.3   163  LEU163      0.0001
     48  CD2       15.8620   36.0360   10.7600 C.3   163  LEU163      0.0001
     49  N         15.6030   40.4880    7.7670 N.am  164  TYR164     -0.1976
     50  CA        14.7530   41.4710    7.1170 C.3   164  TYR164      0.1639
     51  C         14.6620   41.1820    5.6150 C.2   164  TYR164      0.2290
     52  O         13.6780   41.5210    4.9490 O.2   164  TYR164     -0.2864
     53  CB        15.2470   42.8900    7.3910 C.3   164  TYR164      0.0560
     54  CG        14.1380   43.8980    7.2470 C.ar  164  TYR164     -0.0198
     55  CD1       12.9570   43.7630    7.9730 C.ar  164  TYR164     -0.0009
     56  CD2       14.2570   44.9710    6.3760 C.ar  164  TYR164     -0.0009
     57  CE1       11.9250   44.6850    7.8340 C.ar  164  TYR164      0.0417
     58  CE2       13.2350   45.8950    6.2360 C.ar  164  TYR164      0.0417
     59  CZ        12.0750   45.7430    6.9650 C.ar  164  TYR164      0.1957
     60  OH        11.0630   46.6610    6.8080 O.3   164  TYR164     -0.2866
     61  N         14.6060   38.0060    4.4640 N.3   166  LEU166     -0.1231
     62  CA        13.5730   36.9620    4.4640 C.3   166  LEU166      0.1693
     63  C         12.1670   37.5780    4.4900 C.2   166  LEU166      0.2591
     64  O         11.2580   37.1170    3.7910 O.2   166  LEU166     -0.2718
     65  CB        13.7460   36.0340    5.6610 C.3   166  LEU166      0.0284
     66  CG        14.9580   35.1080    5.6740 C.3   166  LEU166      0.0019
     67  CD1       15.1050   34.4490    7.0530 C.3   166  LEU166      0.0001
     68  CD2       14.8410   34.0520    4.5830 C.3   166  LEU166      0.0001
     69  N         12.0110   38.6480    5.2670 N.am  167  ALA167     -0.1980
     70  CA        10.7020   39.2730    5.4550 C.3   167  ALA167      0.1597
     71  C         10.2350   40.1590    4.2980 C.2   167  ALA167      0.2287
     72  O          9.0360   40.4320    4.1800 O.2   167  ALA167     -0.2864
     73  CB        10.6760   40.0620    6.7820 C.3   167  ALA167      0.0319
     74  N         24.0860   44.6420   11.0270 N.3   180  ASN180     -0.1240
     75  CA        23.7600   44.5950   12.4590 C.3   180  ASN180      0.1653
     76  C         24.1320   45.9190   13.1310 C.2   180  ASN180      0.2266
     77  O         23.4700   46.3700   14.0640 O.2   180  ASN180     -0.2867
     78  CB        24.5280   43.4690   13.1790 C.3   180  ASN180      0.1155
     79  CG        23.9480   42.0820   12.9240 C.2   180  ASN180      0.2627
     80  OD1       22.9880   41.9190   12.1690 O.2   180  ASN180     -0.2716
     81  ND2       24.5300   41.0740   13.5730 N.am  180  ASN180     -0.0877
     82  N         22.1900   46.8680   17.2600 N.3   193  LEU193     -0.1231
     83  CA        21.2830   45.7200   17.3460 C.3   193  LEU193      0.1693
     84  C         20.4740   45.7200   18.6430 C.2   193  LEU193      0.2591
     85  O         19.2590   45.5130   18.6260 O.2   193  LEU193     -0.2718
     86  CB        22.0520   44.4030   17.1720 C.3   193  LEU193      0.0284
     87  CG        23.2840   44.1310   18.0490 C.3   193  LEU193      0.0019
     88  CD1       22.9270   43.2670   19.2620 C.3   193  LEU193      0.0001
     89  CD2       24.4260   43.4970   17.2390 C.3   193  LEU193      0.0001
     90  N         21.1510   45.9660   19.7600 N.am  194  ARG194     -0.1980
     91  CA        20.4730   46.1940   21.0300 C.3   194  ARG194      0.1597
     92  C         20.6370   47.6620   21.4090 C.2   194  ARG194      0.2287
     93  O         21.7600   48.1720   21.4880 O.2   194  ARG194     -0.2864
     94  CB        21.0400   45.2910   22.1270 C.3   194  ARG194      0.0334
     95  CG        20.4520   45.5160   23.5410 C.3   194  ARG194      0.0492
     96  CD        18.9790   45.1020   23.6400 C.3   194  ARG194      0.2205
     97  NE        18.8220   43.6520   23.6970 N.pl3 194  ARG194     -0.0865
     98  CZ        17.7270   42.9810   23.3600 C.cat 194  ARG194      0.5346
     99  NH1       16.6460   43.6130   22.9170 N.pl3 194  ARG194      0.1354
    100  NH2       17.7290   41.6520   23.4430 N.pl3 194  ARG194      0.1354
    101  N         13.9400   51.0930    8.7020 N.3   204  TRP204     -0.1241
    102  CA        13.4280   49.9090    8.0160 C.3   204  TRP204      0.1605
    103  C         12.6480   50.2570    6.7480 C.2   204  TRP204      0.2264
    104  O         11.6180   50.9130    6.8250 O.2   204  TRP204     -0.2867
    105  CB        12.5670   49.0810    8.9930 C.3   204  TRP204      0.0550
    106  CG        13.2600   48.8330   10.3330 C.ar  204  TRP204      0.0003
    107  CD1       13.4240   49.7340   11.3600 C.ar  204  TRP204      0.0946
    108  CD2       13.8910   47.6210   10.7700 C.ar  204  TRP204      0.0152
    109  NE1       14.1190   49.1550   12.3990 N.ar  204  TRP204     -0.2442
    110  CE2       14.4140   47.8590   12.0650 C.ar  204  TRP204      0.0810
    111  CE3       14.0610   46.3580   10.1980 C.ar  204  TRP204      0.0012
    112  CZ2       15.0890   46.8810   12.7900 C.ar  204  TRP204      0.0191
    113  CZ3       14.7330   45.3830   10.9260 C.ar  204  TRP204      0.0001
    114  CH2       15.2420   45.6540   12.2040 C.ar  204  TRP204      0.0015
    115  N          4.4930   40.6560    7.1820 N.3   210  TRP210     -0.1241
    116  CA         3.3700   40.8920    8.1080 C.3   210  TRP210      0.1605
    117  C          2.5420   42.1280    7.7450 C.2   210  TRP210      0.2264
    118  O          1.3240   42.1780    8.0020 O.2   210  TRP210     -0.2867
    119  CB         3.8150   40.9470    9.5760 C.3   210  TRP210      0.0550
    120  CG         4.8890   41.9430    9.8920 C.ar  210  TRP210      0.0003
    121  CD1        4.7170   43.2420   10.2680 C.ar  210  TRP210      0.0946
    122  CD2        6.3070   41.7170    9.8730 C.ar  210  TRP210      0.0152
    123  NE1        5.9330   43.8430   10.4700 N.ar  210  TRP210     -0.2442
    124  CE2        6.9260   42.9280   10.2410 C.ar  210  TRP210      0.0810
    125  CE3        7.1080   40.6070    9.5790 C.ar  210  TRP210      0.0012
    126  CZ2        8.3140   43.0670   10.3270 C.ar  210  TRP210      0.0191
    127  CZ3        8.4880   40.7450    9.6650 C.ar  210  TRP210      0.0001
    128  CH2        9.0740   41.9670   10.0340 C.ar  210  TRP210      0.0015
    129  N          5.5360   38.4350   14.7890 N.3   223  PHE223     -0.1227
    130  CA         6.7040   37.6630   14.3490 C.3   223  PHE223      0.1736
    131  C          7.7860   37.6630   15.4190 C.2   223  PHE223      0.2595
    132  O          8.4840   36.6740   15.6010 O.2   223  PHE223     -0.2718
    133  CB         7.3040   38.2570   13.0620 C.3   223  PHE223      0.0547
    134  CG         6.7180   37.7000   11.7780 C.ar  223  PHE223     -0.0202
    135  CD1        5.3540   37.4950   11.6420 C.ar  223  PHE223     -0.0042
    136  CD2        7.5380   37.4220   10.7000 C.ar  223  PHE223     -0.0042
    137  CE1        4.8190   37.0000   10.4510 C.ar  223  PHE223     -0.0003
    138  CE2        7.0170   36.9320    9.5170 C.ar  223  PHE223     -0.0003
    139  CZ         5.6530   36.7230    9.3900 C.ar  223  PHE223     -0.0000
    140  N          7.9070   38.7830   16.1240 N.am  224  PHE224     -0.1962
    141  CA         8.9810   38.9870   17.0890 C.3   224  PHE224      0.1771
    142  C          8.5560   38.5850   18.4780 C.2   224  PHE224      0.2619
    143  O          7.3760   38.6720   18.8240 O.2   224  PHE224     -0.2715
    144  CB         9.4100   40.4470   17.0880 C.3   224  PHE224      0.0574
    145  CG         9.9060   40.9170   15.7700 C.ar  224  PHE224     -0.0200
    146  CD1        9.0220   41.3520   14.8000 C.ar  224  PHE224     -0.0042
    147  CD2       11.2640   40.9240   15.4880 C.ar  224  PHE224     -0.0042
    148  CE1        9.4910   41.7780   13.5650 C.ar  224  PHE224     -0.0003
    149  CE2       11.7350   41.3530   14.2670 C.ar  224  PHE224     -0.0003
    150  CZ        10.8520   41.7770   13.3050 C.ar  224  PHE224     -0.0000
    151  N          9.5180   38.1290   19.2720 N.am  225  TRP225     -0.1974
    152  CA         9.2480   37.7820   20.6550 C.3   225  TRP225      0.1640
    153  C         10.3190   38.3820   21.5380 C.2   225  TRP225      0.2290
    154  O         11.5150   38.1660   21.2970 O.2   225  TRP225     -0.2864
    155  CB         9.2560   36.2740   20.8440 C.3   225  TRP225      0.0576
    156  CG         8.3600   35.5460   19.9100 C.ar  225  TRP225      0.0006
    157  CD1        8.6210   35.2130   18.6140 C.ar  225  TRP225      0.0946
    158  CD2        7.0540   35.0400   20.2050 C.ar  225  TRP225      0.0152
    159  NE1        7.5520   34.5310   18.0830 N.ar  225  TRP225     -0.2442
    160  CE2        6.5760   34.4170   19.0370 C.ar  225  TRP225      0.0810
    161  CE3        6.2460   35.0500   21.3450 C.ar  225  TRP225      0.0012
    162  CZ2        5.3250   33.8080   18.9760 C.ar  225  TRP225      0.0191
    163  CZ3        5.0000   34.4580   21.2790 C.ar  225  TRP225      0.0001
    164  CH2        4.5520   33.8470   20.1050 C.ar  225  TRP225      0.0015
    165  N         12.9900   38.7900   24.1760 N.3   227  VAL227     -0.1245
    166  CA        13.9710   37.7320   24.3740 C.3   227  VAL227      0.1561
    167  C         13.7460   36.9160   25.6440 C.2   227  VAL227      0.2260
    168  O         14.2210   35.7870   25.7560 O.2   227  VAL227     -0.2867
    169  CB        15.4070   38.2950   24.3630 C.3   227  VAL227      0.0252
    170  CG1       15.7490   38.8300   22.9760 C.3   227  VAL227      0.0019
    171  CG2       15.5520   39.3880   25.4040 C.3   227  VAL227      0.0019
    172  N          6.5520   30.3940   23.5480 N.3   234  ARG234     -0.1245
    173  CA         6.3100   30.9000   22.2060 C.3   234  ARG234      0.1563
    174  C          5.4660   29.8860   21.4620 C.2   234  ARG234      0.2260
    175  O          4.5080   30.2390   20.7710 O.2   234  ARG234     -0.2867
    176  CB         7.6110   31.1900   21.4570 C.3   234  ARG234      0.0307
    177  CG         8.4750   32.2250   22.1560 C.3   234  ARG234      0.0489
    178  CD         9.8200   32.4080   21.4590 C.3   234  ARG234      0.2205
    179  NE        10.7560   33.0680   22.3600 N.pl3 234  ARG234     -0.0865
    180  CZ        11.7780   33.8090   21.9580 C.cat 234  ARG234      0.5346
    181  NH1       12.0120   33.9800   20.6570 N.pl3 234  ARG234      0.1354
    182  NH2       12.5720   34.3640   22.8640 N.pl3 234  ARG234      0.1354
    183  N          5.0930   33.2510   13.2060 N.3   254  ALA254     -0.1245
    184  CA         6.5320   33.0510   13.1940 C.3   254  ALA254      0.1562
    185  C          7.0430   32.6850   14.5750 C.2   254  ALA254      0.2260
    186  O          6.6420   33.2730   15.5770 O.2   254  ALA254     -0.2867
    187  CB         7.2430   34.2950   12.6850 C.3   254  ALA254      0.0290
    188  N         10.8890   32.0600   16.4960 N.3   256  TYR256     -0.1241
    189  CA        12.3120   32.3140   16.3250 C.3   256  TYR256      0.1605
    190  C         13.1190   31.7510   17.4970 C.2   256  TYR256      0.2264
    191  O         12.7000   31.8270   18.6440 O.2   256  TYR256     -0.2867
    192  CB        12.5800   33.8140   16.1860 C.3   256  TYR256      0.0534
    193  CG        14.0420   34.1810   16.3700 C.ar  256  TYR256     -0.0201
    194  CD1       14.9200   34.1880   15.2920 C.ar  256  TYR256     -0.0009
    195  CD2       14.5450   34.5060   17.6340 C.ar  256  TYR256     -0.0009
    196  CE1       16.2670   34.5120   15.4660 C.ar  256  TYR256      0.0417
    197  CE2       15.8860   34.8330   17.8200 C.ar  256  TYR256      0.0417
    198  CZ        16.7390   34.8290   16.7380 C.ar  256  TYR256      0.1957
    199  OH        18.0580   35.1600   16.9200 O.3   256  TYR256     -0.2866
    200  N         17.2850   31.7910   18.9650 N.3   258  GLU258     -0.1245
    201  CA        18.6440   32.3250   18.8990 C.3   258  GLU258      0.1567
    202  C         19.6840   31.2240   18.7730 C.2   258  GLU258      0.2260
    203  O         20.8700   31.5020   18.5400 O.2   258  GLU258     -0.2867
    204  CB        18.9590   33.1640   20.1440 C.3   258  GLU258      0.0388
    205  CG        18.8290   32.5180   21.4500 C.3   258  GLU258      0.1160
    206  CD        17.4590   32.4010   22.0620 C.2   258  GLU258      0.3649
    207  OE1       16.4190   32.5250   21.4140 O.co2 258  GLU258     -0.2457
    208  OE2       17.4680   32.1950   23.3350 O.co2 258  GLU258     -0.2457
    209  N         22.8960   29.5620   16.8180 N.3   261  ASP261     -0.1239
    210  CA        23.8880   30.6220   16.6890 C.3   261  ASP261      0.1674
    211  C         24.7600   30.8150   17.9240 C.2   261  ASP261      0.2266
    212  O         25.9880   30.8930   17.8390 O.2   261  ASP261     -0.2867
    213  CB        23.1900   31.9450   16.3820 C.3   261  ASP261      0.1410
    214  CG        24.1450   32.9970   15.8730 C.2   261  ASP261      0.3668
    215  OD1       24.8330   32.7520   14.8640 O.co2 261  ASP261     -0.2456
    216  OD2       24.2130   34.0770   16.4770 O.co2 261  ASP261     -0.2456
    217  N         28.8440   30.1570   18.1350 N.3   265  HIS265     -0.1241
    218  CA        29.8600   31.1740   18.4430 C.3   265  HIS265      0.1621
    219  C         30.8150   30.7100   19.5510 C.2   265  HIS265      0.2264
    220  O         32.0320   30.8980   19.4710 O.2   265  HIS265     -0.2867
    221  CB        29.2140   32.4880   18.8730 C.3   265  HIS265      0.0745
    222  CG        28.6830   33.3040   17.7400 C.ar  265  HIS265      0.0817
    223  ND1       29.4800   33.7290   16.6960 N.ar  265  HIS265     -0.2268
    224  CD2       27.4400   33.7750   17.4800 C.ar  265  HIS265      0.1154
    225  CE1       28.7500   34.4270   15.8440 C.ar  265  HIS265      0.1986
    226  NE2       27.5090   34.4610   16.2910 N.ar  265  HIS265     -0.2212
    227  N         30.3210   34.3600   11.7500 N.3   414  HIS414     -0.1241
    228  CA        29.6710   34.3810   10.4550 C.3   414  HIS414      0.1621
    229  C         29.6190   35.8330    9.9730 C.2   414  HIS414      0.2264
    230  O         29.8310   36.7610   10.7550 O.2   414  HIS414     -0.2867
    231  CB        28.2450   33.8040   10.5870 C.3   414  HIS414      0.0745
    232  CG        27.4190   34.4880   11.6330 C.ar  414  HIS414      0.0817
    233  ND1       26.7090   35.6430   11.3830 N.ar  414  HIS414     -0.2268
    234  CD2       27.2140   34.1970   12.9390 C.ar  414  HIS414      0.1154
    235  CE1       26.0940   36.0300   12.4860 C.ar  414  HIS414      0.1986
    236  NE2       26.3760   35.1630   13.4460 N.ar  414  HIS414     -0.2212
    237  N          6.1370   32.8590    0.1070 N.3   452  MET452     -0.1245
    238  CA         5.2970   32.9950    1.2930 C.3   452  MET452      0.1570
    239  C          4.0300   33.7810    0.9370 C.2   452  MET452      0.2261
    240  O          2.9490   33.4760    1.4210 O.2   452  MET452     -0.2867
    241  CB         6.0690   33.6300    2.4520 C.3   452  MET452      0.0387
    242  CG         7.2510   32.7510    2.9360 C.3   452  MET452      0.0595
    243  SD         8.0410   33.3290    4.4520 S.3   452  MET452     -0.1393
    244  CE         8.8330   34.8360    3.8770 C.3   452  MET452      0.0692
@<TRIPOS>BOND
     1   237   238    1
     2   239   238    1
     3   239   240    2
     4   238   241    1
     5   241   242    1
     6   242   243    1
     7    64    63    2
     8   244   243    1
     9    72    71    2
    10    71    70    1
    11    62    61    1
    12    62    63    1
    13    62    65    1
    14    63    69   am
    15    68    66    1
    16    52    51    2
    17    69    70    1
    18    70    73    1
    19    51    50    1
    20    65    66    1
    21    66    67    1
    22    58    56   ar
    23    58    59   ar
    24    56    54   ar
    25   103   104    2
    26   103   102    1
    27    60    59    1
    28    59    57   ar
    29    50    53    1
    30    50    49    1
    31   115   116    1
    32    54    53    1
    33    54    55   ar
    34    44    43    2
    35   117   118    2
    36   117   116    1
    37    49    43   am
    38    57    55   ar
    39     8     6    1
    40    43    42    1
    41   102   101    1
    42   102   105    1
    43     6     5    1
    44   116   119    1
    45    41    42    1
    46    42    45    1
    47    33    32    2
    48   105   106    1
    49     7     5    1
    50     5     2    1
    51    32    31    1
    52   139   138   ar
    53   139   137   ar
    54   138   136   ar
    55   119   120    1
    56   125   127   ar
    57   125   122   ar
    58   127   128   ar
    59     2     1    1
    60     2     3    1
    61   122   120   ar
    62   122   124   ar
    63   120   121   ar
    64   229   228    1
    65   229   230    2
    66   128   126   ar
    67    26    25    2
    68   111   108   ar
    69   111   113   ar
    70    45    46    1
    71   124   126   ar
    72   124   123   ar
    73   121   123   ar
    74   106   108   ar
    75   106   107   ar
    76   137   135   ar
    77   228   231    1
    78   228   227    1
    79   231   232    1
    80   136   134   ar
    81    48    46    1
    82   108   110   ar
    83    31    30    1
    84    31    34    1
    85    25    30   am
    86    25    24    1
    87   113   114   ar
    88    74    75    1
    89     3     4    2
    90    46    47    1
    91    23    24    1
    92   107   109   ar
    93   233   232   ar
    94   233   235   ar
    95    24    27    1
    96   232   234   ar
    97   135   134   ar
    98    34    35    1
    99   134   133    1
   100    13    10    1
   101    13    14    1
   102   110   109   ar
   103   110   112   ar
   104    10     9    1
   105    10    11    1
   106    80    79    2
   107   114   112   ar
   108    75    76    1
   109    75    78    1
   110   235   236   ar
   111   187   184    1
   112    27    29    1
   113    27    28    1
   114    79    78    1
   115    79    81   am
   116   234   236   ar
   117   133   130    1
   118    35    37   ar
   119    35    36   ar
   120    11    12    2
   121    76    77    2
   122   184   183    1
   123   184   185    1
   124   150   148   ar
   125   150   149   ar
   126    37    39   ar
   127   148   146   ar
   128    17    16    1
   129    17    18    2
   130    16    15    1
   131    16    19    1
   132    36    38   ar
   133    21    20   ar
   134   149   147   ar
   135   130   129    1
   136   130   131    1
   137   185   186    2
   138   146   145   ar
   139    20    22   ar
   140    20    19    1
   141    39    40   ar
   142   215   214   ar
   143   194   196   ar
   144   194   193   ar
   145    38    40   ar
   146   131   132    2
   147   131   140   am
   148   196   198   ar
   149   147   145   ar
   150   145   144    1
   151   225   226   ar
   152   225   223   ar
   153   214   213    1
   154   214   216   ar
   155   140   141    1
   156   192   189    1
   157   192   193    1
   158   226   224   ar
   159   189   188    1
   160   189   190    1
   161   193   195   ar
   162   213   210    1
   163   210   209    1
   164   210   211    1
   165   223   222   ar
   166   198   199    1
   167   198   197   ar
   168   144   141    1
   169   141   142    1
   170    86    83    1
   171    86    87    1
   172    89    87    1
   173    82    83    1
   174    83    84    1
   175   224   222   ar
   176   190   191    2
   177   195   197   ar
   178   222   221    1
   179   212   211    2
   180    87    88    1
   181   159   157   ar
   182   159   160   ar
   183   217   218    1
   184   218   221    1
   185   218   219    1
   186   142   143    2
   187   142   151   am
   188   203   202    2
   189   157   156   ar
   190    85    84    2
   191    84    90   am
   192   202   201    1
   193   201   200    1
   194   201   204    1
   195   162   160   ar
   196   162   164   ar
   197   160   158   ar
   198   151   152    1
   199   220   219    2
   200    90    91    1
   201   156   158   ar
   202   156   155    1
   203   164   163   ar
   204   204   205    1
   205   158   161   ar
   206   152   155    1
   207   152   153    1
   208   181   180    1
   209   175   174    2
   210    91    92    1
   211    91    94    1
   212   163   161   ar
   213   154   153    2
   214    92    93    2
   215   207   206   ar
   216   205   206    1
   217   176   177    1
   218   176   173    1
   219   178   177    1
   220   178   179    1
   221   174   173    1
   222   180   179    2
   223   180   182    1
   224   206   208   ar
   225    94    95    1
   226   173   172    1
   227    99    98    1
   228   170   169    1
   229    98   100    1
   230    98    97    2
   231    95    96    1
   232    96    97    1
   233   165   166    1
   234   169   166    1
   235   169   171    1
   236   166   167    1
   237   167   168    2
