@<TRIPOS>MOLECULE
tmp/3waxA01.pdb
 208 209 0 0 0
SMALL
GASTEIGER

@<TRIPOS>ATOM
      1  N         13.9870   41.6030   -0.3120 N.3   170  LEU170     -0.1231
      2  CA        14.8690   42.6630   -0.7950 C.3   170  LEU170      0.1693
      3  C         16.3300   42.4750   -0.3700 C.2   170  LEU170      0.2592
      4  O         16.5940   41.9810    0.7170 O.2   170  LEU170     -0.2718
      5  CB        14.3840   44.0030   -0.2630 C.3   170  LEU170      0.0284
      6  CG        13.0490   44.5390   -0.7860 C.3   170  LEU170      0.0019
      7  CD1       12.5980   45.7140    0.0640 C.3   170  LEU170      0.0001
      8  CD2       13.2110   44.9710   -2.2160 C.3   170  LEU170      0.0001
      9  N         17.2620   42.8810   -1.2330 N.am  171  TYR171     -0.1976
     10  CA        18.6610   43.0110   -0.8280 C.3   171  TYR171      0.1639
     11  C         18.7720   44.0740    0.2700 C.2   171  TYR171      0.2290
     12  O         18.0030   45.0410    0.2850 O.2   171  TYR171     -0.2864
     13  CB        19.5440   43.4370   -1.9990 C.3   171  TYR171      0.0560
     14  CG        19.5330   42.5240   -3.1920 C.ar  171  TYR171     -0.0198
     15  CD1       19.9970   41.2140   -3.0930 C.ar  171  TYR171     -0.0009
     16  CD2       19.1140   42.9870   -4.4390 C.ar  171  TYR171     -0.0009
     17  CE1       20.0200   40.3850   -4.1980 C.ar  171  TYR171      0.0417
     18  CE2       19.1370   42.1610   -5.5580 C.ar  171  TYR171      0.0417
     19  CZ        19.5850   40.8580   -5.4270 C.ar  171  TYR171      0.1957
     20  OH        19.6040   40.0140   -6.5150 O.3   171  TYR171     -0.2866
     21  N         20.8240   46.4630    0.5420 N.3   173  GLU173     -0.1231
     22  CA        21.0610   47.8120    0.0340 C.3   173  GLU173      0.1699
     23  C         19.7080   48.4860   -0.2530 C.2   173  GLU173      0.2593
     24  O         19.6130   49.7040   -0.2570 O.2   173  GLU173     -0.2718
     25  CB        21.9480   47.8160   -1.2220 C.3   173  GLU173      0.0402
     26  CG        21.2470   47.2800   -2.4560 C.3   173  GLU173      0.1161
     27  CD        22.1300   47.2250   -3.6830 C.2   173  GLU173      0.3649
     28  OE1       23.2800   47.7400   -3.6520 O.co2 173  GLU173     -0.2457
     29  OE2       21.6610   46.6510   -4.6890 O.co2 173  GLU173     -0.2457
     30  N         18.6710   47.6730   -0.4690 N.am  174  SER174     -0.1938
     31  CA        17.3330   48.1830   -0.7490 C.3   174  SER174      0.2055
     32  C         16.4600   48.3210    0.4940 C.2   174  SER174      0.2643
     33  O         15.8010   49.3350    0.6680 O.2   174  SER174     -0.2714
     34  CB        16.6100   47.3300   -1.8020 C.3   174  SER174      0.2130
     35  OG        17.0960   47.5900   -3.1040 O.3   174  SER174     -0.2179
     36  N         16.4340   47.3170    1.3640 N.am  175  HIS175     -0.1959
     37  CA        15.6300   47.4600    2.5830 C.3   175  HIS175      0.1787
     38  C         16.2340   48.3420    3.6760 C.2   175  HIS175      0.2620
     39  O         15.5370   48.7480    4.6030 O.2   175  HIS175     -0.2715
     40  CB        15.1180   46.1140    3.1280 C.3   175  HIS175      0.0785
     41  CG        16.1790   45.1660    3.6070 C.ar  175  HIS175      0.0821
     42  ND1       17.0680   45.4750    4.6130 N.ar  175  HIS175     -0.2267
     43  CD2       16.4240   43.8740    3.2750 C.ar  175  HIS175      0.1154
     44  CE1       17.8440   44.4330    4.8470 C.ar  175  HIS175      0.1986
     45  NE2       17.4720   43.4440    4.0520 N.ar  175  HIS175     -0.2212
     46  N         17.5290   48.6260    3.5680 N.am  176  GLY176     -0.1954
     47  CA        18.1790   49.5710    4.4620 C.3   176  GLY176      0.1869
     48  C         18.9220   48.9770    5.6510 C.2   176  GLY176      0.2309
     49  O         19.6930   49.6730    6.3190 O.2   176  GLY176     -0.2863
     50  N         21.0090   60.8920    8.8580 N.3   187  PHE187     -0.1241
     51  CA        20.4550   60.9420   10.2060 C.3   187  PHE187      0.1605
     52  C         21.5330   61.4000   11.1790 C.2   187  PHE187      0.2264
     53  O         21.2240   61.8550   12.2770 O.2   187  PHE187     -0.2867
     54  CB        19.9960   59.5560   10.6980 C.3   187  PHE187      0.0534
     55  CG        18.8920   58.9230    9.8900 C.ar  187  PHE187     -0.0203
     56  CD1       18.1250   59.6600    9.0020 C.ar  187  PHE187     -0.0042
     57  CD2       18.6170   57.5680   10.0430 C.ar  187  PHE187     -0.0042
     58  CE1       17.1080   59.0530    8.2720 C.ar  187  PHE187     -0.0003
     59  CE2       17.6040   56.9620    9.3210 C.ar  187  PHE187     -0.0003
     60  CZ        16.8540   57.7020    8.4320 C.ar  187  PHE187     -0.0000
     61  N         12.3090   54.6080   10.9700 N.3   202  ARG202     -0.1231
     62  CA        13.0330   55.2780    9.8850 C.3   202  ARG202      0.1694
     63  C         14.1610   54.4330    9.2790 C.2   202  ARG202      0.2592
     64  O         14.6010   54.6870    8.1590 O.2   202  ARG202     -0.2718
     65  CB        13.5700   56.6480   10.3310 C.3   202  ARG202      0.0321
     66  CG        14.6570   56.5920   11.4020 C.3   202  ARG202      0.0489
     67  CD        15.1870   57.9890   11.7270 C.3   202  ARG202      0.2205
     68  NE        16.1230   57.9660   12.8500 N.pl3 202  ARG202     -0.0865
     69  CZ        16.8550   59.0020   13.2530 C.cat 202  ARG202      0.5346
     70  NH1       16.7750   60.1720   12.6300 N.pl3 202  ARG202      0.1354
     71  NH2       17.6730   58.8650   14.2880 N.pl3 202  ARG202      0.1354
     72  N         14.6290   53.4300   10.0100 N.am  203  TRP203     -0.1962
     73  CA        15.6960   52.5770    9.4870 C.3   203  TRP203      0.1771
     74  C         15.1710   51.5440    8.4900 C.2   203  TRP203      0.2620
     75  O         15.8700   51.1570    7.5610 O.2   203  TRP203     -0.2715
     76  CB        16.4110   51.8450   10.6240 C.3   203  TRP203      0.0590
     77  CG        17.1820   52.7390   11.5370 C.ar  203  TRP203      0.0006
     78  CD1       16.7610   53.2430   12.7240 C.ar  203  TRP203      0.0946
     79  CD2       18.5180   53.2260   11.3440 C.ar  203  TRP203      0.0152
     80  NE1       17.7470   54.0170   13.2850 N.ar  203  TRP203     -0.2442
     81  CE2       18.8350   54.0250   12.4570 C.ar  203  TRP203      0.0810
     82  CE3       19.4730   53.0620   10.3420 C.ar  203  TRP203      0.0012
     83  CZ2       20.0710   54.6540   12.6030 C.ar  203  TRP203      0.0191
     84  CZ3       20.7010   53.6970   10.4800 C.ar  203  TRP203      0.0001
     85  CH2       20.9860   54.4820   11.6040 C.ar  203  TRP203      0.0015
     86  N         13.9400   51.0930    8.7020 N.am  204  TRP204     -0.1960
     87  CA        13.4280   49.9090    8.0160 C.3   204  TRP204      0.1771
     88  C         12.6480   50.2570    6.7480 C.2   204  TRP204      0.2620
     89  O         11.6180   50.9130    6.8250 O.2   204  TRP204     -0.2715
     90  CB        12.5670   49.0810    8.9930 C.3   204  TRP204      0.0590
     91  CG        13.2600   48.8330   10.3330 C.ar  204  TRP204      0.0006
     92  CD1       13.4240   49.7340   11.3600 C.ar  204  TRP204      0.0946
     93  CD2       13.8910   47.6210   10.7700 C.ar  204  TRP204      0.0152
     94  NE1       14.1190   49.1550   12.3990 N.ar  204  TRP204     -0.2442
     95  CE2       14.4140   47.8590   12.0650 C.ar  204  TRP204      0.0810
     96  CE3       14.0610   46.3580   10.1980 C.ar  204  TRP204      0.0012
     97  CZ2       15.0890   46.8810   12.7900 C.ar  204  TRP204      0.0191
     98  CZ3       14.7330   45.3830   10.9260 C.ar  204  TRP204      0.0001
     99  CH2       15.2420   45.6540   12.2040 C.ar  204  TRP204      0.0015
    100  N         13.1370   49.8120    5.5910 N.am  205  GLY205     -0.1940
    101  CA        12.4810   50.0740    4.3170 C.3   205  GLY205      0.2014
    102  C         11.7590   48.8640    3.7400 C.2   205  GLY205      0.2639
    103  O         11.6800   47.8180    4.3760 O.2   205  GLY205     -0.2714
    104  N         11.2410   49.0010    2.5250 N.am  206  GLY206     -0.1954
    105  CA        10.4650   47.9410    1.9040 C.3   206  GLY206      0.1869
    106  C          9.1780   47.6380    2.6640 C.2   206  GLY206      0.2309
    107  O          8.7270   48.4320    3.4800 O.2   206  GLY206     -0.2863
    108  N         25.4280   42.6800   -4.5410 N.3   383  HIS383     -0.1241
    109  CA        24.4070   43.7470   -4.5310 C.3   383  HIS383      0.1621
    110  C         24.5360   44.6290   -3.2950 C.2   383  HIS383      0.2264
    111  O         23.5530   44.9610   -2.6360 O.2   383  HIS383     -0.2867
    112  CB        22.9850   43.1660   -4.6660 C.3   383  HIS383      0.0745
    113  CG        22.7680   42.4240   -5.9490 C.ar  383  HIS383      0.0817
    114  ND1       22.5290   43.0670   -7.1470 N.ar  383  HIS383     -0.2268
    115  CD2       22.8050   41.0990   -6.2380 C.ar  383  HIS383      0.1154
    116  CE1       22.4190   42.1730   -8.1110 C.ar  383  HIS383      0.1986
    117  NE2       22.5790   40.9700   -7.5880 N.ar  383  HIS383     -0.2212
    118  N         24.4950   50.2570   -3.1830 N.3   386  ASN386     -0.1225
    119  CA        23.5720   51.3700   -3.4010 C.3   386  ASN386      0.1785
    120  C         22.7750   51.7620   -2.1660 C.2   386  ASN386      0.2597
    121  O         21.5560   51.6020   -2.1270 O.2   386  ASN386     -0.2718
    122  CB        22.6310   51.0780   -4.5750 C.3   386  ASN386      0.1169
    123  CG        21.7130   52.2470   -4.8890 C.2   386  ASN386      0.2627
    124  OD1       22.1040   53.4050   -4.7450 O.2   386  ASN386     -0.2716
    125  ND2       20.4790   51.9480   -5.3010 N.am  386  ASN386     -0.0877
    126  N         23.4730   52.2980   -1.1700 N.am  387  ASN387     -0.1960
    127  CA        22.8550   52.7720    0.0650 C.3   387  ASN387      0.1819
    128  C         23.8600   53.6600    0.7890 C.2   387  ASN387      0.2621
    129  O         25.0260   53.2890    0.9240 O.2   387  ASN387     -0.2715
    130  CB        22.4690   51.5850    0.9520 C.3   387  ASN387      0.1195
    131  CG        21.4710   51.9630    2.0370 C.2   387  ASN387      0.2630
    132  OD1       21.8000   52.7040    2.9600 O.2   387  ASN387     -0.2716
    133  ND2       20.2440   51.4600    1.9210 N.am  387  ASN387     -0.0877
    134  N         23.4120   54.8230    1.2590 N.am  388  ARG388     -0.1963
    135  CA        24.2970   55.7730    1.9380 C.3   388  ARG388      0.1729
    136  C         24.8890   55.2200    3.2410 C.2   388  ARG388      0.2616
    137  O         25.8600   55.7630    3.7840 O.2   388  ARG388     -0.2715
    138  CB        23.5590   57.0920    2.2080 C.3   388  ARG388      0.0348
    139  CG        22.4520   56.9610    3.2290 C.3   388  ARG388      0.0492
    140  CD        21.4500   58.1120    3.1520 C.3   388  ARG388      0.2205
    141  NE        20.5180   58.0600    4.2730 N.pl3 388  ARG388     -0.0865
    142  CZ        19.2960   58.5770    4.2630 C.cat 388  ARG388      0.5346
    143  NH1       18.8300   59.1940    3.1820 N.pl3 388  ARG388      0.1354
    144  NH2       18.5400   58.4730    5.3390 N.pl3 388  ARG388      0.1354
    145  N         24.3120   54.1310    3.7370 N.am  389  ARG389     -0.1977
    146  CA        24.7610   53.5220    4.9840 C.3   389  ARG389      0.1597
    147  C         25.9190   52.5460    4.7730 C.2   389  ARG389      0.2287
    148  O         26.4630   52.0020    5.7330 O.2   389  ARG389     -0.2864
    149  CB        23.6060   52.7610    5.6340 C.3   389  ARG389      0.0334
    150  CG        22.5160   53.6650    6.1740 C.3   389  ARG389      0.0492
    151  CD        21.2450   52.8960    6.4950 C.3   389  ARG389      0.2205
    152  NE        20.1490   53.8330    6.7340 N.pl3 389  ARG389     -0.0865
    153  CZ        18.8820   53.4770    6.9180 C.cat 389  ARG389      0.5346
    154  NH1       18.5410   52.1930    6.8760 N.pl3 389  ARG389      0.1354
    155  NH2       17.9530   54.4080    7.1270 N.pl3 389  ARG389      0.1354
    156  N          6.8980   45.0570   -4.5610 N.3   462  PRO462     -0.2102
    157  CA         8.0670   44.9800   -5.4460 C.3   462  PRO462      0.1504
    158  C          9.3030   44.4900   -4.6820 C.2   462  PRO462      0.2576
    159  O          9.6230   45.0080   -3.6150 O.2   462  PRO462     -0.2718
    160  CB         8.2610   46.4310   -5.8820 C.3   462  PRO462      0.0282
    161  CG         6.8860   47.0140   -5.8350 C.3   462  PRO462      0.0208
    162  CD         6.2200   46.3660   -4.6490 C.3   462  PRO462      0.0893
    163  N          9.9600   43.4660   -5.2000 N.am  463  ASN463     -0.1961
    164  CA        11.1130   42.9240   -4.5070 C.3   463  ASN463      0.1819
    165  C         12.1300   42.3060   -5.4530 C.2   463  ASN463      0.2621
    166  O         11.9840   42.3800   -6.6740 O.2   463  ASN463     -0.2715
    167  CB        10.6860   41.9250   -3.4240 C.3   463  ASN463      0.1195
    168  CG        10.0630   40.6720   -4.0040 C.2   463  ASN463      0.2630
    169  OD1       10.7590   39.7160   -4.3280 O.2   463  ASN463     -0.2716
    170  ND2        8.7420   40.6770   -4.1390 N.am  463  ASN463     -0.0877
    171  N         13.1720   41.7050   -4.8890 N.am  464  ASN464     -0.1972
    172  CA        14.2770   41.2390   -5.7230 C.3   464  ASN464      0.1688
    173  C         14.2400   39.7560   -6.0790 C.2   464  ASN464      0.2292
    174  O         15.0680   39.2870   -6.8440 O.2   464  ASN464     -0.2864
    175  CB        15.6050   41.6270   -5.0880 C.3   464  ASN464      0.1181
    176  CG        15.7520   43.1310   -4.9630 C.2   464  ASN464      0.2629
    177  OD1       15.9510   43.6660   -3.8660 O.2   464  ASN464     -0.2716
    178  ND2       15.6610   43.8240   -6.1100 N.am  464  ASN464     -0.0877
    179  N         23.8540   50.8930   -8.8940 N.3   673  ASN673     -0.1225
    180  CA        22.5470   50.4820   -8.3760 C.3   673  ASN673      0.1785
    181  C         22.1320   49.0880   -8.8840 C.2   673  ASN673      0.2598
    182  O         21.0530   48.5870   -8.5610 O.2   673  ASN673     -0.2718
    183  CB        21.4570   51.5340   -8.6530 C.3   673  ASN673      0.1169
    184  CG        21.1490   51.7070  -10.1410 C.2   673  ASN673      0.2627
    185  OD1       21.7770   51.0920  -11.0030 O.2   673  ASN673     -0.2716
    186  ND2       20.1530   52.5390  -10.4400 N.am  673  ASN673     -0.0877
    187  N         23.0030   48.4600   -9.6630 N.am  674  GLY674     -0.1942
    188  CA        22.7220   47.1330  -10.1870 C.3   674  GLY674      0.2014
    189  C         21.7280   47.1510  -11.3340 C.2   674  GLY674      0.2638
    190  O         21.2010   46.1110  -11.7240 O.2   674  GLY674     -0.2714
    191  N         21.4780   48.3330  -11.8830 N.am  675  LEU675     -0.1977
    192  CA        20.5060   48.4880  -12.9600 C.3   675  LEU675      0.1596
    193  C         21.1400   49.1760  -14.1700 C.2   675  LEU675      0.2287
    194  O         21.9770   50.0570  -14.0140 O.2   675  LEU675     -0.2864
    195  CB        19.3040   49.3030  -12.4760 C.3   675  LEU675      0.0297
    196  CG        18.5070   48.7970  -11.2680 C.3   675  LEU675      0.0022
    197  CD1       17.3810   49.7550  -10.9540 C.3   675  LEU675      0.0001
    198  CD2       17.9640   47.4080  -11.5200 C.3   675  LEU675      0.0001
    199  N         19.1420   42.5810  -15.1250 N.3   761  HIS761     -0.1241
    200  CA        18.9620   43.8690  -14.4510 C.3   761  HIS761      0.1621
    201  C         19.9230   44.9230  -14.9940 C.2   761  HIS761      0.2264
    202  O         19.5620   46.0810  -15.1480 O.2   761  HIS761     -0.2867
    203  CB        19.2270   43.7460  -12.9490 C.3   761  HIS761      0.0745
    204  CG        18.2230   42.9110  -12.2110 C.ar  761  HIS761      0.0817
    205  ND1       16.8810   42.9060  -12.5220 N.ar  761  HIS761     -0.2268
    206  CD2       18.3690   42.0600  -11.1650 C.ar  761  HIS761      0.1154
    207  CE1       16.2430   42.0870  -11.7040 C.ar  761  HIS761      0.1986
    208  NE2       17.1250   41.5580  -10.8730 N.ar  761  HIS761     -0.2212
@<TRIPOS>BOND
     1   202   201    2
     2   199   200    1
     3   201   200    1
     4   200   203    1
     5   193   194    2
     6   193   192    1
     7   192   195    1
     8   192   191    1
     9   203   204    1
    10   205   204   ar
    11   205   207   ar
    12   195   196    1
    13   204   206   ar
    14   191   189   am
    15   190   189    2
    16   207   208   ar
    17   198   196    1
    18   189   188    1
    19   196   197    1
    20   206   208   ar
    21   185   184    2
    22   186   184   am
    23   188   187    1
    24   184   183    1
    25   187   181   am
    26   179   180    1
    27   181   182    2
    28   181   180    1
    29   183   180    1
    30   116   117   ar
    31   116   114   ar
    32   117   115   ar
    33   114   113   ar
    34   174   173    2
    35   166   165    2
    36    20    19    1
    37   115   113   ar
    38   178   176   am
    39   173   172    1
    40   113   112    1
    41   160   161    1
    42   160   157    1
    43   161   162    1
    44   172   175    1
    45   172   171    1
    46    18    19   ar
    47    18    16   ar
    48   165   171   am
    49   165   164    1
    50   157   158    1
    51   157   156    1
    52    19    17   ar
    53   125   123   am
    54   163   158   am
    55   163   164    1
    56   175   176    1
    57   176   177    2
    58   123   124    2
    59   123   122    1
    60    29    27   ar
    61   158   159    2
    62   112   109    1
    63   162   156    1
    64   122   119    1
    65   108   109    1
    66   109   110    1
    67   164   167    1
    68    16    14   ar
    69   169   168    2
    70    17    15   ar
    71   170   168   am
    72   168   167    1
    73    27    28   ar
    74    27    26    1
    75   119   118    1
    76   119   120    1
    77   110   111    2
    78    14    15   ar
    79    14    13    1
    80    35    34    1
    81    26    25    1
    82     8     6    1
    83   120   121    2
    84   120   126   am
    85    13    10    1
    86    34    31    1
    87     9    10    1
    88     9     3   am
    89    25    22    1
    90   126   127    1
    91    10    11    1
    92     2     3    1
    93     2     1    1
    94     2     5    1
    95     6     5    1
    96     6     7    1
    97    31    30    1
    98    31    32    1
    99    30    23   am
   100     3     4    2
   101    24    23    2
   102    23    22    1
   103    22    21    1
   104   127   128    1
   105   127   130    1
   106    11    12    2
   107    32    33    2
   108    32    36   am
   109   128   129    2
   110   128   134   am
   111   130   131    1
   112   134   135    1
   113    36    37    1
   114   105   104    1
   115   105   106    1
   116   133   131   am
   117   135   138    1
   118   135   136    1
   119   131   132    2
   120   138   139    1
   121   104   102   am
   122    37    40    1
   123    37    38    1
   124   106   107    2
   125    40    41    1
   126   140   139    1
   127   140   141    1
   128   143   142    1
   129   136   145   am
   130   136   137    2
   131    43    41   ar
   132    43    45   ar
   133    46    38   am
   134    46    47    1
   135    41    42   ar
   136    38    39    2
   137   145   146    1
   138   102   101    1
   139   102   103    2
   140    45    44   ar
   141   142   141    2
   142   142   144    1
   143   101   100    1
   144    47    48    1
   145    42    44   ar
   146   147   146    1
   147   147   148    2
   148   146   149    1
   149   100    88   am
   150   149   150    1
   151    48    49    2
   152   150   151    1
   153   151   152    1
   154   152   153    2
   155    88    89    2
   156    88    87    1
   157   154   153    1
   158   153   155    1
   159    75    74    2
   160    87    86    1
   161    87    90    1
   162    64    63    2
   163    58    60   ar
   164    58    56   ar
   165    60    59   ar
   166    74    86   am
   167    74    73    1
   168    50    51    1
   169    90    91    1
   170    56    55   ar
   171    63    62    1
   172    63    72   am
   173    59    57   ar
   174    73    72    1
   175    73    76    1
   176    62    65    1
   177    62    61    1
   178    55    57   ar
   179    55    54    1
   180    96    93   ar
   181    96    98   ar
   182    51    54    1
   183    51    52    1
   184    65    66    1
   185    91    93   ar
   186    91    92   ar
   187    82    84   ar
   188    82    79   ar
   189    84    85   ar
   190    76    77    1
   191    93    95   ar
   192    98    99   ar
   193    52    53    2
   194    79    77   ar
   195    79    81   ar
   196    92    94   ar
   197    66    67    1
   198    77    78   ar
   199    85    83   ar
   200    67    68    1
   201    95    94   ar
   202    95    97   ar
   203    99    97   ar
   204    81    83   ar
   205    81    80   ar
   206    70    69    1
   207    78    80   ar
   208    68    69    2
   209    69    71    1
