@<TRIPOS>MOLECULE
tmp/3wazB00.pdb
 91 90 0 0 0
SMALL
GASTEIGER

@<TRIPOS>ATOM
      1  N         37.3690   24.2050   19.8940 N.3    58  GLN58      -0.1231
      2  CA        38.8240   24.1050   19.9140 C.3    58  GLN58       0.1698
      3  C         39.2230   22.9780   20.8560 C.2    58  GLN58       0.2592
      4  O         39.6240   23.2100   21.9970 O.2    58  GLN58      -0.2718
      5  CB        39.4700   25.4250   20.3360 C.3    58  GLN58       0.0381
      6  CG        40.9720   25.4600   20.1030 C.3    58  GLN58       0.0905
      7  CD        41.5620   26.8430   20.2780 C.2    58  GLN58       0.2608
      8  OE1       40.8660   27.7860   20.6520 O.2    58  GLN58      -0.2717
      9  NE2       42.8540   26.9730   20.0030 N.am   58  GLN58      -0.0878
     10  N         39.1040   21.7550   20.3480 N.am   59  ILE59      -0.1966
     11  CA        39.2450   20.5360   21.1370 C.3    59  ILE59       0.1727
     12  C         40.6040   20.4100   21.8290 C.2    59  ILE59       0.2617
     13  O         41.6160   20.9070   21.3360 O.2    59  ILE59      -0.2715
     14  CB        38.9690   19.2900   20.2570 C.3    59  ILE59       0.0290
     15  CG1       38.6530   18.0650   21.1160 C.3    59  ILE59       0.0022
     16  CG2       40.1250   19.0320   19.2960 C.3    59  ILE59       0.0023
     17  CD1       38.1470   16.8840   20.3180 C.3    59  ILE59       0.0001
     18  N         40.6070   19.7520   22.9840 N.am   60  SER60      -0.1936
     19  CA        41.8210   19.5420   23.7630 C.3    60  SER60       0.2055
     20  C         42.2360   18.0760   23.7050 C.2    60  SER60       0.2643
     21  O         41.4620   17.2280   23.2620 O.2    60  SER60      -0.2714
     22  CB        41.5830   19.9520   25.2170 C.3    60  SER60       0.2130
     23  OG        41.1430   21.2960   25.3060 O.3    60  SER60      -0.2179
     24  N         43.4550   17.7770   24.1450 N.am   61  TYR61      -0.1959
     25  CA        43.8980   16.3850   24.2270 C.3    61  TYR61       0.1771
     26  C         44.8660   16.0980   25.3780 C.2    61  TYR61       0.2619
     27  O         45.1710   14.9390   25.6580 O.2    61  TYR61      -0.2715
     28  CB        44.4720   15.8890   22.8880 C.3    61  TYR61       0.0574
     29  CG        45.7420   16.5680   22.4090 C.ar   61  TYR61      -0.0198
     30  CD1       46.9670   16.3140   23.0170 C.ar   61  TYR61      -0.0009
     31  CD2       45.7220   17.4290   21.3190 C.ar   61  TYR61      -0.0009
     32  CE1       48.1260   16.9210   22.5730 C.ar   61  TYR61       0.0417
     33  CE2       46.8800   18.0370   20.8660 C.ar   61  TYR61       0.0417
     34  CZ        48.0770   17.7800   21.4970 C.ar   61  TYR61       0.1957
     35  OH        49.2310   18.3850   21.0520 O.3    61  TYR61      -0.2866
     36  N         45.3460   17.1440   26.0420 N.am   62  ALA62      -0.1977
     37  CA        46.3210   16.9640   27.1150 C.3    62  ALA62       0.1597
     38  C         45.9320   17.6670   28.4130 C.2    62  ALA62       0.2287
     39  O         45.2950   18.7210   28.3980 O.2    62  ALA62      -0.2864
     40  CB        47.7010   17.4150   26.6590 C.3    62  ALA62       0.0319
     41  N         50.3300   30.5490   16.2330 N.3   154  GLN154     -0.1231
     42  CA        50.3990   29.0930   16.1980 C.3   154  GLN154      0.1698
     43  C         49.1420   28.5050   15.5650 C.2   154  GLN154      0.2593
     44  O         48.1060   29.1660   15.4890 O.2   154  GLN154     -0.2718
     45  CB        50.6120   28.5240   17.6020 C.3   154  GLN154      0.0381
     46  CG        49.4930   28.8300   18.5800 C.3   154  GLN154      0.0905
     47  CD        49.7360   28.2260   19.9500 C.2   154  GLN154      0.2608
     48  OE1       49.2490   27.1360   20.2580 O.2   154  GLN154     -0.2717
     49  NE2       50.4930   28.9340   20.7830 N.am  154  GLN154     -0.0878
     50  N         49.2430   27.2620   15.1040 N.am  155  SER155     -0.1938
     51  CA        48.1250   26.5930   14.4490 C.3   155  SER155      0.2055
     52  C         47.0130   26.2500   15.4350 C.2   155  SER155      0.2643
     53  O         47.2560   25.6230   16.4650 O.2   155  SER155     -0.2714
     54  CB        48.6040   25.3210   13.7470 C.3   155  SER155      0.2130
     55  OG        49.6070   25.6150   12.7910 O.3   155  SER155     -0.2179
     56  N         45.7930   26.6640   15.1120 N.am  156  MET156     -0.1962
     57  CA        44.6370   26.3520   15.9420 C.3   156  MET156      0.1736
     58  C         43.7630   25.3130   15.2540 C.2   156  MET156      0.2616
     59  O         43.4050   25.4680   14.0880 O.2   156  MET156     -0.2715
     60  CB        43.8150   27.6110   16.2160 C.3   156  MET156      0.0427
     61  CG        44.6230   28.7820   16.7390 C.3   156  MET156      0.0599
     62  SD        45.4720   28.4290   18.2870 S.3   156  MET156     -0.1393
     63  CE        46.0920   30.0580   18.6930 C.3   156  MET156      0.0692
     64  N         43.4220   24.2530   15.9790 N.am  157  VAL157     -0.1977
     65  CA        42.5650   23.2060   15.4370 C.3   157  VAL157      0.1596
     66  C         41.1460   23.3150   15.9860 C.2   157  VAL157      0.2287
     67  O         40.9310   23.2370   17.1950 O.2   157  VAL157     -0.2864
     68  CB        43.1250   21.8060   15.7400 C.3   157  VAL157      0.0276
     69  CG1       42.1550   20.7320   15.2730 C.3   157  VAL157      0.0022
     70  CG2       44.4810   21.6290   15.0800 C.3   157  VAL157      0.0022
     71  N         46.0820   17.5640   13.6740 N.3   197  PHE197     -0.1241
     72  CA        47.1450   17.8890   14.6150 C.3   197  PHE197      0.1605
     73  C         48.5070   17.4880   14.0580 C.2   197  PHE197      0.2264
     74  O         49.4780   18.2280   14.1930 O.2   197  PHE197     -0.2867
     75  CB        46.9000   17.2210   15.9690 C.3   197  PHE197      0.0534
     76  CG        45.8220   17.8780   16.7810 C.ar  197  PHE197     -0.0203
     77  CD1       46.0570   19.0860   17.4140 C.ar  197  PHE197     -0.0042
     78  CD2       44.5770   17.2880   16.9150 C.ar  197  PHE197     -0.0042
     79  CE1       45.0720   19.6960   18.1610 C.ar  197  PHE197     -0.0003
     80  CE2       43.5860   17.8950   17.6620 C.ar  197  PHE197     -0.0003
     81  CZ        43.8340   19.1000   18.2870 C.ar  197  PHE197     -0.0000
     82  N         52.8680   19.3480   17.6190 N.3   204  HIS204     -0.1241
     83  CA        51.6360   18.5950   17.7320 C.3   204  HIS204      0.1621
     84  C         51.8200   17.1450   17.2660 C.2   204  HIS204      0.2264
     85  O         51.2730   16.2250   17.8790 O.2   204  HIS204     -0.2867
     86  CB        50.5170   19.2600   16.9140 C.3   204  HIS204      0.0745
     87  CG        50.0220   20.5620   17.4700 C.ar  204  HIS204      0.0817
     88  ND1       49.6310   20.7060   18.7800 N.ar  204  HIS204     -0.2268
     89  CD2       49.8010   21.7600   16.8720 C.ar  204  HIS204      0.1154
     90  CE1       49.2170   21.9490   18.9770 C.ar  204  HIS204      0.1986
     91  NE2       49.3030   22.6030   17.8370 N.ar  204  HIS204     -0.2212
@<TRIPOS>BOND
     1    55    54    1
     2    71    72    1
     3    54    51    1
     4    73    74    2
     5    73    72    1
     6    59    58    2
     7    51    50    1
     8    51    52    1
     9    72    75    1
    10    70    68    1
    11    50    43   am
    12    56    52   am
    13    56    57    1
    14    58    57    1
    15    58    64   am
    16    69    68    1
    17    52    53    2
    18    65    68    1
    19    65    64    1
    20    65    66    1
    21    44    43    2
    22    43    42    1
    23    57    60    1
    24    75    76    1
    25    66    67    2
    26    42    41    1
    27    42    45    1
    28    60    61    1
    29    61    62    1
    30    76    78   ar
    31    76    77   ar
    32    89    87   ar
    33    89    91   ar
    34    86    87    1
    35    86    83    1
    36    78    80   ar
    37    84    83    1
    38    84    85    2
    39    77    79   ar
    40    87    88   ar
    41    45    46    1
    42    82    83    1
    43    80    81   ar
    44    91    90   ar
    45    79    81   ar
    46    62    63    1
    47    46    47    1
    48    88    90   ar
    49    16    14    1
    50     1     2    1
    51     2     5    1
    52     2     3    1
    53    47    48    2
    54    47    49   am
    55     9     7   am
    56     6     7    1
    57     6     5    1
    58    14    15    1
    59    14    11    1
    60     7     8    2
    61    17    15    1
    62    10     3   am
    63    10    11    1
    64     3     4    2
    65    33    31   ar
    66    33    34   ar
    67    35    34    1
    68    11    12    1
    69    31    29   ar
    70    13    12    2
    71    34    32   ar
    72    12    18   am
    73    29    28    1
    74    29    30   ar
    75    32    30   ar
    76    28    25    1
    77    18    19    1
    78    21    20    2
    79    20    19    1
    80    20    24   am
    81    19    22    1
    82    24    25    1
    83    25    26    1
    84    22    23    1
    85    26    27    2
    86    26    36   am
    87    36    37    1
    88    40    37    1
    89    37    38    1
    90    39    38    2
