@<TRIPOS>MOLECULE
tmp/3wb0C00.pdb
 161 155 0 0 0
SMALL
GASTEIGER

@<TRIPOS>ATOM
      1  N         23.6780   10.1220   39.8740 N.3    46  ASN46      -0.1240
      2  CA        24.3790   11.4030   39.8880 C.3    46  ASN46       0.1653
      3  C         23.8140   12.3040   40.9720 C.2    46  ASN46       0.2266
      4  O         22.6440   12.7370   40.9030 O.2    46  ASN46      -0.2867
      5  CB        24.3100   12.0860   38.4910 C.3    46  ASN46       0.1155
      6  CG        25.1450   13.3600   38.4090 C.2    46  ASN46       0.2627
      7  OD1       24.6510   14.4510   38.6590 O.2    46  ASN46      -0.2716
      8  ND2       26.4220   13.2190   38.0900 N.am   46  ASN46      -0.0877
      9  N         22.3020   16.1320   39.8750 N.3    49  LYS49      -0.1245
     10  CA        20.9890   15.9130   39.2580 C.3    49  LYS49       0.1561
     11  C         19.9080   15.4980   40.2890 C.2    49  LYS49       0.2260
     12  O         18.8170   16.0670   40.2860 O.2    49  LYS49      -0.2867
     13  CB        21.1010   14.8720   38.1060 C.3    49  LYS49       0.0271
     14  CG        22.0060   15.2680   36.9270 C.3    49  LYS49       0.0035
     15  CD        22.2500   14.1230   35.9330 C.3    49  LYS49       0.0206
     16  CE        21.0610   13.7700   35.0340 C.3    49  LYS49       0.1093
     17  NZ        21.4830   12.9360   33.8760 N.3    49  LYS49      -0.1314
     18  N         22.3010    4.7100   27.4550 N.3    76  ASP76      -0.1239
     19  CA        22.7050    5.5160   26.3290 C.3    76  ASP76       0.1674
     20  C         22.9930    4.7360   25.0650 C.2    76  ASP76       0.2266
     21  O         23.2950    5.3910   24.0340 O.2    76  ASP76      -0.2867
     22  CB        23.8550    6.5070   26.7070 C.3    76  ASP76       0.1410
     23  CG        23.4450    7.4150   27.8980 C.2    76  ASP76       0.3668
     24  OD1       22.2280    7.6150   28.0800 O.co2  76  ASP76      -0.2456
     25  OD2       24.2890    7.7790   28.7230 O.co2  76  ASP76      -0.2456
     26  N         16.1210    4.7830   30.9340 N.3    85  LYS85      -0.1245
     27  CA        16.5090    5.0310   32.3130 C.3    85  LYS85       0.1561
     28  C         15.3230    4.9200   33.3210 C.2    85  LYS85       0.2260
     29  O         15.4290    4.2970   34.3770 O.2    85  LYS85      -0.2867
     30  CB        17.1270    6.4430   32.4200 C.3    85  LYS85       0.0271
     31  CG        18.4680    6.6090   31.7260 C.3    85  LYS85       0.0035
     32  CD        18.9550    8.0470   32.0090 C.3    85  LYS85       0.0206
     33  CE        20.2320    8.4880   31.3350 C.3    85  LYS85       0.1093
     34  NZ        21.4320    7.8460   31.9290 N.3    85  LYS85      -0.1314
     35  N         16.1550   11.6790   33.5630 N.3   101  ARG101     -0.1231
     36  CA        16.6380   12.7140   32.6190 C.3   101  ARG101      0.1694
     37  C         17.8720   12.2040   31.8340 C.2   101  ARG101      0.2593
     38  O         18.8470   11.7420   32.4560 O.2   101  ARG101     -0.2718
     39  CB        17.0470   13.9880   33.3580 C.3   101  ARG101      0.0321
     40  CG        17.2090   15.2030   32.5120 C.3   101  ARG101      0.0489
     41  CD        18.6010   15.5890   32.1710 C.3   101  ARG101      0.2205
     42  NE        18.6270   16.8860   31.4400 N.pl3 101  ARG101     -0.0865
     43  CZ        19.7080   17.3720   30.8270 C.cat 101  ARG101      0.5346
     44  NH1       19.6680   18.5370   30.1800 N.pl3 101  ARG101      0.1354
     45  NH2       20.8500   16.6900   30.8740 N.pl3 101  ARG101      0.1354
     46  N         17.8330   12.2890   30.4960 N.am  102  GLY102     -0.1942
     47  CA        18.9170   11.7580   29.6680 C.3   102  GLY102      0.2014
     48  C         18.7550   12.2660   28.2630 C.2   102  GLY102      0.2635
     49  O         17.9770   13.1990   28.0310 O.2   102  GLY102     -0.2714
     50  N         19.5820   11.7660   27.3360 N.am  103  ARG103     -0.2030
     51  CA        19.3840   12.0640   25.9490 C.3   103  ARG103      0.1283
     52  C         18.0030   11.5790   25.4740 C.3   103  ARG103      0.2036
     53  O         17.5290   10.4430   25.8480 O.3   103  ARG103     -0.2185
     54  CB        20.5510   11.4890   25.1130 C.3   103  ARG103      0.0281
     55  CG        20.5600   11.8450   23.6230 C.3   103  ARG103      0.0488
     56  CD        21.8350   11.3650   22.9100 C.3   103  ARG103      0.2205
     57  NE        21.7840    9.9310   22.7240 N.pl3 103  ARG103     -0.0865
     58  CZ        22.7640    9.0610   23.0540 C.cat 103  ARG103      0.5346
     59  NH1       23.9050    9.4500   23.6590 N.pl3 103  ARG103      0.1354
     60  NH2       22.5740    7.7790   22.7980 N.pl3 103  ARG103      0.1354
     61  N         22.2690   10.1910   19.3900 N.3   107  PRO107     -0.2102
     62  CA        23.3070   11.1640   19.6690 C.3   107  PRO107      0.1504
     63  C         23.0770   12.4820   18.9010 C.2   107  PRO107      0.2576
     64  O         22.8550   12.4410   17.6650 O.2   107  PRO107     -0.2718
     65  CB        24.5960   10.4450   19.1540 C.3   107  PRO107      0.0282
     66  CG        24.3050    8.9810   19.2590 C.3   107  PRO107      0.0208
     67  CD        22.8150    8.8610   18.9820 C.3   107  PRO107      0.0893
     68  N         23.1060   13.6100   19.6100 N.am  108  GLY108     -0.1943
     69  CA        22.9070   14.9350   18.9780 C.3   108  GLY108      0.2014
     70  C         21.5480   15.5390   19.1930 C.2   108  GLY108      0.2640
     71  O         21.3620   16.7180   18.9470 O.2   108  GLY108     -0.2714
     72  N         20.6150   14.7560   19.7100 N.am  109  SER109     -0.1935
     73  CA        19.1690   15.0630   19.7660 C.3   109  SER109      0.2055
     74  C         18.7070   15.8560   21.0290 C.2   109  SER109      0.2644
     75  O         17.5370   16.1470   21.1920 O.2   109  SER109     -0.2714
     76  CB        18.3550   13.7680   19.6070 C.3   109  SER109      0.2130
     77  OG        18.5100   12.8920   20.6770 O.3   109  SER109     -0.2179
     78  N         19.6360   16.2070   21.9120 N.am  110  GLY110     -0.1939
     79  CA        19.3210   17.0190   23.0890 C.3   110  GLY110      0.2014
     80  C         18.7510   16.1610   24.1990 C.2   110  GLY110      0.2639
     81  O         18.8010   14.8510   24.1420 O.2   110  GLY110     -0.2714
     82  N         18.1730   16.8650   25.1980 N.am  111  SER111     -0.1949
     83  CA        17.7760   16.1680   26.4260 C.3   111  SER111      0.1924
     84  C         16.2490   15.9810   26.5900 C.2   111  SER111      0.2314
     85  O         15.4720   16.7410   26.0180 O.2   111  SER111     -0.2863
     86  CB        18.3320   16.9010   27.6240 C.3   111  SER111      0.2116
     87  OG        17.4890   18.0220   27.7970 O.3   111  SER111     -0.2180
     88  N         17.3070   21.8400   24.1610 N.3   129  PRO129     -0.2102
     89  CA        18.0390   21.6700   22.9190 C.3   129  PRO129      0.1504
     90  C         19.2940   20.9760   23.2210 C.2   129  PRO129      0.2576
     91  O         19.6340   20.9190   24.3860 O.2   129  PRO129     -0.2718
     92  CB        18.4040   23.1210   22.5400 C.3   129  PRO129      0.0282
     93  CG        17.3200   23.9600   23.1040 C.3   129  PRO129      0.0208
     94  CD        16.9300   23.2580   24.3980 C.3   129  PRO129      0.0893
     95  N         19.9920   20.4580   22.2060 N.am  130  SER130     -0.1938
     96  CA        21.3890   20.0010   22.3490 C.3   130  SER130      0.2055
     97  C         22.2700   21.0010   23.1110 C.2   130  SER130      0.2643
     98  O         22.3340   22.2050   22.7800 O.2   130  SER130     -0.2714
     99  CB        21.9760   19.7460   20.9720 C.3   130  SER130      0.2130
    100  OG        23.2520   19.2330   21.1120 O.3   130  SER130     -0.2179
    101  N         22.9430   20.4790   24.1370 N.am  131  SER131     -0.1949
    102  CA        23.8950   21.2330   24.9140 C.3   131  SER131      0.1924
    103  C         24.9580   21.8940   24.0030 C.2   131  SER131      0.2314
    104  O         25.5670   22.9010   24.3980 O.2   131  SER131     -0.2863
    105  CB        24.5570   20.3120   25.9450 C.3   131  SER131      0.2116
    106  OG        25.2530   19.2290   25.3260 O.3   131  SER131     -0.2180
    107  N         22.5910   25.3530   23.3480 N.3   134  HIS134     -0.1226
    108  CA        22.2740   26.1660   24.5420 C.3   134  HIS134      0.1752
    109  C         23.4610   26.4810   25.4940 C.2   134  HIS134      0.2596
    110  O         23.4900   27.5220   26.1520 O.2   134  HIS134     -0.2718
    111  CB        21.0260   25.6120   25.3100 C.3   134  HIS134      0.0759
    112  CG        21.2500   24.3440   26.1230 C.ar  134  HIS134      0.0818
    113  ND1       22.1600   24.2460   27.1640 N.ar  134  HIS134     -0.2268
    114  CD2       20.5990   23.1500   26.0980 C.ar  134  HIS134      0.1154
    115  CE1       22.0810   23.0410   27.7120 C.ar  134  HIS134      0.1986
    116  NE2       21.1400   22.3560   27.0860 N.ar  134  HIS134     -0.2212
    117  N         24.4040   25.5570   25.5750 N.am  135  LYS135     -0.1966
    118  CA        25.5400   25.5810   26.5220 C.3   135  LYS135      0.1728
    119  C         25.3550   26.0020   28.0060 C.2   135  LYS135      0.2616
    120  O         26.2760   26.5720   28.6020 O.2   135  LYS135     -0.2715
    121  CB        26.7200   26.2890   25.8810 C.3   135  LYS135      0.0311
    122  CG        27.1960   25.5280   24.6650 C.3   135  LYS135      0.0038
    123  CD        28.5380   26.0180   24.1630 C.3   135  LYS135      0.0206
    124  CE        29.4220   24.8080   24.0040 C.3   135  LYS135      0.1093
    125  NZ        29.3220   24.0610   25.2910 N.3   135  LYS135     -0.1314
    126  N         24.2200   25.6630   28.6160 N.am  136  GLU136     -0.1963
    127  CA        23.8850   26.0490   30.0130 C.3   136  GLU136      0.1733
    128  C         24.3910   25.0960   31.1190 C.2   136  GLU136      0.2616
    129  O         24.7070   23.9030   30.8840 O.2   136  GLU136     -0.2715
    130  CB        22.3650   26.2270   30.1530 C.3   136  GLU136      0.0429
    131  CG        21.8880   27.0650   31.3340 C.3   136  GLU136      0.1163
    132  CD        20.4840   27.6140   31.1550 C.2   136  GLU136      0.3649
    133  OE1       20.1320   28.5380   31.9330 O.co2 136  GLU136     -0.2457
    134  OE2       19.7400   27.1250   30.2500 O.co2 136  GLU136     -0.2457
    135  N         24.4680   25.6160   32.3420 N.am  137  ASP137     -0.1957
    136  CA        24.8160   24.7750   33.5030 C.3   137  ASP137      0.1840
    137  C         23.7830   23.6450   33.5290 C.2   137  ASP137      0.2621
    138  O         22.6050   23.9220   33.3990 O.2   137  ASP137     -0.2715
    139  CB        24.7270   25.5940   34.7960 C.3   137  ASP137      0.1450
    140  CG        25.5010   24.9620   35.9600 C.2   137  ASP137      0.3671
    141  OD1       25.0150   23.9770   36.5810 O.co2 137  ASP137     -0.2456
    142  OD2       26.5990   25.4820   36.2570 O.co2 137  ASP137     -0.2456
    143  N         24.2150   22.3890   33.6640 N.am  138  ILE138     -0.1977
    144  CA        23.2410   21.2950   33.6600 C.3   138  ILE138      0.1596
    145  C         22.1890   21.4820   34.7700 C.2   138  ILE138      0.2287
    146  O         21.0030   21.2040   34.5530 O.2   138  ILE138     -0.2864
    147  CB        23.8990   19.9010   33.7650 C.3   138  ILE138      0.0276
    148  CG1       22.8710   18.8090   33.3990 C.3   138  ILE138      0.0022
    149  CG2       24.5660   19.7320   35.1290 C.3   138  ILE138      0.0022
    150  CD1       23.4790   17.4340   33.0890 C.3   138  ILE138      0.0001
    151  N         19.5840   23.8260   33.7190 N.3   141  ARG141     -0.1245
    152  CA        18.8010   23.0900   32.7040 C.3   141  ARG141      0.1563
    153  C         17.7670   22.1710   33.3540 C.2   141  ARG141      0.2260
    154  O         16.5740   22.1780   32.9680 O.2   141  ARG141     -0.2867
    155  CB        19.7420   22.2530   31.8260 C.3   141  ARG141      0.0307
    156  CG        19.6440   22.3480   30.3010 C.3   141  ARG141      0.0489
    157  CD        19.2480   23.7030   29.7320 C.3   141  ARG141      0.2205
    158  NE        17.8180   23.6570   29.4040 N.pl3 141  ARG141     -0.0865
    159  CZ        17.0830   24.6280   28.8620 C.cat 141  ARG141      0.5346
    160  NH1       17.6080   25.8180   28.5680 N.pl3 141  ARG141      0.1354
    161  NH2       15.7940   24.3810   28.6160 N.pl3 141  ARG141      0.1354
@<TRIPOS>BOND
     1    64    63    2
     2    63    68   am
     3    63    62    1
     4    71    70    2
     5    69    70    1
     6    69    68    1
     7    67    66    1
     8    67    61    1
     9    65    66    1
    10    65    62    1
    11    70    72   am
    12    61    62    1
    13    76    73    1
    14    76    77    1
    15    72    73    1
    16    73    74    1
    17    99   100    1
    18    99    96    1
    19    74    75    2
    20    74    78   am
    21    78    79    1
    22    95    96    1
    23    95    90   am
    24    96    97    1
    25    92    89    1
    26    92    93    1
    27    57    56    1
    28    57    58    2
    29    98    97    2
    30    60    58    1
    31    56    55    1
    32    89    90    1
    33    89    88    1
    34    58    59    1
    35    79    80    1
    36    93    94    1
    37    97   101   am
    38    90    91    2
    39   107   108    1
    40    55    54    1
    41   103   104    2
    42   103   102    1
    43   124   123    1
    44   124   125    1
    45    21    20    2
    46   101   102    1
    47    81    80    2
    48    88    94    1
    49   123   122    1
    50    80    82   am
    51   108   111    1
    52   108   109    1
    53   122   121    1
    54   102   105    1
    55    20    19    1
    56    54    51    1
    57    82    83    1
    58   111   112    1
    59   106   105    1
    60    52    53    1
    61    52    51    1
    62   109   117   am
    63   109   110    2
    64   117   118    1
    65   121   118    1
    66    51    50    1
    67    85    84    2
    68   114   112   ar
    69   114   116   ar
    70   112   113   ar
    71    19    22    1
    72    19    18    1
    73    83    84    1
    74    83    86    1
    75   118   119    1
    76    22    23    1
    77   116   115   ar
    78   113   115   ar
    79    50    48   am
    80    86    87    1
    81    23    24   ar
    82    23    25   ar
    83   119   120    2
    84   119   126   am
    85    49    48    2
    86    48    47    1
    87   160   159    1
    88   126   127    1
    89   161   159    1
    90   159   158    2
    91   158   157    1
    92    47    46    1
    93   157   156    1
    94   127   130    1
    95   127   128    1
    96   130   131    1
    97    44    43    1
    98   134   132   ar
    99   156   155    1
   100    46    37   am
   101    43    45    1
   102    43    42    2
   103   129   128    2
   104    26    27    1
   105   128   135   am
   106   132   131    1
   107   132   133   ar
   108    33    34    1
   109    33    32    1
   110    42    41    1
   111    31    32    1
   112    31    30    1
   113   155   152    1
   114    37    38    2
   115    37    36    1
   116    41    40    1
   117    27    30    1
   118    27    28    1
   119   135   136    1
   120    40    39    1
   121    36    39    1
   122    36    35    1
   123   152   153    1
   124   152   151    1
   125   154   153    2
   126   150   148    1
   127    28    29    2
   128   148   147    1
   129   138   137    2
   130   136   137    1
   131   136   139    1
   132   137   143   am
   133   144   143    1
   134   144   147    1
   135   144   145    1
   136   147   149    1
   137    17    16    1
   138   146   145    2
   139   139   140    1
   140    16    15    1
   141    15    14    1
   142   140   142   ar
   143   140   141   ar
   144    14    13    1
   145     8     6   am
   146    13    10    1
   147     6     5    1
   148     6     7    2
   149     5     2    1
   150    10     9    1
   151    10    11    1
   152     1     2    1
   153     2     3    1
   154    12    11    2
   155     4     3    2
