@<TRIPOS>MOLECULE
tmp/3wb2A02.pdb
 109 103 0 0 0
SMALL
GASTEIGER

@<TRIPOS>ATOM
      1  N         30.9330  -18.0810    3.9920 N.3    43  ALA43      -0.1231
      2  CA        29.9450  -17.4380    3.0720 C.3    43  ALA43       0.1694
      3  C         28.8680  -16.8180    3.8460 C.2    43  ALA43       0.2593
      4  O         27.7560  -17.3350    3.9060 O.2    43  ALA43      -0.2718
      5  CB        29.3430  -18.4110    2.1030 C.3    43  ALA43       0.0304
      6  N         29.2310  -15.7160    4.4780 N.am   44  THR44      -0.1939
      7  CA        28.3190  -14.9350    5.3100 C.3    44  THR44       0.2028
      8  C         28.7160  -13.4480    5.1620 C.2    44  THR44       0.2642
      9  O         29.9110  -13.1370    4.8300 O.2    44  THR44      -0.2714
     10  CB        28.3560  -15.4060    6.7980 C.3    44  THR44       0.1808
     11  OG1       27.3410  -14.7290    7.5040 O.3    44  THR44      -0.2208
     12  CG2       29.6870  -15.0800    7.5210 C.3    44  THR44       0.0379
     13  N         27.7420  -12.5580    5.3890 N.am   45  ASN45      -0.1957
     14  CA        28.0100  -11.1180    5.5980 C.3    45  ASN45       0.1819
     15  C         27.7920  -10.7180    7.0670 C.2    45  ASN45       0.2621
     16  O         27.9230   -9.5550    7.4180 O.2    45  ASN45      -0.2715
     17  CB        27.1140  -10.1900    4.7350 C.3    45  ASN45       0.1195
     18  CG        27.0200  -10.6000    3.2710 C.2    45  ASN45       0.2630
     19  OD1       25.9300  -10.4920    2.6620 O.2    45  ASN45      -0.2716
     20  ND2       28.1510  -11.0390    2.6780 N.am   45  ASN45      -0.0877
     21  N         27.4390  -11.6590    7.9330 N.am   46  ASN46      -0.1958
     22  CA        27.2200  -11.3040    9.3090 C.3    46  ASN46       0.1819
     23  C         28.4890  -11.4270   10.1460 C.2    46  ASN46       0.2621
     24  O         28.9970  -12.5390   10.4020 O.2    46  ASN46      -0.2715
     25  CB        26.1030  -12.1650    9.9060 C.3    46  ASN46       0.1195
     26  CG        25.7160  -11.7340   11.3210 C.2    46  ASN46       0.2630
     27  OD1       25.1090  -12.5070   12.0490 O.2    46  ASN46      -0.2716
     28  ND2       26.0660  -10.5030   11.7070 N.am   46  ASN46      -0.0877
     29  N         28.9740  -10.2910   10.6250 N.am   47  GLN47      -0.1963
     30  CA        30.1700  -10.2430   11.4600 C.3    47  GLN47       0.1733
     31  C         30.0510  -11.0480   12.7730 C.2    47  GLN47       0.2616
     32  O         31.0530  -11.5500   13.3030 O.2    47  GLN47      -0.2715
     33  CB        30.5110   -8.7870   11.6960 C.3    47  GLN47       0.0408
     34  CG        31.9660   -8.4650   11.5250 C.3    47  GLN47       0.0908
     35  CD        32.6370   -8.5120   12.8650 C.2    47  GLN47       0.2608
     36  OE1       33.6680   -9.1690   13.0450 O.2    47  GLN47      -0.2717
     37  NE2       32.0270   -7.8370   13.8410 N.am   47  GLN47      -0.0878
     38  N         28.8310  -11.2460   13.2790 N.am   48  LYS48      -0.1963
     39  CA        28.6790  -12.0890   14.4550 C.3    48  LYS48       0.1728
     40  C         28.8530  -13.5640   14.1800 C.2    48  LYS48       0.2616
     41  O         29.4350  -14.2590   15.0060 O.2    48  LYS48      -0.2715
     42  CB        27.3110  -11.9320   15.1100 C.3    48  LYS48       0.0311
     43  CG        27.0850  -10.6230   15.8380 C.3    48  LYS48       0.0038
     44  CD        25.8390  -10.7390   16.6750 C.3    48  LYS48       0.0206
     45  CE        24.5780  -10.5600   15.8580 C.3    48  LYS48       0.1093
     46  NZ        23.6390   -9.8170   16.7330 N.3    48  LYS48      -0.1314
     47  N         28.2830  -14.0710   13.0860 N.am   49  LYS49      -0.1977
     48  CA        28.5120  -15.4640   12.7310 C.3    49  LYS49       0.1596
     49  C         29.9910  -15.6160   12.4250 C.2    49  LYS49       0.2287
     50  O         30.6120  -16.5790   12.9110 O.2    49  LYS49      -0.2864
     51  CB        27.7030  -15.9360   11.5080 C.3    49  LYS49       0.0298
     52  CG        26.1720  -15.8600   11.5370 C.3    49  LYS49       0.0038
     53  CD        25.6210  -16.3960   10.1920 C.3    49  LYS49       0.0206
     54  CE        24.0990  -16.2580   10.1330 C.3    49  LYS49       0.1093
     55  NZ        23.3990  -16.8860    8.9600 N.3    49  LYS49      -0.1314
     56  N         24.7550  -11.6840    0.2440 N.3    72  THR72      -0.1203
     57  CA        24.2980  -13.0780    0.3080 C.3    72  THR72       0.1994
     58  C         22.7460  -13.2080    0.4240 C.2    72  THR72       0.2617
     59  O         22.2100  -14.3120    0.3710 O.2    72  THR72      -0.2717
     60  CB        24.9070  -13.8350    1.5530 C.3    72  THR72       0.1784
     61  OG1       24.5440  -13.1470    2.7840 O.3    72  THR72      -0.2211
     62  CG2       26.4690  -14.0220    1.4750 C.3    72  THR72       0.0376
     63  N         22.0090  -12.1150    0.5800 N.am   73  ARG73      -0.1979
     64  CA        20.5950  -12.2890    0.8430 C.3    73  ARG73       0.1597
     65  C         19.7760  -12.9700   -0.2700 C.2    73  ARG73       0.2287
     66  O         18.6760  -13.4700   -0.0090 O.2    73  ARG73      -0.2864
     67  CB        19.9540  -10.9690    1.2040 C.3    73  ARG73       0.0334
     68  CG        19.5500  -10.1390    0.0160 C.3    73  ARG73       0.0492
     69  CD        19.0590   -8.8140    0.5520 C.3    73  ARG73       0.2205
     70  NE        18.3530   -8.0310   -0.4430 N.pl3  73  ARG73      -0.0865
     71  CZ        18.8970   -6.9960   -1.0660 C.cat  73  ARG73       0.5346
     72  NH1       20.1380   -6.6640   -0.7870 N.pl3  73  ARG73       0.1354
     73  NH2       18.2160   -6.2950   -1.9620 N.pl3  73  ARG73       0.1354
     74  N         18.1680  -16.6760   -0.3390 N.3    76  ASP76      -0.1239
     75  CA        16.9340  -16.9590    0.3420 C.3    76  ASP76       0.1674
     76  C         15.7650  -17.1190   -0.6560 C.2    76  ASP76       0.2266
     77  O         14.6830  -17.4370   -0.2310 O.2    76  ASP76      -0.2867
     78  CB        16.6900  -15.9500    1.4900 C.3    76  ASP76       0.1410
     79  CG        17.7850  -16.0240    2.6170 C.2    76  ASP76       0.3668
     80  OD1       18.4230  -17.1040    2.8260 O.co2  76  ASP76      -0.2456
     81  OD2       18.0010  -14.9870    3.3220 O.co2  76  ASP76      -0.2456
     82  N         24.5340  -20.5860   -0.7780 N.3    85  LYS85      -0.1245
     83  CA        25.5730  -19.6940   -0.2710 C.3    85  LYS85       0.1561
     84  C         26.9790  -20.2790   -0.3950 C.2    85  LYS85       0.2260
     85  O         27.9070  -19.6200   -0.9100 O.2    85  LYS85      -0.2867
     86  CB        25.3100  -19.3520    1.1920 C.3    85  LYS85       0.0271
     87  CG        24.4970  -18.1240    1.4030 C.3    85  LYS85       0.0035
     88  CD        24.2490  -17.8970    2.8970 C.3    85  LYS85       0.0206
     89  CE        22.8210  -17.4560    3.1590 C.3    85  LYS85       0.1093
     90  NZ        22.6360  -17.6200    4.6000 N.3    85  LYS85      -0.1314
     91  N         26.2560  -20.8190    6.5210 N.3   101  ARG101     -0.1245
     92  CA        25.1100  -21.0450    7.4210 C.3   101  ARG101      0.1563
     93  C         23.8580  -20.2550    7.0500 C.2   101  ARG101      0.2260
     94  O         23.8720  -19.0290    7.0990 O.2   101  ARG101     -0.2867
     95  CB        25.5180  -20.7330    8.8580 C.3   101  ARG101      0.0307
     96  CG        24.6430  -21.3880    9.9440 C.3   101  ARG101      0.0489
     97  CD        23.5020  -20.4850   10.3860 C.3   101  ARG101      0.2205
     98  NE        22.8690  -21.0050   11.5880 N.pl3 101  ARG101     -0.0865
     99  CZ        21.9380  -20.3530   12.2840 C.cat 101  ARG101      0.5346
    100  NH1       21.4510  -20.8960   13.3850 N.pl3 101  ARG101      0.1354
    101  NH2       21.5220  -19.1480   11.8900 N.pl3 101  ARG101      0.1354
    102  N         21.9740  -16.1860   18.8340 N.3   138  ILE138     -0.1245
    103  CA        22.5840  -16.7490   17.6390 C.3   138  ILE138      0.1561
    104  C         24.0290  -17.3030   17.7970 C.2   138  ILE138      0.2260
    105  O         24.3570  -18.3670   17.2200 O.2   138  ILE138     -0.2867
    106  CB        22.4250  -15.8390   16.3870 C.3   138  ILE138      0.0252
    107  CG1       22.5610  -16.6960   15.1120 C.3   138  ILE138      0.0019
    108  CG2       23.3740  -14.6440   16.4460 C.3   138  ILE138      0.0019
    109  CD1       22.3410  -15.9490   13.8110 C.3   138  ILE138      0.0001
@<TRIPOS>BOND
     1    73    71    1
     2    71    72    1
     3    71    70    2
     4    85    84    2
     5    82    83    1
     6    76    77    2
     7    76    75    1
     8    70    69    1
     9    84    83    1
    10    74    75    1
    11    83    86    1
    12    65    66    2
    13    65    64    1
    14    68    69    1
    15    68    67    1
    16    56    57    1
    17    57    58    1
    18    57    60    1
    19    75    78    1
    20    59    58    2
    21    58    63   am
    22    63    64    1
    23    64    67    1
    24    86    87    1
    25    87    88    1
    26    62    60    1
    27    78    79    1
    28    60    61    1
    29     5     2    1
    30    79    80   ar
    31    79    81   ar
    32    19    18    2
    33    20    18   am
    34    88    89    1
    35     2     3    1
    36     2     1    1
    37    89    90    1
    38    18    17    1
    39     3     4    2
    40     3     6   am
    41     6     7    1
    42    17    14    1
    43     9     8    2
    44     8     7    1
    45     8    13   am
    46     7    10    1
    47    13    14    1
    48    14    15    1
    49    91    92    1
    50    10    11    1
    51    10    12    1
    52    93    94    2
    53    93    92    1
    54    15    16    2
    55    15    21   am
    56    92    95    1
    57    21    22    1
    58    95    96    1
    59    55    54    1
    60    22    25    1
    61    22    23    1
    62    25    26    1
    63    96    97    1
    64    54    53    1
    65    23    24    2
    66    23    29   am
    67    53    52    1
    68    97    98    1
    69    29    30    1
    70    26    28   am
    71    26    27    2
    72    30    33    1
    73    30    31    1
    74    51    52    1
    75    51    48    1
    76    34    33    1
    77    34    35    1
    78    98    99    2
    79   101    99    1
    80    99   100    1
    81    49    48    1
    82    49    50    2
    83    48    47    1
    84    31    38   am
    85    31    32    2
    86    35    36    2
    87    35    37   am
    88    47    40   am
    89    38    39    1
    90   109   107    1
    91    40    39    1
    92    40    41    2
    93    39    42    1
    94    42    43    1
    95   107   106    1
    96    43    44    1
    97    45    44    1
    98    45    46    1
    99   106   108    1
   100   106   103    1
   101   105   104    2
   102   103   104    1
   103   103   102    1
