@<TRIPOS>MOLECULE
tmp/3wb2A01.pdb
 155 148 0 0 0
SMALL
GASTEIGER

@<TRIPOS>ATOM
      1  N         27.4390  -11.6590    7.9330 N.3    46  ASN46      -0.1240
      2  CA        27.2200  -11.3040    9.3090 C.3    46  ASN46       0.1653
      3  C         28.4890  -11.4270   10.1460 C.2    46  ASN46       0.2266
      4  O         28.9970  -12.5390   10.4020 O.2    46  ASN46      -0.2867
      5  CB        26.1030  -12.1650    9.9060 C.3    46  ASN46       0.1155
      6  CG        25.7160  -11.7340   11.3210 C.2    46  ASN46       0.2627
      7  OD1       25.1090  -12.5070   12.0490 O.2    46  ASN46      -0.2716
      8  ND2       26.0660  -10.5030   11.7070 N.am   46  ASN46      -0.0877
      9  N         28.2830  -14.0710   13.0860 N.3    49  LYS49      -0.1245
     10  CA        28.5120  -15.4640   12.7310 C.3    49  LYS49       0.1561
     11  C         29.9910  -15.6160   12.4250 C.2    49  LYS49       0.2260
     12  O         30.6120  -16.5790   12.9110 O.2    49  LYS49      -0.2867
     13  CB        27.7030  -15.9360   11.5080 C.3    49  LYS49       0.0271
     14  CG        26.1720  -15.8600   11.5370 C.3    49  LYS49       0.0035
     15  CD        25.6210  -16.3960   10.1920 C.3    49  LYS49       0.0206
     16  CE        24.0990  -16.2580   10.1330 C.3    49  LYS49       0.1093
     17  NZ        23.3990  -16.8860    8.9600 N.3    49  LYS49      -0.1314
     18  N         18.1680  -16.6760   -0.3390 N.3    76  ASP76      -0.1239
     19  CA        16.9340  -16.9590    0.3420 C.3    76  ASP76       0.1674
     20  C         15.7650  -17.1190   -0.6560 C.2    76  ASP76       0.2266
     21  O         14.6830  -17.4370   -0.2310 O.2    76  ASP76      -0.2867
     22  CB        16.6900  -15.9500    1.4900 C.3    76  ASP76       0.1410
     23  CG        17.7850  -16.0240    2.6170 C.2    76  ASP76       0.3668
     24  OD1       18.4230  -17.1040    2.8260 O.co2  76  ASP76      -0.2456
     25  OD2       18.0010  -14.9870    3.3220 O.co2  76  ASP76      -0.2456
     26  N         24.5340  -20.5860   -0.7780 N.3    85  LYS85      -0.1245
     27  CA        25.5730  -19.6940   -0.2710 C.3    85  LYS85       0.1561
     28  C         26.9790  -20.2790   -0.3950 C.2    85  LYS85       0.2260
     29  O         27.9070  -19.6200   -0.9100 O.2    85  LYS85      -0.2867
     30  CB        25.3100  -19.3520    1.1920 C.3    85  LYS85       0.0271
     31  CG        24.4970  -18.1240    1.4030 C.3    85  LYS85       0.0035
     32  CD        24.2490  -17.8970    2.8970 C.3    85  LYS85       0.0206
     33  CE        22.8210  -17.4560    3.1590 C.3    85  LYS85       0.1093
     34  NZ        22.6360  -17.6200    4.6000 N.3    85  LYS85      -0.1314
     35  N         26.2560  -20.8190    6.5210 N.3   101  ARG101     -0.1231
     36  CA        25.1100  -21.0450    7.4210 C.3   101  ARG101      0.1694
     37  C         23.8580  -20.2550    7.0500 C.2   101  ARG101      0.2593
     38  O         23.8720  -19.0290    7.0990 O.2   101  ARG101     -0.2718
     39  CB        25.5180  -20.7330    8.8580 C.3   101  ARG101      0.0321
     40  CG        24.6430  -21.3880    9.9440 C.3   101  ARG101      0.0489
     41  CD        23.5020  -20.4850   10.3860 C.3   101  ARG101      0.2205
     42  NE        22.8690  -21.0050   11.5880 N.pl3 101  ARG101     -0.0865
     43  CZ        21.9380  -20.3530   12.2840 C.cat 101  ARG101      0.5346
     44  NH1       21.4510  -20.8960   13.3850 N.pl3 101  ARG101      0.1354
     45  NH2       21.5220  -19.1480   11.8900 N.pl3 101  ARG101      0.1354
     46  N         22.7600  -20.9520    6.7300 N.am  102  GLY102     -0.1942
     47  CA        21.4590  -20.3150    6.4160 C.3   102  GLY102      0.2014
     48  C         20.2290  -21.2040    6.6800 C.2   102  GLY102      0.2638
     49  O         20.2950  -22.1850    7.4500 O.2   102  GLY102     -0.2714
     50  N         19.1120  -20.8780    6.0310 N.am  103  ARG103     -0.1977
     51  CA        17.9210  -21.6690    6.1170 C.3   103  ARG103      0.1597
     52  C         18.1490  -23.0270    5.4440 C.2   103  ARG103      0.2287
     53  O         18.8510  -23.1310    4.3880 O.2   103  ARG103     -0.2864
     54  CB        16.6970  -20.9270    5.5280 C.3   103  ARG103      0.0334
     55  CG        15.3800  -21.7150    5.6990 C.3   103  ARG103      0.0492
     56  CD        14.1240  -20.8630    5.4540 C.3   103  ARG103      0.2205
     57  NE        13.9670  -20.6560    4.0200 N.pl3 103  ARG103     -0.0865
     58  CZ        13.9050  -19.4810    3.3710 C.cat 103  ARG103      0.5346
     59  NH1       13.9490  -18.2920    4.0160 N.pl3 103  ARG103      0.1354
     60  NH2       13.7160  -19.5310    2.0440 N.pl3 103  ARG103      0.1354
     61  N         10.6750  -21.8710    3.7480 N.3   107  PRO107     -0.2102
     62  CA        10.3600  -21.0690    4.9510 C.3   107  PRO107      0.1504
     63  C          9.6890  -21.8940    6.0790 C.2   107  PRO107      0.2576
     64  O          8.7600  -22.6390    5.8190 O.2   107  PRO107     -0.2718
     65  CB         9.4540  -19.9780    4.3970 C.3   107  PRO107      0.0282
     66  CG        10.0970  -19.7320    3.0630 C.3   107  PRO107      0.0208
     67  CD        10.2310  -21.1610    2.5370 C.3   107  PRO107      0.0893
     68  N         10.2890  -21.8270    7.2820 N.am  108  GLY108     -0.1957
     69  CA         9.8080  -22.5170    8.4890 C.3   108  GLY108      0.1869
     70  C         10.6370  -23.7360    8.8730 C.2   108  GLY108      0.2309
     71  O         10.3500  -24.3960    9.8800 O.2   108  GLY108     -0.2863
     72  N         13.9110  -24.1530    9.7900 N.3   110  GLY110     -0.1210
     73  CA        15.1430  -24.0060   10.5670 C.3   110  GLY110      0.1956
     74  C         16.4320  -23.8420    9.7550 C.2   110  GLY110      0.2612
     75  O         16.4190  -23.5930    8.5270 O.2   110  GLY110     -0.2717
     76  N         17.5550  -24.0130   10.4530 N.am  111  SER111     -0.1952
     77  CA        18.9370  -23.6990    9.9660 C.3   111  SER111      0.1924
     78  C         19.8120  -24.9340    9.6310 C.2   111  SER111      0.2314
     79  O         19.6880  -25.9880   10.2690 O.2   111  SER111     -0.2863
     80  CB        19.6850  -22.9300   11.0570 C.3   111  SER111      0.2116
     81  OG        19.1190  -21.6520   11.2420 O.3   111  SER111     -0.2180
     82  N         16.7240  -26.1130   15.2050 N.3   129  PRO129     -0.2102
     83  CA        15.3100  -25.7220   14.9860 C.3   129  PRO129      0.1504
     84  C         15.1340  -24.2150   14.6630 C.2   129  PRO129      0.2576
     85  O         16.0810  -23.4370   14.8670 O.2   129  PRO129     -0.2718
     86  CB        14.6370  -26.0640   16.3390 C.3   129  PRO129      0.0282
     87  CG        15.5750  -27.0050   17.0470 C.3   129  PRO129      0.0208
     88  CD        16.9510  -26.5810   16.5960 C.3   129  PRO129      0.0893
     89  N         13.9490  -23.8000   14.1800 N.am  130  SER130     -0.1938
     90  CA        13.6100  -22.3540   14.0940 C.3   130  SER130      0.2055
     91  C         13.7380  -21.7430   15.4810 C.2   130  SER130      0.2643
     92  O         13.4250  -22.4230   16.4640 O.2   130  SER130     -0.2714
     93  CB        12.1630  -22.1130   13.6490 C.3   130  SER130      0.2130
     94  OG        11.7010  -23.1030   12.7600 O.3   130  SER130     -0.2179
     95  N         14.1690  -20.4770   15.5810 N.am  131  SER131     -0.1949
     96  CA        14.2880  -19.8310   16.9190 C.3   131  SER131      0.1924
     97  C         12.9310  -19.4570   17.5380 C.2   131  SER131      0.2314
     98  O         12.8410  -19.1360   18.7370 O.2   131  SER131     -0.2863
     99  CB        15.2340  -18.6280   16.9210 C.3   131  SER131      0.2116
    100  OG        14.8620  -17.6800   15.9440 O.3   131  SER131     -0.2180
    101  N         13.5140  -22.8900   19.6640 N.3   134  HIS134     -0.1226
    102  CA        14.6640  -23.0890   20.5620 C.3   134  HIS134      0.1752
    103  C         14.9920  -21.8860   21.4350 C.2   134  HIS134      0.2596
    104  O         15.5500  -22.0600   22.5280 O.2   134  HIS134     -0.2718
    105  CB        15.9360  -23.5910   19.8160 C.3   134  HIS134      0.0759
    106  CG        16.6300  -22.5590   18.9470 C.ar  134  HIS134      0.0818
    107  ND1       17.3260  -21.4840   19.4590 N.ar  134  HIS134     -0.2268
    108  CD2       16.7970  -22.4980   17.6020 C.ar  134  HIS134      0.1154
    109  CE1       17.8380  -20.7760   18.4680 C.ar  134  HIS134      0.1986
    110  NE2       17.5300  -21.3690   17.3290 N.ar  134  HIS134     -0.2212
    111  N         14.7180  -20.6820   20.9110 N.am  135  LYS135     -0.1966
    112  CA        14.7840  -19.4340   21.6730 C.3   135  LYS135      0.1728
    113  C         16.1960  -19.0600   22.2390 C.2   135  LYS135      0.2616
    114  O         16.2870  -18.5580   23.3340 O.2   135  LYS135     -0.2715
    115  CB        13.7020  -19.5010   22.7910 C.3   135  LYS135      0.0311
    116  CG        13.0660  -18.1910   23.2610 C.3   135  LYS135      0.0038
    117  CD        11.8080  -17.7850   22.4880 C.3   135  LYS135      0.0206
    118  CE        12.1130  -16.7000   21.4470 C.3   135  LYS135      0.1093
    119  NZ        10.9080  -16.2140   20.7100 N.3   135  LYS135     -0.1314
    120  N         17.2860  -19.2490   21.4950 N.am  136  GLU136     -0.1963
    121  CA        18.6470  -18.9360   22.0090 C.3   136  GLU136      0.1733
    122  C         19.3690  -17.8570   21.2000 C.2   136  GLU136      0.2616
    123  O         19.0180  -17.5950   20.0640 O.2   136  GLU136     -0.2715
    124  CB        19.5460  -20.1810   22.0290 C.3   136  GLU136      0.0429
    125  CG        19.3030  -21.1760   23.1510 C.3   136  GLU136      0.1163
    126  CD        20.3270  -22.3160   23.1330 C.2   136  GLU136      0.3649
    127  OE1       21.3320  -22.2510   23.9010 O.co2 136  GLU136     -0.2457
    128  OE2       20.1380  -23.2640   22.3280 O.co2 136  GLU136     -0.2457
    129  N         20.3810  -17.2420   21.8030 N.am  137  ASP137     -0.1957
    130  CA        21.2190  -16.2560   21.1390 C.3   137  ASP137      0.1840
    131  C         21.8350  -16.9270   19.9260 C.2   137  ASP137      0.2621
    132  O         22.2370  -18.0990   19.9980 O.2   137  ASP137     -0.2715
    133  CB        22.3660  -15.8040   22.0710 C.3   137  ASP137      0.1450
    134  CG        21.9340  -14.7600   23.1150 C.2   137  ASP137      0.3671
    135  OD1       20.7400  -14.4080   23.1680 O.co2 137  ASP137     -0.2456
    136  OD2       22.8050  -14.2820   23.8950 O.co2 137  ASP137     -0.2456
    137  N         21.9740  -16.1860   18.8340 N.am  138  ILE138     -0.1977
    138  CA        22.5840  -16.7490   17.6390 C.3   138  ILE138      0.1596
    139  C         24.0290  -17.3030   17.7970 C.2   138  ILE138      0.2287
    140  O         24.3570  -18.3670   17.2200 O.2   138  ILE138     -0.2864
    141  CB        22.4250  -15.8390   16.3870 C.3   138  ILE138      0.0276
    142  CG1       22.5610  -16.6960   15.1120 C.3   138  ILE138      0.0022
    143  CG2       23.3740  -14.6440   16.4460 C.3   138  ILE138      0.0022
    144  CD1       22.3410  -15.9490   13.8110 C.3   138  ILE138      0.0001
    145  N         23.9800  -20.8160   19.2870 N.3   141  ARG141     -0.1245
    146  CA        23.5600  -21.7050   18.2380 C.3   141  ARG141      0.1563
    147  C         24.6960  -21.9860   17.2050 C.2   141  ARG141      0.2260
    148  O         24.9480  -23.1350   16.8830 O.2   141  ARG141     -0.2867
    149  CB        22.3270  -21.1070   17.5670 C.3   141  ARG141      0.0307
    150  CG        21.1320  -22.0250   17.4570 C.3   141  ARG141      0.0489
    151  CD        20.7820  -22.6870   18.7870 C.3   141  ARG141      0.2205
    152  NE        21.2830  -24.0690   18.8040 N.pl3 141  ARG141     -0.0865
    153  CZ        20.5640  -25.1680   19.0570 C.cat 141  ARG141      0.5346
    154  NH1       21.1550  -26.3570   19.0240 N.pl3 141  ARG141      0.1354
    155  NH2       19.2800  -25.0920   19.3650 N.pl3 141  ARG141      0.1354
@<TRIPOS>BOND
     1    29    28    2
     2    26    27    1
     3    20    21    2
     4    20    19    1
     5    28    27    1
     6    18    19    1
     7    27    30    1
     8    19    22    1
     9    30    31    1
    10    31    32    1
    11    22    23    1
    12    60    58    1
    13    67    66    1
    14    67    61    1
    15    23    24   ar
    16    23    25   ar
    17    32    33    1
    18    66    65    1
    19    33    34    1
    20    58    59    1
    21    58    57    2
    22    61    62    1
    23    57    56    1
    24    53    52    2
    25    65    62    1
    26    62    63    1
    27    52    51    1
    28    56    55    1
    29    54    55    1
    30    54    51    1
    31    64    63    2
    32    50    51    1
    33    50    48   am
    34    63    68   am
    35    47    48    1
    36    47    46    1
    37    35    36    1
    38    48    49    2
    39    46    37   am
    40    37    38    2
    41    37    36    1
    42    68    69    1
    43    36    39    1
    44     1     2    1
    45    69    70    1
    46    75    74    2
    47    39    40    1
    48    70    71    2
    49    17    16    1
    50     2     5    1
    51     2     3    1
    52    78    77    1
    53    78    79    2
    54    74    76   am
    55    74    73    1
    56    72    73    1
    57     5     6    1
    58    40    41    1
    59    77    76    1
    60    77    80    1
    61    16    15    1
    62     3     4    2
    63    15    14    1
    64    41    42    1
    65    80    81    1
    66     6     8   am
    67     6     7    2
    68    13    14    1
    69    13    10    1
    70    42    43    2
    71    45    43    1
    72    43    44    1
    73    11    10    1
    74    11    12    2
    75    10     9    1
    76    94    93    1
    77    93    90    1
    78   144   142    1
    79    90    89    1
    80    90    91    1
    81    89    84   am
    82    84    85    2
    83    84    83    1
    84    83    82    1
    85    83    86    1
    86   142   141    1
    87    82    88    1
    88    91    95   am
    89    91    92    2
    90    95    96    1
    91   100    99    1
    92    86    87    1
    93   141   143    1
    94   141   138    1
    95    88    87    1
    96   148   147    2
    97    96    99    1
    98    96    97    1
    99   147   146    1
   100   140   139    2
   101   110   108   ar
   102   110   109   ar
   103   150   149    1
   104   150   151    1
   105    97    98    2
   106   149   146    1
   107   108   106   ar
   108   138   139    1
   109   138   137    1
   110   146   145    1
   111   109   107   ar
   112   151   152    1
   113   152   153    2
   114   137   131   am
   115   106   107   ar
   116   106   105    1
   117   154   153    1
   118   153   155    1
   119   101   102    1
   120   105   102    1
   121   131   132    2
   122   131   130    1
   123   123   122    2
   124   102   103    1
   125   119   118    1
   126   111   103   am
   127   111   112    1
   128   130   129    1
   129   130   133    1
   130   122   129   am
   131   122   121    1
   132   103   104    2
   133   118   117    1
   134   120   121    1
   135   120   113   am
   136   112   113    1
   137   112   115    1
   138   121   124    1
   139   124   125    1
   140   133   134    1
   141   113   114    2
   142   128   126   ar
   143   117   116    1
   144   115   116    1
   145   134   135   ar
   146   134   136   ar
   147   126   125    1
   148   126   127   ar
