@<TRIPOS>MOLECULE
tmp/3wb4A00.pdb
 142 134 0 0 0
SMALL
GASTEIGER

@<TRIPOS>ATOM
      1  N         25.9390   45.4150    0.6390 N.3    13  GLY13      -0.1210
      2  CA        25.6020   45.6560   -0.7520 C.3    13  GLY13       0.1956
      3  C         25.5190   44.3970   -1.5900 C.2    13  GLY13       0.2612
      4  O         24.9060   44.4350   -2.6560 O.2    13  GLY13      -0.2717
      5  N         26.0950   43.2880   -1.1030 N.am   14  GLN14      -0.1965
      6  CA        26.1910   42.0420   -1.8700 C.3    14  GLN14       0.1733
      7  C         25.2190   40.9520   -1.4440 C.2    14  GLN14       0.2616
      8  O         25.3650   39.7870   -1.8560 O.2    14  GLN14      -0.2715
      9  CB        27.6210   41.4710   -1.7990 C.3    14  GLN14       0.0408
     10  CG        28.7640   42.4600   -2.1320 C.3    14  GLN14       0.0908
     11  CD        30.1570   41.7870   -2.0630 C.2    14  GLN14       0.2608
     12  OE1       30.3510   40.7950   -1.3460 O.2    14  GLN14      -0.2717
     13  NE2       31.1190   42.3230   -2.8110 N.am   14  GLN14      -0.0878
     14  N         24.2130   41.3050   -0.6410 N.am   15  GLY15      -0.1955
     15  CA        23.1450   40.3770   -0.2700 C.3    15  GLY15       0.1869
     16  C         23.4130   39.4760    0.9350 C.2    15  GLY15       0.2309
     17  O         24.5340   39.4190    1.4490 O.2    15  GLY15      -0.2863
     18  N         22.4410   32.9730   -1.9400 N.3    32  LEU32      -0.1245
     19  CA        21.7850   34.2490   -1.7010 C.3    32  LEU32       0.1561
     20  C         20.3210   33.9860   -1.3840 C.2    32  LEU32       0.2260
     21  O         19.6720   33.2090   -2.0740 O.2    32  LEU32      -0.2867
     22  CB        21.8700   35.1190   -2.9570 C.3    32  LEU32       0.0270
     23  CG        21.2350   36.5040   -2.8200 C.3    32  LEU32       0.0019
     24  CD1       22.2590   37.4300   -2.2580 C.3    32  LEU32       0.0001
     25  CD2       20.8220   37.0300   -4.1570 C.3    32  LEU32       0.0001
     26  N         16.6290   35.0800   -1.4750 N.3    34  ASP34      -0.1239
     27  CA        15.9870   36.0560   -2.3520 C.3    34  ASP34       0.1674
     28  C         14.4630   35.8960   -2.3570 C.2    34  ASP34       0.2266
     29  O         13.9190   35.0190   -3.0580 O.2    34  ASP34      -0.2867
     30  CB        16.5660   35.9090   -3.7810 C.3    34  ASP34       0.1410
     31  CG        15.9640   36.8890   -4.7530 C.2    34  ASP34       0.3668
     32  OD1       15.4040   37.9140   -4.2850 O.co2  34  ASP34      -0.2456
     33  OD2       16.0340   36.6590   -5.9960 O.co2  34  ASP34      -0.2456
     34  N         12.5180   37.7330   -3.7610 N.3    36  GLY36      -0.1210
     35  CA        12.0630   38.3600   -4.9940 C.3    36  GLY36       0.1956
     36  C         12.1160   37.4840   -6.2420 C.2    36  GLY36       0.2612
     37  O         11.8790   37.9610   -7.3340 O.2    36  GLY36      -0.2717
     38  N         12.4170   36.2000   -6.0940 N.am   37  SER37      -0.1952
     39  CA        12.3710   35.2900   -7.2330 C.3    37  SER37       0.1924
     40  C         12.0190   33.9150   -6.6900 C.2    37  SER37       0.2314
     41  O         11.8710   33.7590   -5.4680 O.2    37  SER37      -0.2863
     42  CB        13.7190   35.2580   -7.9770 C.3    37  SER37       0.2116
     43  OG        14.7920   34.8870   -7.1150 O.3    37  SER37      -0.2180
     44  N         17.5010   39.5350  -16.8840 N.3    73  TYR73      -0.1227
     45  CA        16.9520   40.5750  -16.0160 C.3    73  TYR73       0.1736
     46  C         17.2460   41.9520  -16.6160 C.2    73  TYR73       0.2596
     47  O         17.6820   42.0470  -17.7700 O.2    73  TYR73      -0.2718
     48  CB        17.5290   40.4670  -14.6040 C.3    73  TYR73       0.0548
     49  CG        17.2120   39.1680  -13.8970 C.ar   73  TYR73      -0.0200
     50  CD1       15.9280   38.9040  -13.4550 C.ar   73  TYR73      -0.0009
     51  CD2       18.2010   38.2100  -13.6570 C.ar   73  TYR73      -0.0009
     52  CE1       15.6230   37.7210  -12.7980 C.ar   73  TYR73       0.0417
     53  CE2       17.9000   37.0200  -12.9870 C.ar   73  TYR73       0.0417
     54  CZ        16.6050   36.7840  -12.5690 C.ar   73  TYR73       0.1957
     55  OH        16.2690   35.6170  -11.9090 O.3    73  TYR73      -0.2866
     56  N         16.9960   43.0080  -15.8400 N.am   74  THR74      -0.1953
     57  CA        17.2160   44.3870  -16.2950 C.3    74  THR74       0.1897
     58  C         18.7160   44.7020  -16.3140 C.2    74  THR74       0.2313
     59  O         19.2040   45.4730  -17.1540 O.2    74  THR74      -0.2863
     60  CB        16.4980   45.4020  -15.3800 C.3    74  THR74       0.1794
     61  OG1       17.1730   45.4660  -14.1170 O.3    74  THR74      -0.2208
     62  CG2       15.0540   44.9880  -15.1480 C.3    74  THR74       0.0378
     63  N         26.8910   39.6810  -15.7230 N.3   109  LYS109     -0.1231
     64  CA        26.5540   40.6970  -14.7050 C.3   109  LYS109      0.1693
     65  C         25.5850   40.1620  -13.6530 C.2   109  LYS109      0.2592
     66  O         24.6940   40.8690  -13.1760 O.2   109  LYS109     -0.2718
     67  CB        26.0640   42.0170  -15.3620 C.3   109  LYS109      0.0285
     68  CG        27.1560   42.6270  -16.3030 C.3   109  LYS109      0.0035
     69  CD        26.8210   44.0400  -16.8500 C.3   109  LYS109      0.0206
     70  CE        28.0410   44.5970  -17.6120 C.3   109  LYS109      0.1093
     71  NZ        27.8730   45.9950  -18.1000 N.3   109  LYS109     -0.1314
     72  N         25.7810   38.8960  -13.2840 N.am  110  PHE110     -0.1976
     73  CA        24.9260   38.2590  -12.3110 C.3   110  PHE110      0.1639
     74  C         25.6670   37.9890  -10.9960 C.2   110  PHE110      0.2290
     75  O         25.2920   38.5060   -9.9400 O.2   110  PHE110     -0.2864
     76  CB        24.3420   36.9700  -12.8800 C.3   110  PHE110      0.0560
     77  CG        23.4400   36.2630  -11.9200 C.ar  110  PHE110     -0.0200
     78  CD1       22.2040   36.8060  -11.5840 C.ar  110  PHE110     -0.0042
     79  CD2       23.8250   35.0790  -11.3260 C.ar  110  PHE110     -0.0042
     80  CE1       21.3610   36.1760  -10.6720 C.ar  110  PHE110     -0.0003
     81  CE2       22.9750   34.4340  -10.4130 C.ar  110  PHE110     -0.0003
     82  CZ        21.7400   34.9940  -10.0920 C.ar  110  PHE110     -0.0000
     83  N         28.5980   38.3850   -8.2880 N.3   112  ILE112     -0.1245
     84  CA        29.3310   39.5900   -7.9050 C.3   112  ILE112      0.1561
     85  C         30.8060   39.2710   -7.7070 C.2   112  ILE112      0.2260
     86  O         31.1470   38.3360   -6.9840 O.2   112  ILE112     -0.2867
     87  CB        28.7620   40.1940   -6.6130 C.3   112  ILE112      0.0252
     88  CG1       27.2630   40.4850   -6.7730 C.3   112  ILE112      0.0019
     89  CG2       29.5070   41.4680   -6.2260 C.3   112  ILE112      0.0019
     90  CD1       26.6100   41.0760   -5.5100 C.3   112  ILE112      0.0001
     91  N         29.1070   34.2410   -2.3370 N.3   117  TRP117     -0.1241
     92  CA        28.0370   33.2990   -2.6580 C.3   117  TRP117      0.1605
     93  C         28.0910   32.8450   -4.1100 C.2   117  TRP117      0.2264
     94  O         28.6990   33.5340   -4.9480 O.2   117  TRP117     -0.2867
     95  CB        26.6540   33.8750   -2.2730 C.3   117  TRP117      0.0550
     96  CG        26.3120   35.2030   -2.9260 C.ar  117  TRP117      0.0003
     97  CD1       26.4500   36.4430   -2.3820 C.ar  117  TRP117      0.0946
     98  CD2       25.7610   35.3920   -4.2380 C.ar  117  TRP117      0.0152
     99  NE1       26.0300   37.4040   -3.2840 N.ar  117  TRP117     -0.2442
    100  CE2       25.5960   36.7790   -4.4270 C.ar  117  TRP117      0.0810
    101  CE3       25.4000   34.5200   -5.2750 C.ar  117  TRP117      0.0012
    102  CZ2       25.0850   37.3170   -5.6240 C.ar  117  TRP117      0.0191
    103  CZ3       24.8800   35.0430   -6.4410 C.ar  117  TRP117      0.0001
    104  CH2       24.7420   36.4300   -6.6140 C.ar  117  TRP117      0.0015
    105  N         21.5280   31.1580   -5.7980 N.3   120  ILE120     -0.1245
    106  CA        20.4080   31.9690   -5.3350 C.3   120  ILE120      0.1561
    107  C         19.2610   31.0540   -4.9810 C.2   120  ILE120      0.2260
    108  O         18.9540   30.0990   -5.7030 O.2   120  ILE120     -0.2867
    109  CB        19.9790   33.0050   -6.4100 C.3   120  ILE120      0.0252
    110  CG1       18.7060   33.7210   -5.9900 C.3   120  ILE120      0.0019
    111  CG2       19.7650   32.3380   -7.7740 C.3   120  ILE120      0.0019
    112  CD1       18.3370   34.8370   -6.9370 C.3   120  ILE120      0.0001
    113  N         11.1810   42.3300   -0.8720 N.3   220  ASP220     -0.1239
    114  CA        12.2870   41.7120   -1.5700 C.3   220  ASP220      0.1674
    115  C         13.6600   41.7640   -0.8610 C.2   220  ASP220      0.2266
    116  O         14.3780   42.7750   -0.8970 O.2   220  ASP220     -0.2867
    117  CB        12.4020   42.3030   -2.9630 C.3   220  ASP220      0.1410
    118  CG        13.4590   41.6160   -3.7730 C.2   220  ASP220      0.3668
    119  OD1       13.9040   40.5230   -3.3420 O.co2 220  ASP220     -0.2456
    120  OD2       13.8510   42.1480   -4.8300 O.co2 220  ASP220     -0.2456
    121  N         16.2060   40.5580   -1.8960 N.3   222  GLY222     -0.1210
    122  CA        17.2520   40.5980   -2.9110 C.3   222  GLY222      0.1956
    123  C         17.5060   41.9980   -3.4360 C.2   222  GLY222      0.2612
    124  O         18.3340   42.1850   -4.3300 O.2   222  GLY222     -0.2717
    125  N         16.7780   42.9820   -2.8940 N.am  223  THR223     -0.1952
    126  CA        17.0050   44.3910   -3.2490 C.3   223  THR223      0.1897
    127  C         17.5450   45.1350   -2.0370 C.2   223  THR223      0.2313
    128  O         17.0740   44.9330   -0.9150 O.2   223  THR223     -0.2863
    129  CB        15.6940   45.0820   -3.6980 C.3   223  THR223      0.1794
    130  OG1       15.2210   44.4850   -4.9130 O.3   223  THR223     -0.2208
    131  CG2       15.9210   46.5760   -3.9360 C.3   223  THR223      0.0378
    132  N         12.5890   51.1080   -2.9470 N.3   227  ARG227     -0.1245
    133  CA        12.4110   51.6140   -4.3050 C.3   227  ARG227      0.1563
    134  C         10.9680   52.0510   -4.5100 C.2   227  ARG227      0.2260
    135  O         10.0220   51.2690   -4.2910 O.2   227  ARG227     -0.2867
    136  CB        12.7860   50.5480   -5.3110 C.3   227  ARG227      0.0307
    137  CG        14.2650   50.0890   -5.1970 C.3   227  ARG227      0.0489
    138  CD        14.6480   49.0220   -6.2410 C.3   227  ARG227      0.2205
    139  NE        14.3380   49.3930   -7.6290 N.pl3 227  ARG227     -0.0865
    140  CZ        14.0520   48.5120   -8.5870 C.cat 227  ARG227      0.5346
    141  NH1       14.0440   47.2100   -8.3140 N.pl3 227  ARG227      0.1354
    142  NH2       13.7720   48.9230   -9.8190 N.pl3 227  ARG227      0.1354
@<TRIPOS>BOND
     1    71    70    1
     2    47    46    2
     3    70    69    1
     4    59    58    2
     5    44    45    1
     6    69    68    1
     7    46    45    1
     8    46    56   am
     9    58    57    1
    10    68    67    1
    11    57    56    1
    12    57    60    1
    13    45    48    1
    14    63    64    1
    15    60    62    1
    16    60    61    1
    17    67    64    1
    18    64    65    1
    19    48    49    1
    20    49    51   ar
    21    49    50   ar
    22    51    53   ar
    23    65    72   am
    24    65    66    2
    25    50    52   ar
    26    72    73    1
    27    53    54   ar
    28    76    73    1
    29    76    77    1
    30    52    54   ar
    31    54    55    1
    32    73    74    1
    33    77    78   ar
    34    77    79   ar
    35    78    80   ar
    36    79    81   ar
    37    74    75    2
    38    80    82   ar
    39    81    82   ar
    40   142   140    1
    41   140   141    1
    42   140   139    2
    43    83    84    1
    44    42    39    1
    45    42    43    1
    46    84    85    1
    47    84    87    1
    48   111   109    1
    49    85    86    2
    50   139   138    1
    51    37    36    2
    52    39    40    1
    53    39    38    1
    54   112   110    1
    55    88    87    1
    56    88    90    1
    57    40    41    2
    58   104   103   ar
    59   104   102   ar
    60    87    89    1
    61   103   101   ar
    62   109   110    1
    63   109   106    1
    64    36    38   am
    65    36    35    1
    66   138   137    1
    67    33    31   ar
    68   105   106    1
    69   108   107    2
    70   102   100   ar
    71   106   107    1
    72   136   137    1
    73   136   133    1
    74   101    98   ar
    75    35    34    1
    76    94    93    2
    77   130   129    1
    78   120   118   ar
    79    31    32   ar
    80    31    30    1
    81   134   133    1
    82   134   135    2
    83   100    98   ar
    84   100    99   ar
    85   124   123    2
    86   133   132    1
    87    98    96   ar
    88    25    23    1
    89    93    92    1
    90   131   129    1
    91    30    27    1
    92   118   119   ar
    93   118   117    1
    94   129   126    1
    95   123   122    1
    96   123   125   am
    97    99    97   ar
    98   126   125    1
    99   126   127    1
   100    29    28    2
   101   117   114    1
   102    22    23    1
   103    22    19    1
   104    96    97   ar
   105    96    95    1
   106   122   121    1
   107    23    24    1
   108    13    11   am
   109    92    91    1
   110    92    95    1
   111     4     3    2
   112    28    27    1
   113    27    26    1
   114    10    11    1
   115    10     9    1
   116    21    20    2
   117    11    12    2
   118   127   128    2
   119    18    19    1
   120     6     9    1
   121     6     7    1
   122     6     5    1
   123     8     7    2
   124    19    20    1
   125     3     5   am
   126     3     2    1
   127   114   113    1
   128   114   115    1
   129     7    14   am
   130   116   115    2
   131     2     1    1
   132    14    15    1
   133    15    16    1
   134    16    17    2
