@<TRIPOS>MOLECULE
tmp/3wb5A00.pdb
 139 133 0 0 0
SMALL
GASTEIGER

@<TRIPOS>ATOM
      1  N         23.5330   32.4920   -1.2020 N.3    32  LEU32      -0.1245
      2  CA        22.8060   33.7380   -0.9870 C.3    32  LEU32       0.1561
      3  C         21.3800   33.4610   -0.5290 C.2    32  LEU32       0.2260
      4  O         20.6950   32.6040   -1.0860 O.2    32  LEU32      -0.2867
      5  CB        22.7920   34.5840   -2.2630 C.3    32  LEU32       0.0270
      6  CG        22.3230   36.0410   -2.1470 C.3    32  LEU32       0.0019
      7  CD1       23.3100   36.8940   -1.3460 C.3    32  LEU32       0.0001
      8  CD2       22.1000   36.6410   -3.5220 C.3    32  LEU32       0.0001
      9  N         17.8350   34.5980   -0.6170 N.3    34  ASP34      -0.1239
     10  CA        17.1470   35.4650   -1.5670 C.3    34  ASP34       0.1674
     11  C         15.6310   35.2670   -1.5500 C.2    34  ASP34       0.2266
     12  O         15.1050   34.3060   -2.1130 O.2    34  ASP34      -0.2867
     13  CB        17.7220   35.2480   -2.9740 C.3    34  ASP34       0.1410
     14  CG        17.0650   36.1280   -4.0270 C.2    34  ASP34       0.3668
     15  OD1       16.5630   37.2140   -3.6770 O.co2  34  ASP34      -0.2456
     16  OD2       17.0580   35.7330   -5.2130 O.co2  34  ASP34      -0.2456
     17  N         13.6870   37.1170   -3.0290 N.3    36  GLY36      -0.1210
     18  CA        13.2250   37.6700   -4.2880 C.3    36  GLY36       0.1956
     19  C         13.2320   36.7290   -5.4790 C.2    36  GLY36       0.2612
     20  O         12.9230   37.1480   -6.5910 O.2    36  GLY36      -0.2717
     21  N         13.5820   35.4660   -5.2660 N.am   37  SER37      -0.1952
     22  CA        13.4940   34.4710   -6.3340 C.3    37  SER37       0.1924
     23  C         13.1210   33.1070   -5.7620 C.2    37  SER37       0.2314
     24  O         12.9350   32.9730   -4.5550 O.2    37  SER37      -0.2863
     25  CB        14.7960   34.3940   -7.1450 C.3    37  SER37       0.2116
     26  OG        15.8620   33.8640   -6.3810 O.3    37  SER37      -0.2180
     27  N         18.4130   38.5360  -16.5490 N.3    73  TYR73      -0.1227
     28  CA        18.0680   39.5320  -15.5350 C.3    73  TYR73       0.1736
     29  C         18.2690   40.9650  -16.0330 C.2    73  TYR73       0.2596
     30  O         18.5570   41.1920  -17.2110 O.2    73  TYR73      -0.2718
     31  CB        18.8820   39.3070  -14.2560 C.3    73  TYR73       0.0548
     32  CG        18.4760   38.0780  -13.4750 C.ar   73  TYR73      -0.0200
     33  CD1       17.1390   37.8020  -13.2250 C.ar   73  TYR73      -0.0009
     34  CD2       19.4290   37.1900  -12.9930 C.ar   73  TYR73      -0.0009
     35  CE1       16.7610   36.6790  -12.5150 C.ar   73  TYR73       0.0417
     36  CE2       19.0600   36.0630  -12.2820 C.ar   73  TYR73       0.0417
     37  CZ        17.7240   35.8130  -12.0450 C.ar   73  TYR73       0.1957
     38  OH        17.3470   34.6930  -11.3390 O.3    73  TYR73      -0.2866
     39  N         18.1170   41.9250  -15.1230 N.am   74  THR74      -0.1953
     40  CA        18.2600   43.3420  -15.4500 C.3    74  THR74       0.1897
     41  C         19.6860   43.6800  -15.8790 C.2    74  THR74       0.2313
     42  O         19.9180   44.6570  -16.5920 O.2    74  THR74      -0.2863
     43  CB        17.8290   44.2940  -14.3240 C.3    74  THR74       0.1794
     44  OG1       18.6330   44.0320  -13.1850 O.3    74  THR74      -0.2208
     45  CG2       16.3580   44.1460  -13.9860 C.3    74  THR74       0.0378
     46  N         22.2130   33.7700  -16.0520 N.3    78  TRP78      -0.1241
     47  CA        22.8040   32.4420  -15.9210 C.3    78  TRP78       0.1605
     48  C         21.9890   31.3480  -16.6040 C.2    78  TRP78       0.2264
     49  O         20.7740   31.4650  -16.7560 O.2    78  TRP78      -0.2867
     50  CB        23.0710   32.0760  -14.4520 C.3    78  TRP78       0.0550
     51  CG        21.8610   32.0530  -13.5490 C.ar   78  TRP78       0.0003
     52  CD1       21.4280   33.0650  -12.7430 C.ar   78  TRP78       0.0946
     53  CD2       20.9540   30.9580  -13.3350 C.ar   78  TRP78       0.0152
     54  NE1       20.3070   32.6790  -12.0520 N.ar   78  TRP78      -0.2442
     55  CE2       19.9940   31.3900  -12.3950 C.ar   78  TRP78       0.0810
     56  CE3       20.8560   29.6600  -13.8500 C.ar   78  TRP78       0.0012
     57  CZ2       18.9450   30.5720  -11.9580 C.ar   78  TRP78       0.0191
     58  CZ3       19.8110   28.8450  -13.4140 C.ar   78  TRP78       0.0001
     59  CH2       18.8710   29.3070  -12.4760 C.ar   78  TRP78       0.0015
     60  N         27.9040   38.5590  -15.3480 N.3   109  LYS109     -0.1231
     61  CA        27.6240   39.6730  -14.4400 C.3   109  LYS109      0.1693
     62  C         26.5680   39.3400  -13.3850 C.2   109  LYS109      0.2592
     63  O         25.7850   40.2010  -12.9820 O.2   109  LYS109     -0.2718
     64  CB        27.2130   40.9220  -15.2260 C.3   109  LYS109      0.0285
     65  CG        28.4580   41.4470  -15.9030 C.3   109  LYS109      0.0035
     66  CD        28.1440   42.4620  -16.9710 C.3   109  LYS109      0.0206
     67  CE        29.4450   43.0870  -17.4780 C.3   109  LYS109      0.1093
     68  NZ        30.3900   42.1030  -17.9790 N.3   109  LYS109     -0.1314
     69  N         26.5540   38.0850  -12.9490 N.am  110  PHE110     -0.1976
     70  CA        25.6210   37.6350  -11.9250 C.3   110  PHE110      0.1639
     71  C         26.3460   37.4410  -10.5970 C.2   110  PHE110      0.2290
     72  O         26.0780   38.1440   -9.6240 O.2   110  PHE110     -0.2864
     73  CB        24.9460   36.3330  -12.3530 C.3   110  PHE110      0.0560
     74  CG        23.9850   35.7910  -11.3380 C.ar  110  PHE110     -0.0200
     75  CD1       22.7100   36.3210  -11.2250 C.ar  110  PHE110     -0.0042
     76  CD2       24.3550   34.7540  -10.4950 C.ar  110  PHE110     -0.0042
     77  CE1       21.8210   35.8300  -10.2950 C.ar  110  PHE110     -0.0003
     78  CE2       23.4690   34.2580   -9.5620 C.ar  110  PHE110     -0.0003
     79  CZ        22.1980   34.7980   -9.4630 C.ar  110  PHE110     -0.0000
     80  N         29.3080   37.7340   -7.8890 N.3   112  ILE112     -0.1245
     81  CA        30.0300   38.9380   -7.5130 C.3   112  ILE112      0.1561
     82  C         31.5060   38.6580   -7.2580 C.2   112  ILE112      0.2260
     83  O         31.8600   37.9740   -6.2980 O.2   112  ILE112     -0.2867
     84  CB        29.3970   39.6120   -6.2830 C.3   112  ILE112      0.0252
     85  CG1       27.9450   39.9980   -6.5870 C.3   112  ILE112      0.0019
     86  CG2       30.2100   40.8240   -5.8610 C.3   112  ILE112      0.0019
     87  CD1       27.2130   40.6250   -5.4230 C.3   112  ILE112      0.0001
     88  N         30.0490   33.9430   -1.6390 N.3   117  TRP117     -0.1241
     89  CA        28.9650   33.0100   -1.9440 C.3   117  TRP117      0.1605
     90  C         28.9730   32.5470   -3.4010 C.2   117  TRP117      0.2264
     91  O         29.3230   33.3030   -4.3030 O.2   117  TRP117     -0.2867
     92  CB        27.5920   33.5720   -1.5370 C.3   117  TRP117      0.0550
     93  CG        27.1950   34.8610   -2.1990 C.ar  117  TRP117      0.0003
     94  CD1       27.3230   36.1200   -1.6850 C.ar  117  TRP117      0.0946
     95  CD2       26.5800   35.0150   -3.4840 C.ar  117  TRP117      0.0152
     96  NE1       26.8390   37.0450   -2.5730 N.ar  117  TRP117     -0.2442
     97  CE2       26.3760   36.3930   -3.6860 C.ar  117  TRP117      0.0810
     98  CE3       26.1900   34.1200   -4.4870 C.ar  117  TRP117      0.0012
     99  CZ2       25.7970   36.9010   -4.8510 C.ar  117  TRP117      0.0191
    100  CZ3       25.6220   34.6270   -5.6450 C.ar  117  TRP117      0.0001
    101  CH2       25.4260   36.0030   -5.8140 C.ar  117  TRP117      0.0015
    102  N         22.5660   30.5560   -5.0550 N.3   120  ILE120     -0.1245
    103  CA        21.3840   31.3120   -4.6530 C.3   120  ILE120      0.1561
    104  C         20.3400   30.4030   -4.0210 C.2   120  ILE120      0.2260
    105  O         20.0050   29.3510   -4.5740 O.2   120  ILE120     -0.2867
    106  CB        20.7130   31.9930   -5.8610 C.3   120  ILE120      0.0252
    107  CG1       21.7470   32.7040   -6.7260 C.3   120  ILE120      0.0019
    108  CG2       19.6530   32.9710   -5.3970 C.3   120  ILE120      0.0019
    109  CD1       22.3440   33.9050   -6.0660 C.3   120  ILE120      0.0001
    110  N         12.3690   41.8150   -0.4660 N.3   219  ASP219     -0.1239
    111  CA        13.4660   41.1530   -1.1580 C.3   219  ASP219      0.1674
    112  C         14.7980   41.2560   -0.4220 C.2   219  ASP219      0.2266
    113  O         15.4630   42.2890   -0.4630 O.2   219  ASP219     -0.2867
    114  CB        13.6010   41.7080   -2.5770 C.3   219  ASP219      0.1410
    115  CG        14.5690   40.9080   -3.4220 C.2   219  ASP219      0.3668
    116  OD1       15.0210   39.8360   -2.9580 O.co2 219  ASP219     -0.2456
    117  OD2       14.8660   41.3460   -4.5550 O.co2 219  ASP219     -0.2456
    118  N         17.3710   39.9120   -1.3220 N.3   221  GLY221     -0.1210
    119  CA        18.3960   39.9260   -2.3460 C.3   221  GLY221      0.1956
    120  C         18.6280   41.3000   -2.9460 C.2   221  GLY221      0.2612
    121  O         19.4090   41.4450   -3.8790 O.2   221  GLY221     -0.2717
    122  N         17.9540   42.3100   -2.4070 N.am  222  THR222     -0.1952
    123  CA        18.1330   43.6850   -2.8660 C.3   222  THR222      0.1897
    124  C         18.6680   44.5600   -1.7370 C.2   222  THR222      0.2313
    125  O         18.2670   44.4130   -0.5820 O.2   222  THR222     -0.2863
    126  CB        16.8150   44.2730   -3.4060 C.3   222  THR222      0.1794
    127  OG1       16.4170   43.5490   -4.5740 O.3   222  THR222     -0.2208
    128  CG2       16.9710   45.7400   -3.7650 C.3   222  THR222      0.0378
    129  N         13.8750   50.3900   -3.0240 N.3   226  ARG226     -0.1245
    130  CA        13.5570   50.8020   -4.3810 C.3   226  ARG226      0.1563
    131  C         12.0840   51.1720   -4.4990 C.2   226  ARG226      0.2260
    132  O         11.2050   50.4090   -4.0960 O.2   226  ARG226     -0.2867
    133  CB        13.9170   49.6950   -5.3740 C.3   226  ARG226      0.0307
    134  CG        15.4040   49.3600   -5.4230 C.3   226  ARG226      0.0489
    135  CD        15.6790   48.2100   -6.3840 C.3   226  ARG226      0.2205
    136  NE        15.2730   48.5160   -7.7560 N.pl3 226  ARG226     -0.0865
    137  CZ        14.9170   47.5990   -8.6510 C.cat 226  ARG226      0.5346
    138  NH1       14.9120   46.3150   -8.3210 N.pl3 226  ARG226      0.1354
    139  NH2       14.5600   47.9630   -9.8740 N.pl3 226  ARG226      0.1354
@<TRIPOS>BOND
     1    68    67    1
     2    67    66    1
     3    30    29    2
     4    66    65    1
     5    49    48    2
     6    48    47    1
     7    42    41    2
     8    27    28    1
     9    46    47    1
    10    29    28    1
    11    29    39   am
    12    47    50    1
    13    65    64    1
    14    41    40    1
    15    28    31    1
    16    40    39    1
    17    40    43    1
    18    60    61    1
    19    64    61    1
    20    50    51    1
    21    61    62    1
    22    43    45    1
    23    43    44    1
    24    31    32    1
    25    56    58   ar
    26    56    53   ar
    27    51    53   ar
    28    51    52   ar
    29    32    33   ar
    30    32    34   ar
    31    58    59   ar
    32    62    63    2
    33    62    69   am
    34    53    55   ar
    35    33    35   ar
    36    34    36   ar
    37    69    70    1
    38    52    54   ar
    39    35    37   ar
    40    59    57   ar
    41    55    54   ar
    42    55    57   ar
    43    73    70    1
    44    73    74    1
    45    36    37   ar
    46    37    38    1
    47    70    71    1
    48    74    75   ar
    49    74    76   ar
    50    75    77   ar
    51    71    72    2
    52    76    78   ar
    53    77    79   ar
    54   139   137    1
    55    78    79   ar
    56   137   138    1
    57   137   136    2
    58    80    81    1
    59   136   135    1
    60    81    82    1
    61    81    84    1
    62    82    83    2
    63    25    26    1
    64    25    22    1
    65   107   109    1
    66   107   106    1
    67    20    19    2
    68    85    84    1
    69    85    87    1
    70   135   134    1
    71    22    23    1
    72    22    21    1
    73    84    86    1
    74   106   108    1
    75   106   103    1
    76   101   100   ar
    77   101    99   ar
    78    23    24    2
    79   100    98   ar
    80    19    21   am
    81    19    18    1
    82   134   133    1
    83   133   130    1
    84    16    14   ar
    85   102   103    1
    86    99    97   ar
    87   103   104    1
    88   127   126    1
    89   105   104    2
    90   117   115   ar
    91   131   130    1
    92   131   132    2
    93    98    95   ar
    94   130   129    1
    95    91    90    2
    96    18    17    1
    97    14    15   ar
    98    14    13    1
    99   121   120    2
   100   128   126    1
   101    97    95   ar
   102    97    96   ar
   103     8     6    1
   104    95    93   ar
   105   115   116   ar
   106   115   114    1
   107   126   123    1
   108    90    89    1
   109    13    10    1
   110   120   122   am
   111   120   119    1
   112   123   122    1
   113   123   124    1
   114   114   111    1
   115    96    94   ar
   116   119   118    1
   117     5     6    1
   118     5     2    1
   119    93    94   ar
   120    93    92    1
   121     6     7    1
   122    12    11    2
   123    89    88    1
   124    89    92    1
   125   124   125    2
   126    10    11    1
   127    10     9    1
   128     1     2    1
   129   111   110    1
   130   111   112    1
   131     4     3    2
   132     2     3    1
   133   113   112    2
