@<TRIPOS>MOLECULE
tmp/3wbeA00.pdb
 152 152 0 0 0
SMALL
GASTEIGER

@<TRIPOS>ATOM
      1  N         -7.4780    9.0530   38.3490 N.3    21  GLN21      -0.1245
      2  CA        -8.7980    9.4650   37.8470 C.3    21  GLN21       0.1566
      3  C         -9.9060    9.3350   38.8730 C.2    21  GLN21       0.2260
      4  O        -10.9600    9.9690   38.7240 O.2    21  GLN21      -0.2867
      5  CB        -9.1810    8.6600   36.6080 C.3    21  GLN21       0.0367
      6  CG        -8.1430    8.7670   35.4720 C.3    21  GLN21       0.0905
      7  CD        -8.5990    8.0370   34.2230 C.2    21  GLN21       0.2608
      8  OE1       -8.2340    6.8830   34.0010 O.2    21  GLN21      -0.2717
      9  NE2       -9.4080    8.7010   33.4090 N.am   21  GLN21      -0.0878
     10  N        -10.9160   -3.9160   38.0040 N.3    78  ARG78      -0.1245
     11  CA        -9.5740   -3.5150   37.6220 C.3    78  ARG78       0.1563
     12  C         -9.3210   -2.1590   38.2570 C.2    78  ARG78       0.2260
     13  O        -10.1240   -1.2300   38.0730 O.2    78  ARG78      -0.2867
     14  CB        -9.4540   -3.4480   36.0920 C.3    78  ARG78       0.0307
     15  CG        -8.1170   -2.8780   35.6250 C.3    78  ARG78       0.0489
     16  CD        -7.7950   -3.1330   34.1400 C.3    78  ARG78       0.2205
     17  NE        -6.5100   -2.4820   33.8970 N.pl3  78  ARG78      -0.0865
     18  CZ        -6.2890   -1.5610   32.9770 C.cat  78  ARG78       0.5346
     19  NH1       -7.2450   -1.2340   32.1040 N.pl3  78  ARG78       0.1354
     20  NH2       -5.0920   -1.0040   32.8970 N.pl3  78  ARG78       0.1354
     21  N         -0.4920    3.1800   36.0170 N.3   122  HIS122     -0.1226
     22  CA        -1.4790    3.8490   35.1580 C.3   122  HIS122      0.1752
     23  C         -1.1690    5.3550   35.1110 C.2   122  HIS122      0.2596
     24  O         -2.0050    6.1870   35.4730 O.2   122  HIS122     -0.2718
     25  CB        -2.8920    3.5490   35.6610 C.3   122  HIS122      0.0759
     26  CG        -3.9650    3.6770   34.6190 C.ar  122  HIS122      0.0818
     27  ND1       -4.8490    2.6610   34.3440 N.ar  122  HIS122     -0.2268
     28  CD2       -4.3120    4.7120   33.8100 C.ar  122  HIS122      0.1154
     29  CE1       -5.7030    3.0620   33.4130 C.ar  122  HIS122      0.1986
     30  NE2       -5.4070    4.3090   33.0860 N.ar  122  HIS122     -0.2212
     31  N          0.0750    5.6620   34.7230 N.am  123  TRP123     -0.1976
     32  CA         0.5300    7.0000   34.2370 C.3   123  TRP123      0.1640
     33  C          1.0280    7.9670   35.2910 C.2   123  TRP123      0.2290
     34  O          1.5510    9.0370   34.9460 O.2   123  TRP123     -0.2864
     35  CB        -0.5470    7.7040   33.3920 C.3   123  TRP123      0.0576
     36  CG        -1.0430    6.9150   32.2130 C.ar  123  TRP123      0.0006
     37  CD1       -0.6760    5.6370   31.8300 C.ar  123  TRP123      0.0946
     38  CD2       -2.0570    7.3310   31.3090 C.ar  123  TRP123      0.0152
     39  NE1       -1.3730    5.2740   30.6950 N.ar  123  TRP123     -0.2442
     40  CE2       -2.2420    6.2870   30.3700 C.ar  123  TRP123      0.0810
     41  CE3       -2.8180    8.5050   31.1820 C.ar  123  TRP123      0.0012
     42  CZ2       -3.1580    6.3840   29.3130 C.ar  123  TRP123      0.0191
     43  CZ3       -3.7340    8.5990   30.1230 C.ar  123  TRP123      0.0001
     44  CH2       -3.8920    7.5480   29.2100 C.ar  123  TRP123      0.0015
     45  N         -0.1910    0.3050   31.8730 N.3   167  ASN167     -0.1225
     46  CA        -1.3680    0.6820   31.1040 C.3   167  ASN167      0.1785
     47  C         -1.0050    1.5520   29.9000 C.2   167  ASN167      0.2597
     48  O         -0.4410    2.6550   30.0570 O.2   167  ASN167     -0.2718
     49  CB        -2.3790    1.4330   31.9840 C.3   167  ASN167      0.1169
     50  CG        -3.6530    1.7380   31.2400 C.2   167  ASN167      0.2627
     51  OD1       -4.4380    0.8340   30.9710 O.2   167  ASN167     -0.2716
     52  ND2       -3.8410    3.0120   30.8400 N.am  167  ASN167     -0.0877
     53  N         -1.3240    1.0600   28.7020 N.am  168  GLN168     -0.1979
     54  CA        -1.1860    1.8450   27.4500 C.3   168  GLN168      0.1601
     55  C          0.1670    2.5500   27.2760 C.2   168  GLN168      0.2287
     56  O          0.2220    3.7770   27.1140 O.2   168  GLN168     -0.2864
     57  CB        -2.3480    2.8580   27.3350 C.3   168  GLN168      0.0394
     58  CG        -3.6810    2.1650   27.4010 C.3   168  GLN168      0.0908
     59  CD        -4.8720    3.0390   27.1350 C.2   168  GLN168      0.2608
     60  OE1       -5.9930    2.6150   27.4150 O.2   168  GLN168     -0.2717
     61  NE2       -4.6650    4.2600   26.5870 N.am  168  GLN168     -0.0878
     62  N         -7.0570   -2.7860   25.4340 N.3   309  ASN309     -0.1240
     63  CA        -7.9170   -1.6570   25.6680 C.3   309  ASN309      0.1653
     64  C         -8.3520   -1.1700   24.2840 C.2   309  ASN309      0.2266
     65  O         -7.5520   -0.6280   23.5410 O.2   309  ASN309     -0.2867
     66  CB        -7.1400   -0.5520   26.3830 C.3   309  ASN309      0.1155
     67  CG        -6.7890   -0.9030   27.8410 C.2   309  ASN309      0.2627
     68  OD1       -7.0850   -1.9920   28.3330 O.2   309  ASN309     -0.2716
     69  ND2       -6.1880    0.0610   28.5480 N.am  309  ASN309     -0.0877
     70  N        -11.4840    0.7010   21.8570 N.3   311  TYR311     -0.1241
     71  CA       -12.6790    1.5220   21.7530 C.3   311  TYR311      0.1605
     72  C        -13.2150    1.6360   20.3300 C.2   311  TYR311      0.2264
     73  O        -14.4230    1.6940   20.1160 O.2   311  TYR311     -0.2867
     74  CB       -12.3770    2.9500   22.2230 C.3   311  TYR311      0.0534
     75  CG       -12.1330    3.0450   23.6990 C.ar  311  TYR311     -0.0201
     76  CD1      -10.8440    3.0130   24.2090 C.ar  311  TYR311     -0.0009
     77  CD2      -13.1950    3.1720   24.5880 C.ar  311  TYR311     -0.0009
     78  CE1      -10.6170    3.0930   25.5740 C.ar  311  TYR311      0.0417
     79  CE2      -12.9720    3.2830   25.9600 C.ar  311  TYR311      0.0417
     80  CZ       -11.6960    3.2390   26.4420 C.ar  311  TYR311      0.1957
     81  OH       -11.4770    3.3290   27.7940 O.3   311  TYR311     -0.2866
     82  N        -12.6240   11.4940   19.3300 N.3   356  TRP356     -0.1241
     83  CA       -11.8830   10.4100   18.6970 C.3   356  TRP356      0.1605
     84  C        -12.6300    9.0650   18.6870 C.2   356  TRP356      0.2264
     85  O        -12.1880    8.1180   18.0320 O.2   356  TRP356     -0.2867
     86  CB       -10.5250   10.2530   19.4050 C.3   356  TRP356      0.0550
     87  CG       -10.6390   10.1210   20.9180 C.ar  356  TRP356      0.0003
     88  CD1      -10.5330   11.1300   21.8430 C.ar  356  TRP356      0.0946
     89  CD2      -10.8670    8.9130   21.6700 C.ar  356  TRP356      0.0152
     90  NE1      -10.6990   10.6230   23.1180 N.ar  356  TRP356     -0.2442
     91  CE2      -10.8950    9.2710   23.0440 C.ar  356  TRP356      0.0810
     92  CE3      -11.0420    7.5650   21.3180 C.ar  356  TRP356      0.0012
     93  CZ2      -11.0990    8.3300   24.0670 C.ar  356  TRP356      0.0191
     94  CZ3      -11.2460    6.6180   22.3500 C.ar  356  TRP356      0.0001
     95  CH2      -11.2870    7.0160   23.6990 C.ar  356  TRP356      0.0015
     96  N        -10.1430   -2.8550   28.8920 N.3   384  GLU384     -0.1245
     97  CA       -10.8760   -1.5770   28.8110 C.3   384  GLU384      0.1567
     98  C        -11.7630   -1.5570   27.5530 C.2   384  GLU384      0.2260
     99  O        -11.2730   -1.8040   26.4610 O.2   384  GLU384     -0.2867
    100  CB        -9.8550   -0.4340   28.7320 C.3   384  GLU384      0.0388
    101  CG       -10.3220    0.9300   29.1310 C.3   384  GLU384      0.1160
    102  CD        -9.4240    2.0160   28.5510 C.2   384  GLU384      0.3649
    103  OE1       -9.2190    3.0560   29.2080 O.co2 384  GLU384     -0.2457
    104  OE2       -8.9070    1.8280   27.4320 O.co2 384  GLU384     -0.2457
    105  N        -15.0300    0.1900   30.7390 N.3   434  TRP434     -0.1241
    106  CA       -14.5870    1.5140   31.1740 C.3   434  TRP434      0.1605
    107  C        -15.8450    2.3910   31.1320 C.2   434  TRP434      0.2264
    108  O        -16.4000    2.6060   30.0490 O.2   434  TRP434     -0.2867
    109  CB       -13.4790    2.1000   30.2640 C.3   434  TRP434      0.0550
    110  CG       -12.9460    3.3630   30.8740 C.ar  434  TRP434      0.0003
    111  CD1      -13.3690    4.6550   30.6120 C.ar  434  TRP434      0.0946
    112  CD2      -11.9720    3.4650   31.9240 C.ar  434  TRP434      0.0152
    113  NE1      -12.7190    5.5420   31.4430 N.ar  434  TRP434     -0.2442
    114  CE2      -11.8540    4.8480   32.2550 C.ar  434  TRP434      0.0810
    115  CE3      -11.2150    2.5260   32.6400 C.ar  434  TRP434      0.0012
    116  CZ2      -10.9790    5.3170   33.2530 C.ar  434  TRP434      0.0191
    117  CZ3      -10.3090    2.9940   33.6300 C.ar  434  TRP434      0.0001
    118  CH2      -10.2160    4.3790   33.9320 C.ar  434  TRP434      0.0015
    119  N        -11.2130   12.5750   33.3410 N.3   441  GLU441     -0.1231
    120  CA       -10.7370   12.0210   32.0880 C.3   441  GLU441      0.1699
    121  C         -9.4980   12.7600   31.5440 C.2   441  GLU441      0.2592
    122  O         -9.5050   13.3030   30.4210 O.2   441  GLU441     -0.2718
    123  CB       -11.9060   11.9890   31.0740 C.3   441  GLU441      0.0402
    124  CG       -11.5870   11.4520   29.6490 C.3   441  GLU441      0.1161
    125  CD       -10.9360   10.0710   29.6520 C.2   441  GLU441      0.3649
    126  OE1      -11.2030    9.2550   30.5650 O.co2 441  GLU441     -0.2457
    127  OE2      -10.1390    9.8070   28.7320 O.co2 441  GLU441     -0.2457
    128  N         -8.4270   12.7740   32.3450 N.am  442  TRP442     -0.1976
    129  CA        -7.1300   13.2860   31.8910 C.3   442  TRP442      0.1640
    130  C         -7.2700   14.7220   31.3700 C.2   442  TRP442      0.2290
    131  O         -7.9300   15.5120   32.0380 O.2   442  TRP442     -0.2864
    132  CB        -6.4950   12.3160   30.8810 C.3   442  TRP442      0.0576
    133  CG        -6.3570   10.8860   31.4530 C.ar  442  TRP442      0.0006
    134  CD1       -6.9810    9.7600   30.9870 C.ar  442  TRP442      0.0946
    135  CD2       -5.5880   10.4750   32.6030 C.ar  442  TRP442      0.0152
    136  NE1       -6.6170    8.6630   31.7510 N.ar  442  TRP442     -0.2442
    137  CE2       -5.7810    9.0740   32.7570 C.ar  442  TRP442      0.0810
    138  CE3       -4.7360   11.1480   33.5080 C.ar  442  TRP442      0.0012
    139  CZ2       -5.1490    8.3240   33.7750 C.ar  442  TRP442      0.0191
    140  CZ3       -4.1060   10.4120   34.5210 C.ar  442  TRP442      0.0001
    141  CH2       -4.3020    8.9990   34.6340 C.ar  442  TRP442      0.0015
    142  N        -17.7390    8.6140   31.3550 N.3   450  PHE450     -0.1241
    143  CA       -17.5920    7.2210   30.9060 C.3   450  PHE450      0.1605
    144  C        -18.2850    6.2160   31.8260 C.2   450  PHE450      0.2264
    145  O        -18.2880    5.0030   31.5420 O.2   450  PHE450     -0.2867
    146  CB       -16.0980    6.8500   30.8460 C.3   450  PHE450      0.0534
    147  CG       -15.4380    7.1510   29.5280 C.ar  450  PHE450     -0.0203
    148  CD1      -14.6810    8.3020   29.3630 C.ar  450  PHE450     -0.0042
    149  CD2      -15.5600    6.2600   28.4600 C.ar  450  PHE450     -0.0042
    150  CE1      -14.0600    8.5890   28.1210 C.ar  450  PHE450     -0.0003
    151  CE2      -14.9310    6.5190   27.2220 C.ar  450  PHE450     -0.0003
    152  CZ       -14.1840    7.6960   27.0580 C.ar  450  PHE450     -0.0000
@<TRIPOS>BOND
     1    85    84    2
     2    84    83    1
     3    83    82    1
     4    83    86    1
     5    86    87    1
     6    73    72    2
     7    72    71    1
     8    87    89   ar
     9    87    88   ar
    10    92    89   ar
    11    92    94   ar
    12    89    91   ar
    13    71    70    1
    14    71    74    1
    15    88    90   ar
    16    74    75    1
    17    94    95   ar
    18    91    90   ar
    19    91    93   ar
    20    65    64    2
    21    75    76   ar
    22    75    77   ar
    23    95    93   ar
    24    76    78   ar
    25    64    63    1
    26    77    79   ar
    27    62    63    1
    28    78    80   ar
    29    63    66    1
    30    79    80   ar
    31    66    67    1
    32    80    81    1
    33    99    98    2
    34    61    59   am
    35   152   151   ar
    36   152   150   ar
    37    56    55    2
    38    59    58    1
    39    59    60    2
    40   151   149   ar
    41    55    54    1
    42    57    58    1
    43    57    54    1
    44   104   102   ar
    45    54    53    1
    46    98    97    1
    47    67    68    2
    48    67    69   am
    49   150   148   ar
    50   149   147   ar
    51   102   101    1
    52   102   103   ar
    53    53    47   am
    54   127   125   ar
    55   100    97    1
    56   100   101    1
    57    97    96    1
    58    44    42   ar
    59    44    43   ar
    60    42    40   ar
    61   148   147   ar
    62   147   146    1
    63   124   125    1
    64   124   123    1
    65   125   126   ar
    66    47    48    2
    67    47    46    1
    68   108   107    2
    69    43    41   ar
    70   109   110    1
    71   109   106    1
    72    40    39   ar
    73    40    38   ar
    74   122   121    2
    75   111   110   ar
    76   111   113   ar
    77    39    37   ar
    78   105   106    1
    79    52    50   am
    80   146   143    1
    81   110   112   ar
    82   132   133    1
    83   132   129    1
    84   143   142    1
    85   143   144    1
    86    51    50    2
    87   134   133   ar
    88   134   136   ar
    89   123   120    1
    90    46    45    1
    91    46    49    1
    92   107   106    1
    93    41    38   ar
    94    50    49    1
    95    38    36   ar
    96   130   129    1
    97   130   131    2
    98   113   114   ar
    99   133   135   ar
   100   145   144    2
   101   121   120    1
   102   121   128   am
   103   136   137   ar
   104    37    36   ar
   105   129   128    1
   106   112   114   ar
   107   112   115   ar
   108   120   119    1
   109    19    18    1
   110    36    35    1
   111   114   116   ar
   112   135   137   ar
   113   135   138   ar
   114   115   117   ar
   115   137   139   ar
   116    20    18    1
   117    18    17    2
   118    30    29   ar
   119    30    28   ar
   120   116   118   ar
   121    35    32    1
   122     9     7   am
   123    29    27   ar
   124   138   140   ar
   125   117   118   ar
   126   139   141   ar
   127    28    26   ar
   128    17    16    1
   129     8     7    2
   130    16    15    1
   131     7     6    1
   132    32    31    1
   133    32    33    1
   134    27    26   ar
   135   140   141   ar
   136    26    25    1
   137    31    23   am
   138    34    33    2
   139    23    22    1
   140    23    24    2
   141    22    25    1
   142    22    21    1
   143     6     5    1
   144    15    14    1
   145    14    11    1
   146     5     2    1
   147    11    10    1
   148    11    12    1
   149     2     1    1
   150     2     3    1
   151    13    12    2
   152     4     3    2
