@<TRIPOS>MOLECULE
tmp/3wbfB01.pdb
 221 213 0 0 0
SMALL
GASTEIGER

@<TRIPOS>ATOM
      1  N          2.1580   12.9020   43.2940 N.3     8  GLY8       -0.1210
      2  CA         1.0760   13.5370   44.0350 C.3     8  GLY8        0.1956
      3  C         -0.0620   13.8340   43.0760 C.2     8  GLY8        0.2612
      4  O          0.0580   14.7260   42.2250 O.2     8  GLY8       -0.2717
      5  N         -1.1660   13.1030   43.2060 N.am    9  TYR9       -0.1962
      6  CA        -2.2980   13.2830   42.3040 C.3     9  TYR9        0.1771
      7  C         -3.4490   14.1030   42.8730 C.2     9  TYR9        0.2620
      8  O         -4.5680   13.6040   43.0300 O.2     9  TYR9       -0.2715
      9  CB        -2.8290   11.9240   41.8500 C.3     9  TYR9        0.0574
     10  CG        -3.6530   11.9890   40.5820 C.ar    9  TYR9       -0.0198
     11  CD1       -3.0810   12.4250   39.3850 C.ar    9  TYR9       -0.0009
     12  CD2       -5.0000   11.6100   40.5740 C.ar    9  TYR9       -0.0009
     13  CE1       -3.8220   12.4830   38.2120 C.ar    9  TYR9        0.0417
     14  CE2       -5.7550   11.6670   39.4040 C.ar    9  TYR9        0.0417
     15  CZ        -5.1540   12.1070   38.2240 C.ar    9  TYR9        0.1957
     16  OH        -5.8780   12.1810   37.0580 O.3     9  TYR9       -0.2866
     17  N         -3.1690   15.3600   43.1820 N.am   10  GLY10      -0.1940
     18  CA        -4.1980   16.2390   43.6940 C.3    10  GLY10       0.2014
     19  C         -4.5290   17.2520   42.6100 C.2    10  GLY10       0.2639
     20  O         -4.4740   16.9330   41.4160 O.2    10  GLY10      -0.2714
     21  N         -4.8510   18.4750   43.0150 N.am   11  ASN11      -0.1958
     22  CA        -5.1940   19.5250   42.0650 C.3    11  ASN11       0.1819
     23  C         -4.1160   19.7420   41.0010 C.2    11  ASN11       0.2621
     24  O         -4.3500   19.4840   39.8240 O.2    11  ASN11      -0.2715
     25  CB        -5.4810   20.8360   42.8110 C.3    11  ASN11       0.1195
     26  CG        -6.7340   20.7550   43.6620 C.2    11  ASN11       0.2630
     27  OD1       -6.6860   20.9110   44.8800 O.2    11  ASN11      -0.2716
     28  ND2       -7.8660   20.5010   43.0200 N.am   11  ASN11      -0.0877
     29  N         -2.9380   20.2060   41.4100 N.am   12  VAL12      -0.1977
     30  CA        -1.8590   20.4520   40.4610 C.3    12  VAL12       0.1596
     31  C         -1.4410   19.1680   39.7560 C.2    12  VAL12       0.2287
     32  O         -1.1250   19.1790   38.5680 O.2    12  VAL12      -0.2864
     33  CB        -0.6190   21.0390   41.1490 C.3    12  VAL12       0.0276
     34  CG1        0.4830   21.2730   40.1150 C.3    12  VAL12       0.0022
     35  CG2       -0.9820   22.3400   41.8570 C.3    12  VAL12       0.0022
     36  N          1.5840    7.7750   43.8120 N.3    33  ARG33      -0.1231
     37  CA         0.5930    8.1300   44.8160 C.3    33  ARG33       0.1694
     38  C          0.8690    7.3820   46.1110 C.2    33  ARG33       0.2592
     39  O          1.4810    6.3070   46.1010 O.2    33  ARG33      -0.2718
     40  CB        -0.8110    7.7790   44.3240 C.3    33  ARG33       0.0321
     41  CG        -1.1800    8.3740   42.9780 C.3    33  ARG33       0.0489
     42  CD        -2.6810    8.2490   42.7340 C.3    33  ARG33       0.2205
     43  NE        -3.4400    9.1090   43.6410 N.pl3  33  ARG33      -0.0865
     44  CZ        -4.7680    9.2000   43.6680 C.cat  33  ARG33       0.5346
     45  NH1       -5.5050    8.4760   42.8320 N.pl3  33  ARG33       0.1354
     46  NH2       -5.3570   10.0280   44.5280 N.pl3  33  ARG33       0.1354
     47  N          0.4130    7.9470   47.2250 N.am   34  ARG34      -0.1966
     48  CA         0.6050    7.3200   48.5290 C.3    34  ARG34       0.1729
     49  C         -0.1620    6.0090   48.5720 C.2    34  ARG34       0.2616
     50  O          0.2160    5.0780   49.2820 O.2    34  ARG34      -0.2715
     51  CB         0.1120    8.2430   49.6460 C.3    34  ARG34       0.0348
     52  CG         0.9390    9.5180   49.8220 C.3    34  ARG34       0.0492
     53  CD         0.1730   10.5520   50.6350 C.3    34  ARG34       0.2205
     54  NE        -1.0760   10.9260   49.9760 N.pl3  34  ARG34      -0.0865
     55  CZ        -2.0860   11.5480   50.5750 C.cat  34  ARG34       0.5346
     56  NH1       -1.9980   11.8730   51.8530 N.pl3  34  ARG34       0.1354
     57  NH2       -3.1930   11.8260   49.9000 N.pl3  34  ARG34       0.1354
     58  N         -1.2450    5.9430   47.8050 N.am   35  LYS35      -0.1977
     59  CA        -2.0660    4.7460   47.7500 C.3    35  LYS35       0.1596
     60  C         -2.6680    4.5450   46.3700 C.2    35  LYS35       0.2287
     61  O         -2.9120    5.5040   45.6430 O.2    35  LYS35      -0.2864
     62  CB        -3.1860    4.8250   48.7930 C.3    35  LYS35       0.0298
     63  CG        -2.7310    4.5010   50.2010 C.3    35  LYS35       0.0038
     64  CD        -3.8320    4.7460   51.2120 C.3    35  LYS35       0.0206
     65  CE        -3.5190    4.0580   52.5320 C.3    35  LYS35       0.1093
     66  NZ        -2.1360    4.3610   53.0010 N.3    35  LYS35      -0.1314
     67  N          4.1700   17.4100   42.8670 N.3    65  CYS65      -0.1221
     68  CA         2.8960   18.0910   43.0280 C.3    65  CYS65       0.1808
     69  C          2.2630   17.7780   44.3890 C.2    65  CYS65       0.2601
     70  O          1.0570   17.5540   44.4910 O.2    65  CYS65      -0.2717
     71  CB         1.9560   17.6870   41.8870 C.3    65  CYS65       0.0970
     72  SG         2.6770   17.9150   40.2190 S.3    65  CYS65      -0.0800
     73  N          3.0950   17.7810   45.4260 N.am   66  VAL66      -0.1966
     74  CA         2.6640   17.4960   46.7970 C.3    66  VAL66       0.1712
     75  C          2.5510   18.7850   47.6230 C.2    66  VAL66       0.2458
     76  O          2.9430   19.8650   47.1690 O.2    66  VAL66      -0.2730
     77  CB         3.6730   16.5510   47.5070 C.3    66  VAL66       0.0289
     78  CG1        3.8240   15.2550   46.7200 C.3    66  VAL66       0.0023
     79  CG2        5.0250   17.2530   47.6660 C.3    66  VAL66       0.0023
     80  N          2.0150   18.6910   48.8550 N.am   67  PRO67      -0.2716
     81  CA         1.8970   19.9100   49.6640 C.3    67  PRO67       0.1536
     82  C          3.2310   20.6510   49.7490 C.2    67  PRO67       0.2599
     83  O          4.2930   20.0290   49.7710 O.2    67  PRO67      -0.2715
     84  CB         1.4430   19.3770   51.0200 C.3    67  PRO67       0.0310
     85  CG         0.6200   18.1850   50.6460 C.3    67  PRO67       0.0237
     86  CD         1.4830   17.5260   49.5840 C.3    67  PRO67       0.0939
     87  N          3.1770   21.9770   49.7980 N.am   68  THR68      -0.1951
     88  CA         4.3970   22.7720   49.8820 C.3    68  THR68       0.1897
     89  C          5.2940   22.3150   51.0260 C.2    68  THR68       0.2313
     90  O          6.4870   22.0870   50.8380 O.2    68  THR68      -0.2863
     91  CB         4.0710   24.2690   50.0450 C.3    68  THR68       0.1794
     92  OG1        3.8330   24.8370   48.7510 O.3    68  THR68      -0.2208
     93  CG2        5.2190   25.0140   50.7180 C.3    68  THR68       0.0378
     94  N          5.6690   19.5590   52.2960 N.3    70  SER70      -0.1217
     95  CA         6.1910   18.2060   52.0980 C.3    70  SER70       0.1889
     96  C          7.2720   18.2010   51.0130 C.2    70  SER70       0.2288
     97  O          8.0010   17.2270   50.8580 O.2    70  SER70      -0.2866
     98  CB         5.0710   17.2490   51.6760 C.3    70  SER70       0.2089
     99  OG         4.1310   17.0490   52.7140 O.3    70  SER70      -0.2183
    100  N         10.5080   15.3610   49.8750 N.3    74  TYR74      -0.1241
    101  CA        10.2840   14.6860   48.5990 C.3    74  TYR74       0.1605
    102  C         11.4090   15.0090   47.6120 C.2    74  TYR74       0.2264
    103  O         11.9410   14.1220   46.9430 O.2    74  TYR74      -0.2867
    104  CB         8.9410   15.1040   47.9920 C.3    74  TYR74       0.0534
    105  CG         7.7850   14.2090   48.3780 C.ar   74  TYR74      -0.0201
    106  CD1        7.1920   14.2950   49.6430 C.ar   74  TYR74      -0.0009
    107  CD2        7.2880   13.2650   47.4800 C.ar   74  TYR74      -0.0009
    108  CE1        6.1310   13.4600   50.0000 C.ar   74  TYR74       0.0417
    109  CE2        6.2330   12.4260   47.8200 C.ar   74  TYR74       0.0417
    110  CZ         5.6570   12.5240   49.0790 C.ar   74  TYR74       0.1957
    111  OH         4.6130   11.6830   49.4100 O.3    74  TYR74      -0.2866
    112  N          6.6650   23.5710   43.1820 N.3    88  SER88      -0.1217
    113  CA         6.1570   24.9320   43.2150 C.3    88  SER88       0.1889
    114  C          6.1210   25.4950   44.6350 C.2    88  SER88       0.2288
    115  O          5.2570   26.3160   44.9660 O.2    88  SER88      -0.2866
    116  CB         4.7690   25.0000   42.5770 C.3    88  SER88       0.2089
    117  OG         3.8910   24.0440   43.1380 O.3    88  SER88      -0.2183
    118  N          5.8450   27.3990   47.5710 N.3    90  ASP90      -0.1239
    119  CA         5.4640   28.8090   47.6150 C.3    90  ASP90       0.1674
    120  C          5.7260   29.6700   48.8490 C.2    90  ASP90       0.2266
    121  O          5.1640   30.7590   48.9490 O.2    90  ASP90      -0.2867
    122  CB         3.9850   28.9510   47.2310 C.3    90  ASP90       0.1410
    123  CG         3.0430   28.3010   48.2410 C.2    90  ASP90       0.3668
    124  OD1        3.4990   27.8910   49.3300 O.co2  90  ASP90      -0.2456
    125  OD2        1.8340   28.2100   47.9370 O.co2  90  ASP90      -0.2456
    126  N          6.1100   27.7500   40.0280 N.3   118  GLY118     -0.1210
    127  CA         4.6950   27.8500   39.7010 C.3   118  GLY118      0.1956
    128  C          4.5760   29.2210   39.0540 C.2   118  GLY118      0.2612
    129  O          5.5280   29.6530   38.3950 O.2   118  GLY118     -0.2717
    130  N          3.4510   29.9160   39.2050 N.am  119  TRP119     -0.1962
    131  CA         3.3760   31.2520   38.6210 C.3   119  TRP119      0.1771
    132  C          3.7930   32.3110   39.6370 C.2   119  TRP119      0.2620
    133  O          4.1410   33.4320   39.2630 O.2   119  TRP119     -0.2715
    134  CB         1.9850   31.5750   38.0360 C.3   119  TRP119      0.0590
    135  CG         0.7870   31.3480   38.9150 C.ar  119  TRP119      0.0006
    136  CD1        0.1270   30.1750   39.1040 C.ar  119  TRP119      0.0946
    137  CD2        0.0480   32.3450   39.6300 C.ar  119  TRP119      0.0152
    138  NE1       -0.9850   30.3750   39.8800 N.ar  119  TRP119     -0.2442
    139  CE2       -1.0580   31.7000   40.2190 C.ar  119  TRP119      0.0810
    140  CE3        0.2110   33.7230   39.8250 C.ar  119  TRP119      0.0012
    141  CZ2       -2.0030   32.3830   40.9940 C.ar  119  TRP119      0.0191
    142  CZ3       -0.7320   34.4080   40.5980 C.ar  119  TRP119      0.0001
    143  CH2       -1.8230   33.7330   41.1710 C.ar  119  TRP119      0.0015
    144  N          3.7550   31.9600   40.9210 N.am  120  ASP120     -0.1958
    145  CA         4.1880   32.8840   41.9660 C.3   120  ASP120      0.1825
    146  C          4.3080   32.1950   43.3230 C.2   120  ASP120      0.2464
    147  O          3.3070   31.9460   43.9880 O.2   120  ASP120     -0.2730
    148  CB         3.2400   34.0790   42.0850 C.3   120  ASP120      0.1450
    149  CG         3.9370   35.3070   42.6470 C.2   120  ASP120      0.3671
    150  OD1        4.8650   35.1330   43.4700 O.co2 120  ASP120     -0.2456
    151  OD2        3.5620   36.4370   42.2740 O.co2 120  ASP120     -0.2456
    152  N          5.5420   31.8740   43.7480 N.am  121  PRO121     -0.2727
    153  CA         6.7880   32.1340   43.0160 C.3   121  PRO121      0.1402
    154  C          6.8660   31.4030   41.6750 C.2   121  PRO121      0.2269
    155  O          6.1750   30.4090   41.4530 O.2   121  PRO121     -0.2865
    156  CB         7.8640   31.6690   43.9960 C.3   121  PRO121      0.0296
    157  CG         7.1940   30.5180   44.6860 C.3   121  PRO121      0.0237
    158  CD         5.8000   31.0550   44.9490 C.3   121  PRO121      0.0939
    159  N         -8.7010   31.6380   44.2460 N.3   148  MET148     -0.1245
    160  CA        -8.3470   30.6060   45.2030 C.3   148  MET148      0.1570
    161  C         -6.8450   30.3930   45.2930 C.2   148  MET148      0.2261
    162  O         -6.1550   30.3320   44.2730 O.2   148  MET148     -0.2867
    163  CB        -9.0160   29.2810   44.8150 C.3   148  MET148      0.0387
    164  CG        -8.6720   28.1080   45.7240 C.3   148  MET148      0.0595
    165  SD        -9.3740   26.5580   45.1450 S.3   148  MET148     -0.1393
    166  CE        -8.2860   25.3700   45.9360 C.3   148  MET148      0.0692
    167  N         -4.1970   27.8050   46.1230 N.3   150  MET150     -0.1230
    168  CA        -4.0490   26.3710   46.3140 C.3   150  MET150      0.1702
    169  C         -3.2450   26.1060   47.5850 C.2   150  MET150      0.2592
    170  O         -3.5710   25.2030   48.3560 O.2   150  MET150     -0.2718
    171  CB        -3.3450   25.7350   45.1120 C.3   150  MET150      0.0401
    172  CG        -3.9630   26.0750   43.7710 C.3   150  MET150      0.0596
    173  SD        -5.7440   25.8000   43.7090 S.3   150  MET150     -0.1393
    174  CE        -6.3050   27.4310   43.7080 C.3   150  MET150      0.0692
    175  N         -2.2020   26.9080   47.7960 N.am  151  GLY151     -0.1957
    176  CA        -1.3500   26.7570   48.9650 C.3   151  GLY151      0.1869
    177  C         -2.0770   26.9160   50.2930 C.2   151  GLY151      0.2309
    178  O         -2.0190   26.0280   51.1500 O.2   151  GLY151     -0.2863
    179  N         -4.5620   24.0760   50.9360 N.3   154  VAL154     -0.1245
    180  CA        -3.9320   22.8510   51.4070 C.3   154  VAL154      0.1561
    181  C         -3.6880   22.9550   52.9090 C.2   154  VAL154      0.2260
    182  O         -3.9620   22.0170   53.6600 O.2   154  VAL154     -0.2867
    183  CB        -2.5830   22.6030   50.6980 C.3   154  VAL154      0.0252
    184  CG1       -1.8670   21.4170   51.3350 C.3   154  VAL154      0.0019
    185  CG2       -2.8180   22.3350   49.2170 C.3   154  VAL154      0.0019
    186  N         -6.9130   22.6140   54.8080 N.3   157  LYS157     -0.1245
    187  CA        -7.3600   21.2350   54.6250 C.3   157  LYS157      0.1561
    188  C         -6.7010   20.2980   55.6340 C.2   157  LYS157      0.2260
    189  O         -7.3510   19.4150   56.1960 O.2   157  LYS157     -0.2867
    190  CB        -7.0110   20.7510   53.2140 C.3   157  LYS157      0.0271
    191  CG        -8.2010   20.4750   52.3130 C.3   157  LYS157      0.0035
    192  CD        -8.1700   21.3590   51.0700 C.3   157  LYS157      0.0206
    193  CE        -6.8360   21.2690   50.3230 C.3   157  LYS157      0.1093
    194  NZ        -6.5040   19.8840   49.8790 N.3   157  LYS157     -0.1314
    195  N          0.8540   30.8620   57.2380 N.3   203  TYR203     -0.1241
    196  CA         0.2810   31.2370   55.9490 C.3   203  TYR203      0.1605
    197  C         -0.7280   32.3670   56.1060 C.2   203  TYR203      0.2264
    198  O         -0.9330   33.1490   55.1810 O.2   203  TYR203     -0.2867
    199  CB        -0.4500   30.0440   55.3270 C.3   203  TYR203      0.0534
    200  CG         0.3230   29.2430   54.2970 C.ar  203  TYR203     -0.0201
    201  CD1        0.6440   29.7920   53.0560 C.ar  203  TYR203     -0.0009
    202  CD2        0.6760   27.9130   54.5410 C.ar  203  TYR203     -0.0009
    203  CE1        1.2860   29.0360   52.0800 C.ar  203  TYR203      0.0417
    204  CE2        1.3220   27.1490   53.5720 C.ar  203  TYR203      0.0417
    205  CZ         1.6190   27.7180   52.3440 C.ar  203  TYR203      0.1957
    206  OH         2.2230   26.9650   51.3710 O.3   203  TYR203     -0.2866
    207  N         -5.6480   28.5110   38.2030 N.3   251  ASN251     -0.1240
    208  CA        -4.4540   28.4180   39.0330 C.3   251  ASN251      0.1653
    209  C         -3.6620   27.1060   38.8710 C.2   251  ASN251      0.2266
    210  O         -2.5590   27.1100   38.3190 O.2   251  ASN251     -0.2867
    211  CB        -4.8340   28.6510   40.5000 C.3   251  ASN251      0.1155
    212  CG        -3.6220   28.7800   41.4080 C.2   251  ASN251      0.2627
    213  OD1       -2.5480   28.2790   41.0920 O.2   251  ASN251     -0.2716
    214  ND2       -3.7980   29.4370   42.5520 N.am  251  ASN251     -0.0877
    215  N          0.1770   26.4640   36.9560 N.3   255  THR255     -0.1218
    216  CA         1.2820   25.9750   37.7760 C.3   255  THR255      0.1862
    217  C          1.8610   24.6790   37.2200 C.2   255  THR255      0.2287
    218  O          3.0760   24.5350   37.1020 O.2   255  THR255     -0.2866
    219  CB         0.8350   25.7150   39.2320 C.3   255  THR255      0.1770
    220  OG1        0.3170   26.9220   39.7990 O.3   255  THR255     -0.2211
    221  CG2        2.0160   25.2380   40.0720 C.3   255  THR255      0.0375
@<TRIPOS>BOND
     1   215   216    1
     2    16    15    1
     3   218   217    2
     4   217   216    1
     5   216   219    1
     6   134   131    1
     7   134   135    1
     8   207   208    1
     9    13    15   ar
    10    13    11   ar
    11    15    14   ar
    12   210   209    2
    13   129   128    2
    14    32    31    2
    15   131   130    1
    16   131   132    1
    17   209   208    1
    18   135   136   ar
    19   135   137   ar
    20   208   211    1
    21   128   130   am
    22   128   127    1
    23   136   138   ar
    24   219   220    1
    25   219   221    1
    26   133   132    2
    27    11    10   ar
    28    14    12   ar
    29   137   140   ar
    30   137   139   ar
    31   132   144   am
    32   127   126    1
    33    31    30    1
    34    24    23    2
    35   140   142   ar
    36   138   139   ar
    37    34    33    1
    38   139   141   ar
    39    72    71    1
    40    30    33    1
    41    30    29    1
    42   211   212    1
    43    12    10   ar
    44    10     9    1
    45   142   143   ar
    46   144   145    1
    47   141   143   ar
    48    23    29   am
    49    23    22    1
    50   213   212    2
    51    33    35    1
    52   212   214   am
    53    20    19    2
    54   155   154    2
    55   154   153    1
    56     9     6    1
    57    71    68    1
    58   145   148    1
    59   145   146    1
    60    22    25    1
    61    22    21    1
    62   148   149    1
    63     4     3    2
    64   151   149   ar
    65     6     7    1
    66     6     5    1
    67   116   117    1
    68   116   113    1
    69    19    21   am
    70    19    18    1
    71   149   150   ar
    72    42    41    1
    73    42    43    1
    74    25    26    1
    75    45    44    1
    76    67    68    1
    77     7     8    2
    78     7    17   am
    79    41    40    1
    80   153   152    1
    81   153   156    1
    82    28    26   am
    83    68    69    1
    84     3     5   am
    85     3     2    1
    86    17    18    1
    87   112   113    1
    88   113   114    1
    89     1     2    1
    90   146   152   am
    91   146   147    2
    92    43    44    2
    93    26    27    2
    94    44    46    1
    95   174   173    1
    96   173   172    1
    97   152   158    1
    98   172   171    1
    99    36    37    1
   100   156   157    1
   101   159   160    1
   102   162   161    2
   103    40    37    1
   104    69    70    2
   105    69    73   am
   106   114   115    2
   107   157   158    1
   108   163   160    1
   109   163   164    1
   110    37    38    1
   111   171   168    1
   112   165   164    1
   113   165   166    1
   114   160   161    1
   115    73    74    1
   116    61    60    2
   117    39    38    2
   118    38    47   am
   119   167   168    1
   120   168   169    1
   121    60    59    1
   122    78    77    1
   123    74    77    1
   124    74    75    1
   125   103   102    2
   126    76    75    2
   127    47    48    1
   128   122   119    1
   129   122   123    1
   130   107   109   ar
   131   107   105   ar
   132    77    79    1
   133   118   119    1
   134   169   175   am
   135   169   170    2
   136   102   101    1
   137   119   120    1
   138    75    80   am
   139    59    58    1
   140    59    62    1
   141   175   176    1
   142    58    49   am
   143   109   110   ar
   144   125   123   ar
   145   104   105    1
   146   104   101    1
   147   123   124   ar
   148   105   106   ar
   149    48    49    1
   150    48    51    1
   151    49    50    2
   152   101   100    1
   153    92    91    1
   154    62    63    1
   155   120   121    2
   156    80    86    1
   157    80    81    1
   158   176   177    1
   159   110   111    1
   160   110   108   ar
   161   185   183    1
   162    86    85    1
   163   106   108   ar
   164    51    52    1
   165    81    82    1
   166    81    84    1
   167    82    83    2
   168    82    87   am
   169    87    88    1
   170    52    53    1
   171   194   193    1
   172    88    91    1
   173    88    89    1
   174    57    55    1
   175    54    55    2
   176    54    53    1
   177    91    93    1
   178    63    64    1
   179   177   178    2
   180   193   192    1
   181    55    56    1
   182    85    84    1
   183   183   184    1
   184   183   180    1
   185    90    89    2
   186    97    96    2
   187   179   180    1
   188    96    95    1
   189   192   191    1
   190    64    65    1
   191   206   205    1
   192   180   181    1
   193    98    95    1
   194    98    99    1
   195   203   205   ar
   196   203   201   ar
   197    95    94    1
   198   191   190    1
   199   205   204   ar
   200    65    66    1
   201   181   182    2
   202   201   200   ar
   203   190   187    1
   204   204   202   ar
   205   200   202   ar
   206   200   199    1
   207   187   186    1
   208   187   188    1
   209   198   197    2
   210   199   196    1
   211   188   189    2
   212   196   197    1
   213   196   195    1
