@<TRIPOS>MOLECULE
tmp/3wbfB00.pdb
 121 117 0 0 0
SMALL
GASTEIGER

@<TRIPOS>ATOM
      1  N          6.6650   23.5710   43.1820 N.3    88  SER88      -0.1217
      2  CA         6.1570   24.9320   43.2150 C.3    88  SER88       0.1889
      3  C          6.1210   25.4950   44.6350 C.2    88  SER88       0.2288
      4  O          5.2570   26.3160   44.9660 O.2    88  SER88      -0.2866
      5  CB         4.7690   25.0000   42.5770 C.3    88  SER88       0.2089
      6  OG         3.8910   24.0440   43.1380 O.3    88  SER88      -0.2183
      7  N          5.8450   27.3990   47.5710 N.3    90  ASP90      -0.1239
      8  CA         5.4640   28.8090   47.6150 C.3    90  ASP90       0.1674
      9  C          5.7260   29.6700   48.8490 C.2    90  ASP90       0.2266
     10  O          5.1640   30.7590   48.9490 O.2    90  ASP90      -0.2867
     11  CB         3.9850   28.9510   47.2310 C.3    90  ASP90       0.1410
     12  CG         3.0430   28.3010   48.2410 C.2    90  ASP90       0.3668
     13  OD1        3.4990   27.8910   49.3300 O.co2  90  ASP90      -0.2456
     14  OD2        1.8340   28.2100   47.9370 O.co2  90  ASP90      -0.2456
     15  N          7.6390   32.2500   50.2690 N.3    92  HIS92      -0.1241
     16  CA         8.6280   33.2450   49.8490 C.3    92  HIS92       0.1621
     17  C          9.7840   33.4840   50.8210 C.2    92  HIS92       0.2264
     18  O         10.9340   33.6500   50.4100 O.2    92  HIS92      -0.2867
     19  CB         7.9280   34.5750   49.5570 C.3    92  HIS92       0.0745
     20  CG         7.0140   34.5280   48.3710 C.ar   92  HIS92       0.0817
     21  ND1        7.4710   34.6160   47.0730 N.ar   92  HIS92      -0.2268
     22  CD2        5.6700   34.3830   48.2860 C.ar   92  HIS92       0.1154
     23  CE1        6.4480   34.5310   46.2410 C.ar   92  HIS92       0.1986
     24  NE2        5.3430   34.3900   46.9520 N.ar   92  HIS92      -0.2212
     25  N          3.4510   29.9160   39.2050 N.3   119  TRP119     -0.1227
     26  CA         3.3760   31.2520   38.6210 C.3   119  TRP119      0.1737
     27  C          3.7930   32.3110   39.6370 C.2   119  TRP119      0.2595
     28  O          4.1410   33.4320   39.2630 O.2   119  TRP119     -0.2718
     29  CB         1.9850   31.5750   38.0360 C.3   119  TRP119      0.0564
     30  CG         0.7870   31.3480   38.9150 C.ar  119  TRP119      0.0003
     31  CD1        0.1270   30.1750   39.1040 C.ar  119  TRP119      0.0946
     32  CD2        0.0480   32.3450   39.6300 C.ar  119  TRP119      0.0152
     33  NE1       -0.9850   30.3750   39.8800 N.ar  119  TRP119     -0.2442
     34  CE2       -1.0580   31.7000   40.2190 C.ar  119  TRP119      0.0810
     35  CE3        0.2110   33.7230   39.8250 C.ar  119  TRP119      0.0012
     36  CZ2       -2.0030   32.3830   40.9940 C.ar  119  TRP119      0.0191
     37  CZ3       -0.7320   34.4080   40.5980 C.ar  119  TRP119      0.0001
     38  CH2       -1.8230   33.7330   41.1710 C.ar  119  TRP119      0.0015
     39  N          3.7550   31.9600   40.9210 N.am  120  ASP120     -0.1974
     40  CA         4.1880   32.8840   41.9660 C.3   120  ASP120      0.1709
     41  C          4.3080   32.1950   43.3230 C.2   120  ASP120      0.2293
     42  O          3.3070   31.9460   43.9880 O.2   120  ASP120     -0.2864
     43  CB         3.2400   34.0790   42.0850 C.3   120  ASP120      0.1436
     44  CG         3.9370   35.3070   42.6470 C.2   120  ASP120      0.3671
     45  OD1        4.8650   35.1330   43.4700 O.co2 120  ASP120     -0.2456
     46  OD2        3.5620   36.4370   42.2740 O.co2 120  ASP120     -0.2456
     47  N         -2.8880   40.0010   44.1440 N.3   144  PHE144     -0.1241
     48  CA        -3.4940   38.7150   43.8050 C.3   144  PHE144      0.1605
     49  C         -5.0110   38.6910   43.9700 C.2   144  PHE144      0.2264
     50  O         -5.5610   39.3150   44.8820 O.2   144  PHE144     -0.2867
     51  CB        -2.9270   37.6020   44.7000 C.3   144  PHE144      0.0534
     52  CG        -1.4420   37.4010   44.5890 C.ar  144  PHE144     -0.0203
     53  CD1       -0.8750   36.9020   43.4260 C.ar  144  PHE144     -0.0042
     54  CD2       -0.6150   37.6560   45.6770 C.ar  144  PHE144     -0.0042
     55  CE1        0.5020   36.6520   43.3480 C.ar  144  PHE144     -0.0003
     56  CE2        0.7640   37.4110   45.6120 C.ar  144  PHE144     -0.0003
     57  CZ         1.3200   36.9070   44.4450 C.ar  144  PHE144     -0.0000
     58  N         -6.3460   30.2920   46.5200 N.3   149  SER149     -0.1202
     59  CA        -4.9290   30.0330   46.7570 C.3   149  SER149      0.2020
     60  C         -4.8110   28.5430   47.0410 C.2   149  SER149      0.2619
     61  O         -5.2820   28.0640   48.0780 O.2   149  SER149     -0.2717
     62  CB        -4.4260   30.8110   47.9680 C.3   149  SER149      0.2103
     63  OG        -3.1190   30.3940   48.3010 O.3   149  SER149     -0.2182
     64  N         -4.1970   27.8050   46.1230 N.am  150  MET150     -0.1965
     65  CA        -4.0490   26.3710   46.3140 C.3   150  MET150      0.1736
     66  C         -3.2450   26.1060   47.5850 C.2   150  MET150      0.2617
     67  O         -3.5710   25.2030   48.3560 O.2   150  MET150     -0.2715
     68  CB        -3.3450   25.7350   45.1120 C.3   150  MET150      0.0427
     69  CG        -3.9630   26.0750   43.7710 C.3   150  MET150      0.0599
     70  SD        -5.7440   25.8000   43.7090 S.3   150  MET150     -0.1393
     71  CE        -6.3050   27.4310   43.7080 C.3   150  MET150      0.0692
     72  N         -2.2020   26.9080   47.7960 N.am  151  GLY151     -0.1940
     73  CA        -1.3500   26.7570   48.9650 C.3   151  GLY151      0.2014
     74  C         -2.0770   26.9160   50.2930 C.2   151  GLY151      0.2638
     75  O         -2.0190   26.0280   51.1500 O.2   151  GLY151     -0.2714
     76  N         -2.7560   28.0470   50.4700 N.am  152  HIS152     -0.1973
     77  CA        -3.4930   28.2970   51.7040 C.3   152  HIS152      0.1656
     78  C         -4.5910   27.2530   51.9110 C.2   152  HIS152      0.2291
     79  O         -4.8760   26.8550   53.0450 O.2   152  HIS152     -0.2864
     80  CB        -4.1050   29.7050   51.6940 C.3   152  HIS152      0.0771
     81  CG        -3.0970   30.8070   51.8420 C.ar  152  HIS152      0.0820
     82  ND1       -2.2000   31.1380   50.8480 N.ar  152  HIS152     -0.2267
     83  CD2       -2.8380   31.6450   52.8750 C.ar  152  HIS152      0.1154
     84  CE1       -1.4330   32.1310   51.2610 C.ar  152  HIS152      0.1986
     85  NE2       -1.7990   32.4580   52.4880 N.ar  152  HIS152     -0.2212
     86  N         -8.2540   34.6980   48.1640 N.3   169  THR169     -0.1218
     87  CA        -7.4060   35.8590   48.3740 C.3   169  THR169      0.1862
     88  C         -8.0290   37.0570   47.6630 C.2   169  THR169      0.2287
     89  O         -8.2610   37.0190   46.4550 O.2   169  THR169     -0.2866
     90  CB        -5.9920   35.6060   47.8320 C.3   169  THR169      0.1770
     91  OG1       -5.4810   34.3910   48.3990 O.3   169  THR169     -0.2211
     92  CG2       -5.0610   36.7680   48.1990 C.3   169  THR169      0.0375
     93  N         -7.9430   37.7740   53.2810 N.3   179  ARG179     -0.1245
     94  CA        -8.1610   36.3540   53.0410 C.3   179  ARG179      0.1563
     95  C         -9.4890   35.9010   53.6290 C.2   179  ARG179      0.2260
     96  O         -9.7970   36.1920   54.7850 O.2   179  ARG179     -0.2867
     97  CB        -7.0060   35.5380   53.6290 C.3   179  ARG179      0.0307
     98  CG        -5.6680   35.8800   52.9930 C.3   179  ARG179      0.0489
     99  CD        -4.5060   35.1050   53.5920 C.3   179  ARG179      0.2205
    100  NE        -3.2450   35.5200   52.9780 N.pl3 179  ARG179     -0.0865
    101  CZ        -2.9180   35.3040   51.7050 C.cat 179  ARG179      0.5346
    102  NH1       -3.7510   34.6640   50.8970 N.pl3 179  ARG179      0.1354
    103  NH2       -1.7660   35.7550   51.2310 N.pl3 179  ARG179      0.1354
    104  N         -7.7460   32.0080   39.4600 N.3   225  HIS225     -0.1241
    105  CA        -7.0290   32.9930   40.2470 C.3   225  HIS225      0.1621
    106  C         -6.4950   34.0130   39.2580 C.2   225  HIS225      0.2264
    107  O         -6.7190   33.8990   38.0480 O.2   225  HIS225     -0.2867
    108  CB        -5.8750   32.3530   41.0220 C.3   225  HIS225      0.0745
    109  CG        -5.5190   33.0810   42.2840 C.ar  225  HIS225      0.0817
    110  ND1       -5.8800   34.3920   42.5170 N.ar  225  HIS225     -0.2268
    111  CD2       -4.8370   32.6800   43.3830 C.ar  225  HIS225      0.1154
    112  CE1       -5.4400   34.7630   43.7060 C.ar  225  HIS225      0.1986
    113  NE2       -4.8030   33.7440   44.2510 N.ar  225  HIS225     -0.2212
    114  N         -5.6480   28.5110   38.2030 N.3   251  ASN251     -0.1240
    115  CA        -4.4540   28.4180   39.0330 C.3   251  ASN251      0.1653
    116  C         -3.6620   27.1060   38.8710 C.2   251  ASN251      0.2266
    117  O         -2.5590   27.1100   38.3190 O.2   251  ASN251     -0.2867
    118  CB        -4.8340   28.6510   40.5000 C.3   251  ASN251      0.1155
    119  CG        -3.6220   28.7800   41.4080 C.2   251  ASN251      0.2627
    120  OD1       -2.5480   28.2790   41.0920 O.2   251  ASN251     -0.2716
    121  ND2       -3.7980   29.4370   42.5520 N.am  251  ASN251     -0.0877
@<TRIPOS>BOND
     1    29    26    1
     2    29    30    1
     3   107   106    2
     4   114   115    1
     5   117   116    2
     6    26    25    1
     7    26    27    1
     8   116   115    1
     9    30    31   ar
    10    30    32   ar
    11   115   118    1
    12    31    33   ar
    13   106   105    1
    14    28    27    2
    15   104   105    1
    16    32    35   ar
    17    32    34   ar
    18    27    39   am
    19    35    37   ar
    20    33    34   ar
    21    34    36   ar
    22   105   108    1
    23   118   119    1
    24    37    38   ar
    25    39    40    1
    26    36    38   ar
    27   108   109    1
    28   120   119    2
    29   119   121   am
    30    40    43    1
    31    40    41    1
    32    43    44    1
    33    46    44   ar
    34   109   110   ar
    35   109   111   ar
    36   110   112   ar
    37     5     6    1
    38     5     2    1
    39    44    45   ar
    40     1     2    1
    41     2     3    1
    42    41    42    2
    43    55    53   ar
    44    55    57   ar
    45   111   113   ar
    46    53    52   ar
    47   112   113   ar
    48    71    70    1
    49    70    69    1
    50    69    68    1
    51    48    49    1
    52    48    47    1
    53    48    51    1
    54    49    50    2
    55    57    56   ar
    56    52    51    1
    57    52    54   ar
    58     3     4    2
    59    68    65    1
    60    56    54   ar
    61    64    65    1
    62    64    60   am
    63    23    24   ar
    64    23    21   ar
    65    65    66    1
    66    89    88    2
    67    58    59    1
    68    59    60    1
    69    59    62    1
    70    24    22   ar
    71    60    61    2
    72    21    20   ar
    73    11     8    1
    74    11    12    1
    75     7     8    1
    76    66    72   am
    77    66    67    2
    78     8     9    1
    79    88    87    1
    80    72    73    1
    81    90    92    1
    82    90    87    1
    83    90    91    1
    84    14    12   ar
    85    62    63    1
    86    86    87    1
    87    12    13   ar
    88    22    20   ar
    89    20    19    1
    90     9    10    2
    91    73    74    1
    92    19    16    1
    93    16    15    1
    94    16    17    1
    95    74    76   am
    96    74    75    2
    97    18    17    2
    98    76    77    1
    99    82    84   ar
   100    82    81   ar
   101   102   101    1
   102   103   101    1
   103    84    85   ar
   104    80    77    1
   105    80    81    1
   106    77    78    1
   107   101   100    2
   108    81    83   ar
   109    78    79    2
   110    85    83   ar
   111   100    99    1
   112    98    99    1
   113    98    97    1
   114    94    93    1
   115    94    97    1
   116    94    95    1
   117    95    96    2
