@<TRIPOS>MOLECULE
tmp/3wbgD00.pdb
 203 188 0 0 0
SMALL
GASTEIGER

@<TRIPOS>ATOM
      1  N         66.7610    7.9080   11.8040 N.3    17  PHE17      -0.1241
      2  CA        66.4190    9.3310   11.7910 C.3    17  PHE17       0.1605
      3  C         67.1030   10.1640   10.6980 C.2    17  PHE17       0.2264
      4  O         66.4420   10.9620   10.0420 O.2    17  PHE17      -0.2867
      5  CB        66.6000    9.9620   13.1920 C.3    17  PHE17       0.0534
      6  CG        65.8760   11.2790   13.3740 C.ar   17  PHE17      -0.0203
      7  CD1       64.6540   11.5240   12.7440 C.ar   17  PHE17      -0.0042
      8  CD2       66.4280   12.2870   14.1620 C.ar   17  PHE17      -0.0042
      9  CE1       63.9980   12.7640   12.9070 C.ar   17  PHE17      -0.0003
     10  CE2       65.7730   13.5200   14.3450 C.ar   17  PHE17      -0.0003
     11  CZ        64.5660   13.7600   13.7280 C.ar   17  PHE17      -0.0000
     12  N         65.2510    9.5970    7.4300 N.3    20  TYR20      -0.1227
     13  CA        63.9370   10.1940    7.5030 C.3    20  TYR20       0.1736
     14  C         64.0280   11.6970    7.2770 C.2    20  TYR20       0.2595
     15  O         63.3240   12.2060    6.3970 O.2    20  TYR20      -0.2718
     16  CB        63.2060    9.8480    8.7750 C.3    20  TYR20       0.0548
     17  CG        61.8690   10.5460    8.9190 C.ar   20  TYR20      -0.0200
     18  CD1       60.7540   10.1250    8.1800 C.ar   20  TYR20      -0.0009
     19  CD2       61.7260   11.6590    9.7950 C.ar   20  TYR20      -0.0009
     20  CE1       59.5350   10.7450    8.3170 C.ar   20  TYR20       0.0417
     21  CE2       60.4860   12.3050    9.9540 C.ar   20  TYR20       0.0417
     22  CZ        59.3970   11.8540    9.1960 C.ar   20  TYR20       0.1957
     23  OH        58.1810   12.4500    9.3340 O.3    20  TYR20      -0.2866
     24  N         64.9510   12.3800    7.9880 N.am   21  MET21      -0.1979
     25  CA        65.1970   13.8440    7.7760 C.3    21  MET21       0.1605
     26  C         65.5580   14.2370    6.3080 C.2    21  MET21       0.2287
     27  O         65.0040   15.1980    5.7010 O.2    21  MET21      -0.2864
     28  CB        66.2610   14.3630    8.7540 C.3    21  MET21       0.0413
     29  CG        65.7640   14.5490   10.1760 C.3    21  MET21       0.0598
     30  SD        66.9910   15.4140   11.2170 S.3    21  MET21      -0.1393
     31  CE        68.2540   14.1530   11.2820 C.3    21  MET21       0.0692
     32  N         62.5830   14.1870    4.1120 N.3    24  LEU24      -0.1245
     33  CA        61.7890   15.3990    4.2490 C.3    24  LEU24       0.1561
     34  C         62.4830   16.6620    3.7150 C.2    24  LEU24       0.2260
     35  O         61.8880   17.7500    3.7520 O.2    24  LEU24      -0.2867
     36  CB        61.3730   15.6360    5.7060 C.3    24  LEU24       0.0270
     37  CG        60.4910   14.6250    6.3920 C.3    24  LEU24       0.0019
     38  CD1       60.4920   14.9060    7.8620 C.3    24  LEU24       0.0001
     39  CD2       59.0710   14.6900    5.8700 C.3    24  LEU24       0.0001
     40  N         65.4040   18.0960    5.0670 N.3    26  VAL26      -0.1245
     41  CA        65.9410   18.8810    6.1930 C.3    26  VAL26       0.1561
     42  C         67.3690   19.2200    5.8030 C.2    26  VAL26       0.2260
     43  O         68.0810   18.3330    5.3770 O.2    26  VAL26      -0.2867
     44  CB        65.8850   18.0830    7.5050 C.3    26  VAL26       0.0252
     45  CG1       66.5650   18.8510    8.6700 C.3    26  VAL26       0.0019
     46  CG2       64.4760   17.6840    7.8440 C.3    26  VAL26       0.0019
     47  N         70.7750   21.5630   10.1120 N.3    30  THR30      -0.1218
     48  CA        69.7550   21.1680   11.0350 C.3    30  THR30       0.1862
     49  C         69.9600   19.6590   11.3310 C.2    30  THR30       0.2287
     50  O         69.8680   19.2430   12.5060 O.2    30  THR30      -0.2866
     51  CB        68.3580   21.5050   10.4710 C.3    30  THR30       0.1770
     52  OG1       68.2570   22.9080   10.2310 O.3    30  THR30      -0.2211
     53  CG2       67.2750   21.1160   11.4030 C.3    30  THR30       0.0375
     54  N         70.0290   17.9050   14.8780 N.3    34  ALA34      -0.1245
     55  CA        68.8180   17.1390   15.2130 C.3    34  ALA34       0.1562
     56  C         69.1410   15.6520   15.4530 C.2    34  ALA34       0.2260
     57  O         68.4430   14.9930   16.2180 O.2    34  ALA34      -0.2867
     58  CB        67.8030   17.2580   14.1420 C.3    34  ALA34       0.0290
     59  N         70.4090   15.3380   19.3230 N.3    37  THR37      -0.1218
     60  CA        69.8070   15.9890   20.4550 C.3    37  THR37       0.1862
     61  C         68.6600   15.1110   20.8270 C.2    37  THR37       0.2287
     62  O         68.0340   14.5200   19.9370 O.2    37  THR37      -0.2866
     63  CB        69.3380   17.4310   20.1070 C.3    37  THR37       0.1770
     64  OG1       70.4250   18.1510   19.4870 O.3    37  THR37      -0.2211
     65  CG2       68.9340   18.1740   21.3500 C.3    37  THR37       0.0375
     66  N         65.0930   15.2280   22.4230 N.3    39  PRO39      -0.2116
     67  CA        63.9830   16.0320   22.8700 C.3    39  PRO39       0.1372
     68  C         63.0670   15.3570   23.8740 C.2    39  PRO39       0.2244
     69  O         63.1270   14.1760   24.1350 O.2    39  PRO39      -0.2868
     70  CB        63.1900   16.2690   21.5920 C.3    39  PRO39       0.0268
     71  CG        63.5310   15.0960   20.7510 C.3    39  PRO39       0.0207
     72  CD        64.9840   14.9280   20.9870 C.3    39  PRO39       0.0892
     73  N         57.0870   19.8000   22.2280 N.3    54  THR54      -0.1218
     74  CA        58.3900   19.2200   21.9520 C.3    54  THR54       0.1862
     75  C         59.3700   20.2020   22.5440 C.2    54  THR54       0.2287
     76  O         59.4000   21.3720   22.1390 O.2    54  THR54      -0.2866
     77  CB        58.6990   19.1640   20.4350 C.3    54  THR54       0.1770
     78  OG1       57.5430   18.7130   19.7140 O.3    54  THR54      -0.2211
     79  CG2       59.8900   18.2780   20.1600 C.3    54  THR54       0.0375
     80  N         63.5010   20.9760   23.5410 N.3    56  SER56      -0.1217
     81  CA        64.9050   20.6110   23.4510 C.3    56  SER56       0.1889
     82  C         65.6930   21.8930   23.5530 C.2    56  SER56       0.2288
     83  O         65.1290   22.9990   23.4330 O.2    56  SER56      -0.2866
     84  CB        65.2110   19.9330   22.1020 C.3    56  SER56       0.2089
     85  OG        64.9320   20.8310   21.0410 O.3    56  SER56      -0.2183
     86  N         67.3200   23.3650   21.5370 N.3    58  PHE58      -0.1227
     87  CA        67.5350   23.9180   20.2240 C.3    58  PHE58       0.1736
     88  C         66.2560   24.3770   19.5270 C.2    58  PHE58       0.2595
     89  O         66.1950   25.5110   19.0400 O.2    58  PHE58      -0.2718
     90  CB        68.2780   22.8700   19.3740 C.3    58  PHE58       0.0547
     91  CG        68.1370   23.0640   17.8860 C.ar   58  PHE58      -0.0202
     92  CD1       68.4910   24.2790   17.2800 C.ar   58  PHE58      -0.0042
     93  CD2       67.6740   22.0150   17.0810 C.ar   58  PHE58      -0.0042
     94  CE1       68.3620   24.4550   15.8870 C.ar   58  PHE58      -0.0003
     95  CE2       67.5400   22.1760   15.7110 C.ar   58  PHE58      -0.0003
     96  CZ        67.8860   23.3900   15.1000 C.ar   58  PHE58      -0.0000
     97  N         65.2740   23.4870   19.4000 N.am   59  LYS59      -0.1980
     98  CA        63.9550   23.9140   18.9640 C.3    59  LYS59       0.1596
     99  C         62.8810   23.4620   19.9200 C.2    59  LYS59       0.2287
    100  O         63.0290   22.4390   20.5930 O.2    59  LYS59      -0.2864
    101  CB        63.6280   23.4990   17.5330 C.3    59  LYS59       0.0298
    102  CG        62.5690   24.4470   16.8910 C.3    59  LYS59       0.0038
    103  CD        62.6040   24.4670   15.3530 C.3    59  LYS59       0.0206
    104  CE        63.8600   25.1400   14.8310 C.3    59  LYS59       0.1093
    105  NZ        64.1550   24.8180   13.4000 N.3    59  LYS59      -0.1314
    106  N         56.3590   22.8050   11.5050 N.3    75  THR75      -0.1203
    107  CA        57.0840   21.6740   12.1040 C.3    75  THR75       0.1994
    108  C         58.4860   22.0970   12.5590 C.2    75  THR75       0.2618
    109  O         58.9480   23.1850   12.1850 O.2    75  THR75      -0.2717
    110  CB        57.1570   20.5250   11.0920 C.3    75  THR75       0.1784
    111  OG1       58.0620   20.8690   10.0190 O.3    75  THR75      -0.2211
    112  CG2       55.7530   20.2560   10.5170 C.3    75  THR75       0.0376
    113  N         59.1610   21.2310   13.3360 N.am   76  ALA76      -0.1965
    114  CA        60.5000   21.5320   13.8540 C.3    76  ALA76       0.1728
    115  C         61.4250   21.9440   12.7430 C.2    76  ALA76       0.2616
    116  O         62.1560   22.9170   12.8710 O.2    76  ALA76      -0.2715
    117  CB        61.0800   20.3560   14.6690 C.3    76  ALA76       0.0334
    118  N         61.3290   21.2630   11.6140 N.am   77  ASP77      -0.1971
    119  CA        62.1220   21.5740   10.4530 C.3    77  ASP77       0.1709
    120  C         61.4670   22.5770    9.4900 C.2    77  ASP77       0.2293
    121  O         61.8400   22.6170    8.3210 O.2    77  ASP77      -0.2864
    122  CB        62.4800   20.2890    9.6980 C.3    77  ASP77       0.1436
    123  CG        61.2440   19.6000    9.0480 C.2    77  ASP77       0.3671
    124  OD1       60.2360   19.3450    9.7480 O.co2  77  ASP77      -0.2456
    125  OD2       61.2920   19.3320    7.8210 O.co2  77  ASP77      -0.2456
    126  N         58.5840   23.0490    7.8060 N.3    79  ARG79      -0.1245
    127  CA        57.5020   22.8460    6.8560 C.3    79  ARG79       0.1563
    128  C         56.2020   23.3050    7.5020 C.2    79  ARG79       0.2260
    129  O         55.9180   23.0180    8.6630 O.2    79  ARG79      -0.2867
    130  CB        57.3620   21.3830    6.4430 C.3    79  ARG79       0.0307
    131  CG        58.5260   20.7280    5.6900 C.3    79  ARG79       0.0489
    132  CD        58.3400   19.1910    5.6880 C.3    79  ARG79       0.2205
    133  NE        58.5700   18.7100    7.0490 N.pl3  79  ARG79      -0.0865
    134  CZ        57.7300   18.0020    7.8060 C.cat  79  ARG79       0.5346
    135  NH1       56.5520   17.5670    7.3570 N.pl3  79  ARG79       0.1354
    136  NH2       58.0900   17.7470    9.0440 N.pl3  79  ARG79       0.1354
    137  N         50.5390   14.5130    8.5290 N.3    96  GLN96      -0.1245
    138  CA        50.8830   15.8550    8.0770 C.3    96  GLN96       0.1566
    139  C         50.8250   15.7920    6.5860 C.2    96  GLN96       0.2260
    140  O         51.2240   14.7820    5.9940 O.2    96  GLN96      -0.2867
    141  CB        52.3090   16.2760    8.5120 C.3    96  GLN96       0.0367
    142  CG        52.4900   16.3010   10.0060 C.3    96  GLN96       0.0905
    143  CD        53.9250   16.6030   10.4190 C.2    96  GLN96       0.2608
    144  OE1       54.8800   16.3760    9.6710 O.2    96  GLN96      -0.2717
    145  NE2       54.0720   17.0970   11.6060 N.am   96  GLN96      -0.0878
    146  N         53.1480   10.2750   11.7250 N.3   105  LEU105     -0.1245
    147  CA        53.8510   10.1910   12.9900 C.3   105  LEU105      0.1561
    148  C         52.8810    9.4020   13.8570 C.2   105  LEU105      0.2260
    149  O         51.8050    9.9120   14.2670 O.2   105  LEU105     -0.2867
    150  CB        54.1230   11.6110   13.5730 C.3   105  LEU105      0.0270
    151  CG        54.8960   12.5830   12.6800 C.3   105  LEU105      0.0019
    152  CD1       53.9830   13.2600   11.6240 C.3   105  LEU105      0.0001
    153  CD2       55.6020   13.6680   13.4620 C.3   105  LEU105      0.0001
    154  N         52.2740    7.1080   17.2380 N.3   107  ARG107     -0.1245
    155  CA        52.7150    6.8040   18.5710 C.3   107  ARG107      0.1563
    156  C         51.8090    5.7940   19.2410 C.2   107  ARG107      0.2260
    157  O         50.5870    5.8480   19.1070 O.2   107  ARG107     -0.2867
    158  CB        52.7450    8.0620   19.3940 C.3   107  ARG107      0.0307
    159  CG        53.7920    9.0530   18.9480 C.3   107  ARG107      0.0489
    160  CD        53.4150   10.3300   19.6120 C.3   107  ARG107      0.2205
    161  NE        54.4200   11.3460   19.4080 N.pl3 107  ARG107     -0.0865
    162  CZ        54.3490   12.3200   18.5040 C.cat 107  ARG107      0.5346
    163  NH1       53.2880   12.4340   17.6930 N.pl3 107  ARG107      0.1354
    164  NH2       55.3620   13.1800   18.4150 N.pl3 107  ARG107      0.1354
    165  N         57.4210    6.1820   18.8490 N.3   116  LEU116     -0.1245
    166  CA        56.9470    7.0000   17.7390 C.3   116  LEU116      0.1561
    167  C         57.5430    6.4640   16.4690 C.2   116  LEU116      0.2260
    168  O         58.7670    6.4080   16.3430 O.2   116  LEU116     -0.2867
    169  CB        57.3460    8.4830   17.9310 C.3   116  LEU116      0.0270
    170  CG        57.4420    9.4590   16.7420 C.3   116  LEU116      0.0019
    171  CD1       56.0700    9.6680   16.1150 C.3   116  LEU116      0.0001
    172  CD2       58.0960   10.8210   17.1350 C.3   116  LEU116      0.0001
    173  N         57.8950    7.2020   12.5360 N.3   118  LEU118     -0.1245
    174  CA        57.7900    8.2020   11.5050 C.3   118  LEU118      0.1561
    175  C         57.9870    7.5270   10.1710 C.2   118  LEU118      0.2260
    176  O         58.8860    6.7180   10.0820 O.2   118  LEU118     -0.2867
    177  CB        58.8950    9.2180   11.6790 C.3   118  LEU118      0.0270
    178  CG        59.1050    9.8870   13.0320 C.3   118  LEU118      0.0019
    179  CD1       60.5320   10.3010   13.1420 C.3   118  LEU118      0.0001
    180  CD2       58.2090   11.0570   13.1200 C.3   118  LEU118      0.0001
    181  N         61.4880    6.0320   17.1520 N.3   127  ARG127     -0.1245
    182  CA        62.0210    6.7980   18.2460 C.3   127  ARG127      0.1563
    183  C         61.2950    6.4480   19.4860 C.2   127  ARG127      0.2260
    184  O         60.0700    6.4520   19.5290 O.2   127  ARG127     -0.2867
    185  CB        61.9770    8.2750   17.9220 C.3   127  ARG127      0.0307
    186  CG        63.1950    8.6350   17.0390 C.3   127  ARG127      0.0489
    187  CD        63.0020    9.8370   16.1710 C.3   127  ARG127      0.2205
    188  NE        63.2100   11.1250   16.8360 N.pl3 127  ARG127     -0.0865
    189  CZ        64.3880   11.6670   17.1700 C.cat 127  ARG127      0.5346
    190  NH1       65.5290   11.0020   16.9700 N.pl3 127  ARG127      0.1354
    191  NH2       64.4140   12.9050   17.7010 N.pl3 127  ARG127      0.1354
    192  N         60.7310    6.7300   23.6440 N.3   129  TYR129     -0.1241
    193  CA        60.6690    7.7390   24.6970 C.3   129  TYR129      0.1605
    194  C         60.1930    7.0550   25.9930 C.2   129  TYR129      0.2264
    195  O         59.2290    6.2880   25.9690 O.2   129  TYR129     -0.2867
    196  CB        59.6700    8.8740   24.3350 C.3   129  TYR129      0.0534
    197  CG        59.9790    9.7370   23.0930 C.ar  129  TYR129     -0.0201
    198  CD1       59.8560    9.2190   21.8040 C.ar  129  TYR129     -0.0009
    199  CD2       60.3250   11.0960   23.2180 C.ar  129  TYR129     -0.0009
    200  CE1       60.1050   10.0080   20.6900 C.ar  129  TYR129      0.0417
    201  CE2       60.5680   11.8980   22.1050 C.ar  129  TYR129      0.0417
    202  CZ        60.4610   11.3580   20.8560 C.ar  129  TYR129      0.1957
    203  OH        60.7300   12.1300   19.7340 O.3   129  TYR129     -0.2866
@<TRIPOS>BOND
     1    34    35    2
     2    34    33    1
     3    32    33    1
     4    33    36    1
     5    40    41    1
     6    43    42    2
     7   132   131    1
     8   132   133    1
     9   131   130    1
    10    27    26    2
    11    36    37    1
    12    42    41    1
    13    39    37    1
    14   140   139    2
    15    41    44    1
    16    26    25    1
    17    37    38    1
    18    15    14    2
    19   130   127    1
    20   139   138    1
    21   127   128    1
    22   127   126    1
    23   133   134    2
    24    14    13    1
    25    14    24   am
    26   135   134    1
    27    12    13    1
    28   128   129    2
    29    13    16    1
    30    44    46    1
    31    44    45    1
    32    25    24    1
    33    25    28    1
    34   134   136    1
    35   125   123   ar
    36   138   141    1
    37   138   137    1
    38    18    20   ar
    39    18    17   ar
    40    20    22   ar
    41   121   120    2
    42   141   142    1
    43    28    29    1
    44    16    17    1
    45    17    19   ar
    46   123   122    1
    47   123   124   ar
    48    22    23    1
    49    22    21   ar
    50   120   119    1
    51   144   143    2
    52   122   119    1
    53    19    21   ar
    54   142   143    1
    55   111   110    1
    56     4     3    2
    57   176   175    2
    58    47    48    1
    59   175   174    1
    60    29    30    1
    61    52    51    1
    62   143   145   am
    63   119   118    1
    64    51    48    1
    65    51    53    1
    66   112   110    1
    67     3     2    1
    68    48    49    1
    69   110   107    1
    70    30    31    1
    71    49    50    2
    72   174   177    1
    73   174   173    1
    74   106   107    1
    75   118   115   am
    76   152   151    1
    77   177   178    1
    78   146   147    1
    79     2     1    1
    80     2     5    1
    81   107   108    1
    82   109   108    2
    83   108   113   am
    84   151   153    1
    85   151   150    1
    86   115   116    2
    87   115   114    1
    88     7     9   ar
    89     7     6   ar
    90     9    11   ar
    91   147   150    1
    92   147   148    1
    93   178   180    1
    94   178   179    1
    95     5     6    1
    96   113   114    1
    97     6     8   ar
    98   105   104    1
    99    11    10   ar
   100   114   117    1
   101   148   149    2
   102    58    55    1
   103     8    10   ar
   104   104   103    1
   105    54    55    1
   106    96    95   ar
   107    96    94   ar
   108    55    56    1
   109   103   102    1
   110    56    57    2
   111    95    93   ar
   112    94    92   ar
   113   171   170    1
   114   187   188    1
   115   187   186    1
   116   168   167    2
   117   167   166    1
   118   170   172    1
   119   170   169    1
   120   188   189    2
   121   102   101    1
   122   190   189    1
   123   186   185    1
   124    93    91   ar
   125   181   182    1
   126   189   191    1
   127   154   155    1
   128    92    91   ar
   129   101    98    1
   130   163   162    1
   131   166   169    1
   132   166   165    1
   133    91    90    1
   134   185   182    1
   135   182   183    1
   136   164   162    1
   137   162   161    2
   138   155   156    1
   139   155   158    1
   140   159   158    1
   141   159   160    1
   142    98    97    1
   143    98    99    1
   144    89    88    2
   145   157   156    2
   146    59    60    1
   147    90    87    1
   148    97    88   am
   149   161   160    1
   150   183   184    2
   151    64    63    1
   152    88    87    1
   153    78    77    1
   154   203   202    1
   155    99   100    2
   156    62    61    2
   157    63    60    1
   158    63    65    1
   159    79    77    1
   160    87    86    1
   161    77    74    1
   162    60    61    1
   163   200   202   ar
   164   200   198   ar
   165    71    72    1
   166    71    70    1
   167   202   201   ar
   168    72    66    1
   169    85    84    1
   170    70    67    1
   171   198   197   ar
   172    74    73    1
   173    74    75    1
   174    84    81    1
   175   201   199   ar
   176    76    75    2
   177    66    67    1
   178    67    68    1
   179   197   199   ar
   180   197   196    1
   181    83    82    2
   182    81    80    1
   183    81    82    1
   184   192   193    1
   185    68    69    2
   186   196   193    1
   187   193   194    1
   188   195   194    2
