@<TRIPOS>MOLECULE
tmp/3wbkA00.pdb
 123 117 0 0 0
SMALL
GASTEIGER

@<TRIPOS>ATOM
      1  N        -33.8360   43.7580   45.3680 N.3   557  ARG557     -0.1245
      2  CA       -34.4760   42.4890   45.0910 C.3   557  ARG557      0.1563
      3  C        -33.8460   41.8360   43.8770 C.2   557  ARG557      0.2260
      4  O        -33.5700   40.6520   43.9270 O.2   557  ARG557     -0.2867
      5  CB       -35.9890   42.6050   44.9080 C.3   557  ARG557      0.0307
      6  CG       -36.7120   41.2550   44.8740 C.3   557  ARG557      0.0489
      7  CD       -36.8930   40.6260   46.2570 C.3   557  ARG557      0.2205
      8  NE       -35.9690   39.5260   46.5680 N.pl3 557  ARG557     -0.0865
      9  CZ       -35.7270   39.0720   47.7960 C.cat 557  ARG557      0.5346
     10  NH1      -36.3320   39.6140   48.8390 N.pl3 557  ARG557      0.1354
     11  NH2      -34.8680   38.0850   47.9890 N.pl3 557  ARG557      0.1354
     12  N        -30.3310   40.4940   44.5880 N.3   560  ILE560     -0.1231
     13  CA       -30.3250   39.2800   45.4010 C.3   560  ILE560      0.1692
     14  C        -30.7260   38.0310   44.6070 C.2   560  ILE560      0.2592
     15  O        -30.1110   36.9880   44.7590 O.2   560  ILE560     -0.2718
     16  CB       -31.1520   39.4380   46.6930 C.3   560  ILE560      0.0266
     17  CG1      -30.5990   40.5970   47.5190 C.3   560  ILE560      0.0019
     18  CG2      -31.0340   38.1920   47.5400 C.3   560  ILE560      0.0020
     19  CD1      -31.5930   41.2300   48.4660 C.3   560  ILE560      0.0001
     20  N        -31.7330   38.1500   43.7520 N.am  561  ASP561     -0.1974
     21  CA       -32.1840   37.0320   42.9290 C.3   561  ASP561      0.1709
     22  C        -31.0830   36.5350   42.0090 C.2   561  ASP561      0.2293
     23  O        -30.8720   35.3310   41.8840 O.2   561  ASP561     -0.2864
     24  CB       -33.3970   37.4350   42.0860 C.3   561  ASP561      0.1436
     25  CG       -34.6050   37.8070   42.9330 C.2   561  ASP561      0.3671
     26  OD1      -34.6720   37.3600   44.0970 O.co2 561  ASP561     -0.2456
     27  OD2      -35.4880   38.5430   42.4320 O.co2 561  ASP561     -0.2456
     28  N        -28.7940   34.0240   43.3450 N.3   564  LYS564     -0.1245
     29  CA       -29.3300   32.6740   43.5110 C.3   564  LYS564      0.1561
     30  C        -29.0350   31.7230   42.3500 C.2   564  LYS564      0.2260
     31  O        -28.7070   30.5570   42.5710 O.2   564  LYS564     -0.2867
     32  CB       -30.8350   32.7080   43.7630 C.3   564  LYS564      0.0271
     33  CG       -31.1950   32.4510   45.2080 C.3   564  LYS564      0.0035
     34  CD       -31.7290   33.7090   45.8550 C.3   564  LYS564      0.0206
     35  CE       -31.2500   33.8770   47.2900 C.3   564  LYS564      0.1093
     36  NZ       -32.3500   34.3800   48.1550 N.3   564  LYS564     -0.1314
     37  N        -24.5700   31.2870   42.0520 N.3   568  PHE568     -0.1241
     38  CA       -24.6090   30.6650   43.3760 C.3   568  PHE568      0.1605
     39  C        -23.6210   29.5330   43.6330 C.2   568  PHE568      0.2264
     40  O        -23.1500   29.3710   44.7630 O.2   568  PHE568     -0.2867
     41  CB       -26.0310   30.1690   43.6600 C.3   568  PHE568      0.0534
     42  CG       -26.1420   29.2920   44.8750 C.ar  568  PHE568     -0.0203
     43  CD1      -26.0920   29.8440   46.1520 C.ar  568  PHE568     -0.0042
     44  CD2      -26.2930   27.9150   44.7450 C.ar  568  PHE568     -0.0042
     45  CE1      -26.1920   29.0430   47.2770 C.ar  568  PHE568     -0.0003
     46  CE2      -26.3950   27.1050   45.8670 C.ar  568  PHE568     -0.0003
     47  CZ       -26.3450   27.6700   47.1340 C.ar  568  PHE568     -0.0000
     48  N        -21.0910   31.8080   52.9360 N.3   574  ARG574     -0.1245
     49  CA       -22.1460   31.8790   53.9470 C.3   574  ARG574      0.1563
     50  C        -22.1290   33.2350   54.6580 C.2   574  ARG574      0.2260
     51  O        -23.1930   33.8130   54.9280 O.2   574  ARG574     -0.2867
     52  CB       -22.0290   30.7330   54.9600 C.3   574  ARG574      0.0307
     53  CG       -22.5960   29.4070   54.4680 C.3   574  ARG574      0.0489
     54  CD       -22.6090   28.3630   55.5740 C.3   574  ARG574      0.2205
     55  NE       -23.0490   27.0570   55.0880 N.pl3 574  ARG574     -0.0865
     56  CZ       -22.9850   25.9290   55.7910 C.cat 574  ARG574      0.5346
     57  NH1      -22.4940   25.9310   57.0270 N.pl3 574  ARG574      0.1354
     58  NH2      -23.4110   24.7920   55.2540 N.pl3 574  ARG574      0.1354
     59  N        -24.1630   35.5970   52.4930 N.3   577  TRP577     -0.1227
     60  CA       -25.6060   35.4470   52.6300 C.3   577  TRP577      0.1737
     61  C        -26.0790   36.0720   53.9320 C.2   577  TRP577      0.2595
     62  O        -27.1190   36.7320   53.9700 O.2   577  TRP577     -0.2718
     63  CB       -26.0020   33.9880   52.5850 C.3   577  TRP577      0.0564
     64  CG       -25.8860   33.3540   51.1990 C.ar  577  TRP577      0.0003
     65  CD1      -25.1250   32.2500   50.8510 C.ar  577  TRP577      0.0946
     66  CD2      -26.5640   33.7470   49.9860 C.ar  577  TRP577      0.0152
     67  NE1      -25.2850   31.9470   49.5120 N.ar  577  TRP577     -0.2442
     68  CE2      -26.1540   32.8420   48.9490 C.ar  577  TRP577      0.0810
     69  CE3      -27.4660   34.7670   49.6650 C.ar  577  TRP577      0.0012
     70  CZ2      -26.6170   32.9410   47.6140 C.ar  577  TRP577      0.0191
     71  CZ3      -27.9270   34.8620   48.3290 C.ar  577  TRP577      0.0001
     72  CH2      -27.5090   33.9440   47.3300 C.ar  577  TRP577      0.0015
     73  N        -25.3010   35.8820   54.9970 N.am  578  LEU578     -0.1980
     74  CA       -25.5880   36.4730   56.2980 C.3   578  LEU578      0.1596
     75  C        -25.5030   37.9870   56.2680 C.2   578  LEU578      0.2287
     76  O        -26.3010   38.6680   56.9030 O.2   578  LEU578     -0.2864
     77  CB       -24.6400   35.9250   57.3640 C.3   578  LEU578      0.0297
     78  CG       -25.0940   34.6910   58.1330 C.3   578  LEU578      0.0022
     79  CD1      -24.6510   33.4030   57.4590 C.3   578  LEU578      0.0001
     80  CD2      -24.5330   34.7720   59.5450 C.3   578  LEU578      0.0001
     81  N        -26.0740   39.7340   53.4520 N.3   580  LEU580     -0.1231
     82  CA       -27.2660   40.0830   52.6830 C.3   580  LEU580      0.1693
     83  C        -28.4630   40.2330   53.6060 C.2   580  LEU580      0.2591
     84  O        -29.2070   41.2120   53.5160 O.2   580  LEU580     -0.2718
     85  CB       -27.5580   39.0480   51.5920 C.3   580  LEU580      0.0284
     86  CG       -26.8350   39.2530   50.2530 C.3   580  LEU580      0.0019
     87  CD1      -26.0700   38.0160   49.7980 C.3   580  LEU580      0.0001
     88  CD2      -27.7860   39.7390   49.1700 C.3   580  LEU580      0.0001
     89  N        -28.6270   39.2650   54.5060 N.am  581  LYS581     -0.1980
     90  CA       -29.6800   39.2900   55.5310 C.3   581  LYS581      0.1596
     91  C        -29.7550   40.6780   56.1920 C.2   581  LYS581      0.2287
     92  O        -30.8280   41.2990   56.2670 O.2   581  LYS581     -0.2864
     93  CB       -29.4010   38.1980   56.5830 C.3   581  LYS581      0.0298
     94  CG       -30.6080   37.4870   57.1860 C.3   581  LYS581      0.0038
     95  CD       -30.1470   36.3110   58.0470 C.3   581  LYS581      0.0206
     96  CE       -31.2490   35.2830   58.2820 C.3   581  LYS581      0.1093
     97  NZ       -32.2690   35.6900   59.2930 N.3   581  LYS581     -0.1314
     98  N        -30.6840   43.8450   53.7850 N.3   584  LYS584     -0.1245
     99  CA       -32.0930   44.0160   53.4580 C.3   584  LYS584      0.1561
    100  C        -32.7410   44.9010   54.5270 C.2   584  LYS584      0.2260
    101  O        -33.5590   45.7530   54.2060 O.2   584  LYS584     -0.2867
    102  CB       -32.8050   42.6690   53.3490 C.3   584  LYS584      0.0271
    103  CG       -33.2040   42.0890   54.6950 C.3   584  LYS584      0.0035
    104  CD       -34.2030   40.9580   54.5420 C.3   584  LYS584      0.0206
    105  CE       -33.9400   39.8620   55.5570 C.3   584  LYS584      0.1093
    106  NZ       -34.7460   38.6480   55.2440 N.3   584  LYS584     -0.1314
    107  N        -35.6370   45.9140   52.2840 N.3   589  ILE589     -0.1231
    108  CA       -36.0660   44.8770   51.3600 C.3   589  ILE589      0.1692
    109  C        -36.5930   43.6770   52.1480 C.2   589  ILE589      0.2591
    110  O        -35.9680   43.2490   53.1280 O.2   589  ILE589     -0.2718
    111  CB       -34.9200   44.4690   50.4110 C.3   589  ILE589      0.0266
    112  CG1      -34.4750   45.6810   49.5910 C.3   589  ILE589      0.0019
    113  CG2      -35.3520   43.3480   49.4700 C.3   589  ILE589      0.0020
    114  CD1      -33.1380   45.4930   48.9260 C.3   589  ILE589      0.0001
    115  N        -37.7490   43.1560   51.7290 N.am  590  GLU590     -0.1979
    116  CA       -38.3230   41.9460   52.3330 C.3   590  GLU590      0.1602
    117  C        -37.7480   40.6740   51.7380 C.2   590  GLU590      0.2287
    118  O        -37.1560   39.8610   52.4490 O.2   590  GLU590     -0.2864
    119  CB       -39.8400   41.9280   52.2050 C.3   590  GLU590      0.0415
    120  CG       -40.5190   43.0260   53.0120 C.3   590  GLU590      0.1163
    121  CD       -40.2680   42.9310   54.5130 C.2   590  GLU590      0.3649
    122  OE1      -40.3250   41.8070   55.0600 O.co2 590  GLU590     -0.2457
    123  OE2      -40.0290   43.9870   55.1460 O.co2 590  GLU590     -0.2457
@<TRIPOS>BOND
     1    23    22    2
     2    22    21    1
     3    37    38    1
     4    24    21    1
     5    24    25    1
     6    30    31    2
     7    30    29    1
     8    27    25   ar
     9    21    20    1
    10    25    26   ar
    11    28    29    1
    12    38    39    1
    13    38    41    1
    14    29    32    1
    15    39    40    2
    16    41    42    1
    17    20    14   am
    18    32    33    1
    19     3     4    2
    20     3     2    1
    21    12    13    1
    22    14    15    2
    23    14    13    1
    24    44    42   ar
    25    44    46   ar
    26     6     5    1
    27     6     7    1
    28    42    43   ar
    29     5     2    1
    30     2     1    1
    31    33    34    1
    32    13    16    1
    33    34    35    1
    34    46    47   ar
    35    43    45   ar
    36     7     8    1
    37     8     9    2
    38    16    17    1
    39    16    18    1
    40    47    45   ar
    41    35    36    1
    42    72    70   ar
    43    72    71   ar
    44    17    19    1
    45    70    68   ar
    46     9    11    1
    47     9    10    1
    48    71    69   ar
    49   114   112    1
    50    68    67   ar
    51    68    66   ar
    52    88    86    1
    53   113   111    1
    54    67    65   ar
    55   112   111    1
    56    69    66   ar
    57    87    86    1
    58    66    64   ar
    59    86    85    1
    60   111   108    1
    61    65    64   ar
    62    64    63    1
    63   108   109    1
    64   108   107    1
    65    85    82    1
    66   115   109   am
    67   115   116    1
    68   117   116    1
    69   117   118    2
    70   109   110    2
    71   119   116    1
    72   119   120    1
    73    59    60    1
    74    63    60    1
    75    60    61    1
    76    82    81    1
    77    82    83    1
    78    48    49    1
    79   120   121    1
    80   102    99    1
    81   102   103    1
    82    99    98    1
    83    99   100    1
    84    84    83    2
    85    83    89   am
    86    61    62    2
    87    61    73   am
    88    49    50    1
    89    49    52    1
    90   101   100    2
    91    53    52    1
    92    53    54    1
    93    89    90    1
    94   121   122   ar
    95   121   123   ar
    96   104   103    1
    97   104   105    1
    98    50    51    2
    99    73    74    1
   100    55    54    1
   101    55    56    2
   102   106   105    1
   103    58    56    1
   104    90    91    1
   105    90    93    1
   106    56    57    1
   107    91    92    2
   108    75    74    1
   109    75    76    2
   110    74    77    1
   111    93    94    1
   112    94    95    1
   113    77    78    1
   114    79    78    1
   115    95    96    1
   116    78    80    1
   117    96    97    1
