@<TRIPOS>MOLECULE
tmp/3wblA00.pdb
 201 192 0 0 0
SMALL
GASTEIGER

@<TRIPOS>ATOM
      1  N         26.1670   59.7340    3.5330 N.3    10  ILE10      -0.1231
      2  CA        27.3630   60.0260    4.3430 C.3    10  ILE10       0.1692
      3  C         27.2580   59.7390    5.8520 C.2    10  ILE10       0.2593
      4  O         28.2310   59.9280    6.6090 O.2    10  ILE10      -0.2718
      5  CB        27.8900   61.4700    4.1170 C.3    10  ILE10       0.0266
      6  CG1       26.8200   62.5210    4.4480 C.3    10  ILE10       0.0019
      7  CG2       28.4660   61.6230    2.7050 C.3    10  ILE10       0.0020
      8  CD1       27.2830   63.9640    4.2580 C.3    10  ILE10       0.0001
      9  N         26.0950   59.2760    6.2950 N.am   11  GLY11      -0.1942
     10  CA        25.8680   59.1000    7.7230 C.3    11  GLY11       0.2014
     11  C         24.4520   58.6770    8.0530 C.2    11  GLY11       0.2639
     12  O         23.5670   58.7040    7.1900 O.2    11  GLY11      -0.2714
     13  N         24.2480   58.2930    9.3130 N.am   12  GLU12      -0.1963
     14  CA        22.9540   57.8170    9.7980 C.3    12  GLU12       0.1733
     15  C         22.8020   58.1650   11.2840 C.2    12  GLU12       0.2617
     16  O         23.4330   57.5370   12.1530 O.2    12  GLU12      -0.2715
     17  CB        22.8770   56.3070    9.6020 C.3    12  GLU12       0.0429
     18  CG        21.5070   55.7740    9.2350 C.3    12  GLU12       0.1163
     19  CD        21.5890   54.6830    8.1690 C.2    12  GLU12       0.3649
     20  OE1       20.8360   54.7780    7.1680 O.co2  12  GLU12      -0.2457
     21  OE2       22.4220   53.7480    8.3090 O.co2  12  GLU12      -0.2457
     22  N         21.9680   59.1560   11.5810 N.am   13  GLY13      -0.1940
     23  CA        21.8150   59.6260   12.9550 C.3    13  GLY13       0.2014
     24  C         20.5710   59.1440   13.6720 C.2    13  GLY13       0.2639
     25  O         19.8000   58.3430   13.1390 O.2    13  GLY13      -0.2714
     26  N         20.3830   59.6330   14.9010 N.am   14  THR14      -0.1950
     27  CA        19.1650   59.3200   15.6600 C.3    14  THR14       0.1897
     28  C         17.9650   59.8500   14.8820 C.2    14  THR14       0.2313
     29  O         16.8750   59.2760   14.9410 O.2    14  THR14      -0.2863
     30  CB        19.1860   59.8480   17.1470 C.3    14  THR14       0.1794
     31  OG1       18.3420   60.9950   17.2910 O.3    14  THR14      -0.2208
     32  CG2       20.5940   60.1850   17.6200 C.3    14  THR14       0.0378
     33  N         21.6380   60.9170    6.3920 N.3    18  VAL18      -0.1245
     34  CA        22.3560   62.1030    5.8760 C.3    18  VAL18       0.1561
     35  C         23.0670   61.8180    4.5530 C.2    18  VAL18       0.2260
     36  O         23.8760   60.8800    4.4510 O.2    18  VAL18      -0.2867
     37  CB        23.3840   62.6940    6.9010 C.3    18  VAL18       0.0252
     38  CG1       23.8970   64.0820    6.4470 C.3    18  VAL18       0.0019
     39  CG2       22.7540   62.8300    8.2630 C.3    18  VAL18       0.0019
     40  N         24.8770   69.1150    3.1480 N.3    30  ALA30      -0.1245
     41  CA        24.5970   67.8350    3.8000 C.3    30  ALA30       0.1562
     42  C         23.0990   67.8600    3.9750 C.2    30  ALA30       0.2260
     43  O         22.5650   68.7990    4.5430 O.2    30  ALA30      -0.2867
     44  CB        25.2860   67.7430    5.1730 C.3    30  ALA30       0.0290
     45  N         19.6690   66.1760    5.4580 N.3    32  LYS32      -0.1245
     46  CA        19.1750   65.2290    6.4470 C.3    32  LYS32       0.1561
     47  C         17.6760   65.0180    6.2650 C.2    32  LYS32       0.2260
     48  O         16.9030   65.9560    6.3570 O.2    32  LYS32      -0.2867
     49  CB        19.4740   65.7250    7.8800 C.3    32  LYS32       0.0271
     50  CG        19.0980   64.7430    8.9480 C.3    32  LYS32       0.0035
     51  CD        19.7930   64.9780   10.2930 C.3    32  LYS32       0.0206
     52  CE        20.1040   63.6030   10.9290 C.3    32  LYS32       0.1093
     53  NZ        21.1310   63.6180   12.0380 N.3    32  LYS32      -0.1314
     54  N         27.4980   74.2770   12.9170 N.3    58  VAL58      -0.1245
     55  CA        27.2240   73.9060   11.5230 C.3    58  VAL58       0.1561
     56  C         25.9740   74.6730   11.0650 C.2    58  VAL58       0.2260
     57  O         24.8930   74.5080   11.6640 O.2    58  VAL58      -0.2867
     58  CB        27.0370   72.3480   11.3340 C.3    58  VAL58       0.0252
     59  CG1       26.6470   71.9780    9.8760 C.3    58  VAL58       0.0019
     60  CG2       28.3150   71.5940   11.7460 C.3    58  VAL58       0.0019
     61  N         22.1150   71.3620    5.5420 N.3    74  PHE74      -0.1227
     62  CA        23.1740   71.9000    6.3840 C.3    74  PHE74       0.1736
     63  C         24.3560   72.2940    5.5440 C.2    74  PHE74       0.2595
     64  O         24.5660   71.7260    4.5010 O.2    74  PHE74      -0.2718
     65  CB        23.6120   70.8750    7.4550 C.3    74  PHE74       0.0547
     66  CG        22.6750   70.7740    8.6410 C.ar   74  PHE74      -0.0202
     67  CD1       21.8000   69.6990    8.7710 C.ar   74  PHE74      -0.0042
     68  CD2       22.7090   71.7410    9.6520 C.ar   74  PHE74      -0.0042
     69  CE1       20.9520   69.6020    9.8760 C.ar   74  PHE74      -0.0003
     70  CE2       21.8800   71.6740   10.7470 C.ar   74  PHE74      -0.0003
     71  CZ        20.9820   70.5940   10.8760 C.ar   74  PHE74      -0.0000
     72  N         25.1400   73.2740    6.0060 N.am   75  GLU75      -0.1965
     73  CA        26.5090   73.4580    5.5070 C.3    75  GLU75       0.1733
     74  C         27.2740   72.1040    5.5120 C.2    75  GLU75       0.2616
     75  O         27.1960   71.3480    6.4940 O.2    75  GLU75      -0.2715
     76  CB        27.1920   74.4700    6.4440 C.3    75  GLU75       0.0429
     77  CG        28.6850   74.3950    6.5260 C.3    75  GLU75       0.1163
     78  CD        29.2550   75.3040    7.6210 C.2    75  GLU75       0.3649
     79  OE1       30.4090   75.6650    7.4700 O.co2  75  GLU75      -0.2457
     80  OE2       28.5800   75.6790    8.6090 O.co2  75  GLU75      -0.2457
     81  N         28.0230   71.8030    4.4470 N.am   76  PHE76      -0.1960
     82  CA        28.7590   70.5410    4.3500 C.3    76  PHE76       0.1771
     83  C         30.1900   70.7080    4.8540 C.2    76  PHE76       0.2619
     84  O         30.8420   71.6760    4.5060 O.2    76  PHE76      -0.2715
     85  CB        28.7830   70.0420    2.8890 C.3    76  PHE76       0.0574
     86  CG        29.5770   68.7910    2.6840 C.ar   76  PHE76      -0.0200
     87  CD1       28.9970   67.5460    2.8930 C.ar   76  PHE76      -0.0042
     88  CD2       30.9080   68.8580    2.2510 C.ar   76  PHE76      -0.0042
     89  CE1       29.7280   66.3550    2.7120 C.ar   76  PHE76      -0.0003
     90  CE2       31.6600   67.6750    2.0790 C.ar   76  PHE76      -0.0003
     91  CZ        31.0700   66.4310    2.3070 C.ar   76  PHE76      -0.0000
     92  N         30.6430   69.7810    5.7010 N.am   77  LEU77      -0.1963
     93  CA        32.0750   69.6870    6.0380 C.3    77  LEU77       0.1728
     94  C         32.5770   68.2780    5.7190 C.2    77  LEU77       0.2616
     95  O         31.8170   67.2950    5.7240 O.2    77  LEU77      -0.2715
     96  CB        32.4040   70.1090    7.4900 C.3    77  LEU77       0.0311
     97  CG        32.1880   71.5870    7.8650 C.3    77  LEU77       0.0022
     98  CD1       30.7440   71.7220    8.4470 C.3    77  LEU77       0.0001
     99  CD2       33.2000   72.1050    8.8880 C.3    77  LEU77       0.0001
    100  N         33.8700   68.1890    5.4370 N.am   78  HIS78      -0.1959
    101  CA        34.4330   66.9720    4.8620 C.3    78  HIS78       0.1787
    102  C         34.8930   65.9310    5.8540 C.2    78  HIS78       0.2620
    103  O         35.1360   64.7980    5.4680 O.2    78  HIS78      -0.2715
    104  CB        35.6280   67.3430    3.9960 C.3    78  HIS78       0.0785
    105  CG        35.2680   68.0220    2.7080 C.ar   78  HIS78       0.0821
    106  ND1       34.9390   69.3660    2.6310 N.ar   78  HIS78      -0.2267
    107  CD2       35.2260   67.5440    1.4350 C.ar   78  HIS78       0.1154
    108  CE1       34.7340   69.6870    1.3610 C.ar   78  HIS78       0.1986
    109  NE2       34.8790   68.5960    0.6200 N.ar   78  HIS78      -0.2212
    110  N         35.0480   66.2920    7.1220 N.am   79  GLN79      -0.1963
    111  CA        35.5110   65.3070    8.0820 C.3    79  GLN79       0.1733
    112  C         34.9230   65.5090    9.5010 C.2    79  GLN79       0.2616
    113  O         34.5300   66.6220    9.8620 O.2    79  GLN79      -0.2715
    114  CB        37.0600   65.2720    8.1010 C.3    79  GLN79       0.0408
    115  CG        37.5740   64.0300    8.8550 C.3    79  GLN79       0.0908
    116  CD        38.9570   63.6130    8.4630 C.2    79  GLN79       0.2608
    117  OE1       39.7640   63.2670    9.3280 O.2    79  GLN79      -0.2717
    118  NE2       39.2510   63.6180    7.1430 N.am   79  GLN79      -0.0878
    119  N         34.9120   64.4510   10.3180 N.am   80  ASP80      -0.1971
    120  CA        34.4300   64.5450   11.7220 C.3    80  ASP80       0.1709
    121  C         35.5340   64.1270   12.6810 C.2    80  ASP80       0.2293
    122  O         36.5740   63.5610   12.2420 O.2    80  ASP80      -0.2864
    123  CB        33.0990   63.7830   11.9810 C.3    80  ASP80       0.1436
    124  CG        33.2340   62.2370   11.9350 C.2    80  ASP80       0.3671
    125  OD1       34.2790   61.6540   12.3070 O.co2  80  ASP80      -0.2456
    126  OD2       32.2560   61.5940   11.5490 O.co2  80  ASP80      -0.2456
    127  N         36.5940   60.2490   12.9950 N.3    83  LYS83      -0.1245
    128  CA        37.5020   59.8310   11.9090 C.3    83  LYS83       0.1561
    129  C         38.8900   60.4430   12.0770 C.2    83  LYS83       0.2260
    130  O         39.9160   59.7780   11.8410 O.2    83  LYS83      -0.2867
    131  CB        36.9080   60.2880   10.5570 C.3    83  LYS83       0.0271
    132  CG        35.6670   59.5380   10.0680 C.3    83  LYS83       0.0035
    133  CD        34.7080   59.0850   11.1940 C.3    83  LYS83       0.0206
    134  CE        33.2550   58.8870   10.7070 C.3    83  LYS83       0.1093
    135  NZ        32.2620   58.9750   11.8740 N.3    83  LYS83      -0.1314
    136  N         28.9510   64.3000   20.8030 N.3   123  LYS123     -0.1245
    137  CA        29.8160   63.1350   20.6370 C.3   123  LYS123      0.1561
    138  C         30.7800   63.4010   19.4710 C.2   123  LYS123      0.2260
    139  O         30.5030   64.2940   18.6660 O.2   123  LYS123     -0.2867
    140  CB        28.9730   61.8780   20.4100 C.3   123  LYS123      0.0271
    141  CG        28.0820   61.8810   19.1900 C.3   123  LYS123      0.0035
    142  CD        26.9740   60.8530   19.4350 C.3   123  LYS123      0.0206
    143  CE        26.0620   60.7070   18.2490 C.3   123  LYS123      0.1093
    144  NZ        24.7540   60.2560   18.7560 N.3   123  LYS123     -0.1314
    145  N         31.2720   62.1710   16.5430 N.3   125  GLN125     -0.1231
    146  CA        30.6320   62.1770   15.2040 C.3   125  GLN125      0.1698
    147  C         29.8040   63.4280   14.9260 C.2   125  GLN125      0.2592
    148  O         29.5390   63.7650   13.7810 O.2   125  GLN125     -0.2718
    149  CB        29.8120   60.8990   14.9670 C.3   125  GLN125      0.0381
    150  CG        28.4560   60.9080   15.6280 C.3   125  GLN125      0.0905
    151  CD        27.5070   59.8050   15.1200 C.2   125  GLN125      0.2608
    152  OE1       26.3000   60.0610   14.8710 O.2   125  GLN125     -0.2717
    153  NE2       28.0550   58.5630   14.9510 N.am  125  GLN125     -0.0878
    154  N         29.4280   64.1450   15.9790 N.am  126  ASN126     -0.1974
    155  CA        28.7600   65.4560   15.8560 C.3   126  ASN126      0.1688
    156  C         29.6650   66.6820   15.7930 C.2   126  ASN126      0.2292
    157  O         29.1790   67.8060   15.8640 O.2   126  ASN126     -0.2864
    158  CB        27.7390   65.6300   17.0000 C.3   126  ASN126      0.1181
    159  CG        26.4780   64.8470   16.7370 C.2   126  ASN126      0.2629
    160  OD1       26.1900   64.5640   15.5810 O.2   126  ASN126     -0.2716
    161  ND2       25.7180   64.4890   17.7910 N.am  126  ASN126     -0.0877
    162  N         32.4860   68.5070   13.5340 N.3   128  LEU128     -0.1245
    163  CA        32.9670   68.4940   12.1690 C.3   128  LEU128      0.1561
    164  C         34.0860   69.4970   11.9840 C.2   128  LEU128      0.2260
    165  O         34.0400   70.5770   12.5600 O.2   128  LEU128     -0.2867
    166  CB        31.8070   68.7880   11.1740 C.3   128  LEU128      0.0270
    167  CG        30.6140   67.8190   11.2250 C.3   128  LEU128      0.0019
    168  CD1       29.5240   68.3110   10.2570 C.3   128  LEU128      0.0001
    169  CD2       31.0060   66.4080   10.8210 C.3   128  LEU128      0.0001
    170  N         27.4770   69.9480   15.2020 N.3   138  ALA138     -0.1231
    171  CA        26.3990   69.5250   14.2780 C.3   138  ALA138      0.1694
    172  C         25.2030   69.0420   15.1040 C.2   138  ALA138      0.2592
    173  O         25.3810   68.5230   16.1890 O.2   138  ALA138     -0.2718
    174  CB        26.8610   68.3680   13.3930 C.3   138  ALA138      0.0304
    175  N         24.0000   69.2180   14.5790 N.am  139  ASP139     -0.1974
    176  CA        22.7720   68.7250   15.2460 C.3   139  ASP139      0.1709
    177  C         22.4220   69.4090   16.5370 C.2   139  ASP139      0.2293
    178  O         21.7890   68.8120   17.4000 O.2   139  ASP139     -0.2864
    179  CB        22.8350   67.2060   15.4620 C.3   139  ASP139      0.1436
    180  CG        22.6200   66.4430   14.1840 C.2   139  ASP139      0.3671
    181  OD1       22.5060   67.0700   13.1140 O.co2 139  ASP139     -0.2456
    182  OD2       22.5420   65.2010   14.2450 O.co2 139  ASP139     -0.2456
    183  N         43.4980   64.2400    5.1050 N.3   282  ARG282     -0.1231
    184  CA        43.3650   63.5530    3.8390 C.3   282  ARG282      0.1694
    185  C         41.9060   63.3130    3.5240 C.2   282  ARG282      0.2591
    186  O         41.2460   62.5010    4.1880 O.2   282  ARG282     -0.2718
    187  CB        44.1400   62.2410    3.8240 C.3   282  ARG282      0.0321
    188  CG        45.4670   62.3530    3.1130 C.3   282  ARG282      0.0489
    189  CD        45.3450   62.9890    1.7040 C.3   282  ARG282      0.2205
    190  NE        46.0630   62.2130    0.6880 N.pl3 282  ARG282     -0.0865
    191  CZ        47.3850   62.0240    0.6480 C.cat 282  ARG282      0.5346
    192  NH1       48.1750   62.5580    1.5830 N.pl3 282  ARG282      0.1354
    193  NH2       47.9210   61.2890   -0.3340 N.pl3 282  ARG282      0.1354
    194  N         41.4250   64.0460    2.5120 N.am  283  LEU283     -0.1980
    195  CA        40.0510   63.9830    2.0120 C.3   283  LEU283      0.1596
    196  C         39.9830   63.2370    0.6870 C.2   283  LEU283      0.2287
    197  O         40.9340   63.2460   -0.1100 O.2   283  LEU283     -0.2864
    198  CB        39.4890   65.3910    1.7940 C.3   283  LEU283      0.0297
    199  CG        39.6320   66.4140    2.9140 C.3   283  LEU283      0.0022
    200  CD1       39.1100   67.7390    2.4440 C.3   283  LEU283      0.0001
    201  CD2       38.9260   65.9540    4.2160 C.3   283  LEU283      0.0001
@<TRIPOS>BOND
     1   193   191    1
     2   197   196    2
     3   109   108   ar
     4   109   107   ar
     5   191   190    2
     6   191   192    1
     7   196   195    1
     8   190   189    1
     9   108   106   ar
    10   107   105   ar
    11   189   188    1
    12   198   195    1
    13   198   199    1
    14   195   194    1
    15    90    88   ar
    16    90    91   ar
    17    88    86   ar
    18    91    89   ar
    19   200   199    1
    20   194   185   am
    21   106   105   ar
    22    86    85    1
    23    86    87   ar
    24     7     5    1
    25   105   104    1
    26    89    87   ar
    27    85    82    1
    28   199   201    1
    29   188   187    1
    30    40    41    1
    31   185   184    1
    32   185   186    2
    33     1     2    1
    34    41    42    1
    35    41    44    1
    36   187   184    1
    37   184   183    1
    38    42    43    2
    39   104   101    1
    40     5     2    1
    41     5     6    1
    42     8     6    1
    43     2     3    1
    44    82    81    1
    45    82    83    1
    46    81    74   am
    47    36    35    2
    48    64    63    2
    49    84    83    2
    50    35    34    1
    51    83    92   am
    52   101   100    1
    53   101   102    1
    54   100    94   am
    55    45    46    1
    56   103   102    2
    57    73    74    1
    58    73    72    1
    59    73    76    1
    60    74    75    2
    61    61    62    1
    62    63    72   am
    63    63    62    1
    64    92    93    1
    65    94    95    2
    66    94    93    1
    67     3     9   am
    68     3     4    2
    69   102   110   am
    70    34    33    1
    71    34    37    1
    72    93    96    1
    73    47    48    2
    74    47    46    1
    75     9    10    1
    76    62    65    1
    77    76    77    1
    78    38    37    1
    79    46    49    1
    80    77    78    1
    81    37    39    1
    82   110   111    1
    83   118   116   am
    84    20    19   ar
    85    12    11    2
    86    65    66    1
    87    79    78   ar
    88    96    97    1
    89    78    80   ar
    90    10    11    1
    91    97    98    1
    92    97    99    1
    93    49    50    1
    94    11    13   am
    95   111   114    1
    96   111   112    1
    97   114   115    1
    98    19    21   ar
    99    19    18    1
   100   116   115    1
   101   116   117    2
   102    66    67   ar
   103    66    68   ar
   104    67    69   ar
   105    50    51    1
   106    18    17    1
   107    13    14    1
   108   112   113    2
   109   112   119   am
   110    17    14    1
   111    68    70   ar
   112    14    15    1
   113    69    71   ar
   114    59    58    1
   115   132   131    1
   116   132   133    1
   117   168   167    1
   118    51    52    1
   119   119   120    1
   120   131   128    1
   121   134   133    1
   122   134   135    1
   123    70    71   ar
   124   169   167    1
   125    52    53    1
   126    56    55    1
   127    56    57    2
   128   166   167    1
   129   166   163    1
   130    15    22   am
   131    15    16    2
   132    58    55    1
   133    58    60    1
   134    55    54    1
   135   126   124   ar
   136    22    23    1
   137   120   123    1
   138   120   121    1
   139   130   129    2
   140   128   129    1
   141   128   127    1
   142   124   123    1
   143   124   125   ar
   144   164   163    1
   145   164   165    2
   146   163   162    1
   147   122   121    2
   148    23    24    1
   149   181   180   ar
   150    25    24    2
   151   174   171    1
   152    24    26   am
   153   148   147    2
   154   180   182   ar
   155   180   179    1
   156   171   172    1
   157   171   170    1
   158   175   172   am
   159   175   176    1
   160   152   151    2
   161    28    29    2
   162    28    27    1
   163    26    27    1
   164   147   146    1
   165   147   154   am
   166   153   151   am
   167   149   146    1
   168   149   150    1
   169   172   173    2
   170   151   150    1
   171   146   145    1
   172   176   179    1
   173   176   177    1
   174   160   159    2
   175    27    30    1
   176   156   155    1
   177   156   157    2
   178   155   154    1
   179   155   158    1
   180   177   178    2
   181   159   158    1
   182   159   161   am
   183    30    31    1
   184    30    32    1
   185   143   144    1
   186   143   142    1
   187   139   138    2
   188   141   142    1
   189   141   140    1
   190   138   137    1
   191   140   137    1
   192   137   136    1
