@<TRIPOS>MOLECULE
tmp/3wbnA01.pdb
 114 106 0 0 0
SMALL
GASTEIGER

@<TRIPOS>ATOM
      1  N        349.8840    4.3200   15.9470 N.3    94  VAL94      -0.1245
      2  CA       350.1710    5.4710   16.7970 C.3    94  VAL94       0.1561
      3  C        348.9270    6.3350   17.0090 C.2    94  VAL94       0.2260
      4  O        348.6400    6.7480   18.1340 O.2    94  VAL94      -0.2867
      5  CB       351.3150    6.3260   16.2270 C.3    94  VAL94       0.0252
      6  CG1      351.4860    7.5880   17.0490 C.3    94  VAL94       0.0019
      7  CG2      352.6080    5.5320   16.2150 C.3    94  VAL94       0.0019
      8  N        346.6800    4.7510   19.6450 N.3    97  LEU97      -0.1231
      9  CA       347.1120    4.8800   21.0350 C.3    97  LEU97       0.1693
     10  C        346.8390    6.2770   21.5890 C.2    97  LEU97       0.2591
     11  O        346.4510    6.4230   22.7510 O.2    97  LEU97      -0.2718
     12  CB       348.5910    4.5160   21.1740 C.3    97  LEU97       0.0284
     13  CG       348.8940    3.0560   20.8340 C.3    97  LEU97       0.0019
     14  CD1      350.3850    2.8060   20.6970 C.3    97  LEU97       0.0001
     15  CD2      348.2960    2.1320   21.8790 C.3    97  LEU97       0.0001
     16  N        347.0360    7.2970   20.7560 N.am   98  ILE98      -0.1980
     17  CA       346.6790    8.6630   21.1210 C.3    98  ILE98       0.1595
     18  C        345.1710    8.7500   21.3290 C.2    98  ILE98       0.2287
     19  O        344.7050    9.4160   22.2500 O.2    98  ILE98      -0.2864
     20  CB       347.1080    9.6690   20.0330 C.3    98  ILE98       0.0276
     21  CG1      348.6220    9.6240   19.8260 C.3    98  ILE98       0.0022
     22  CG2      346.6760   11.0790   20.3950 C.3    98  ILE98       0.0022
     23  CD1      349.0900   10.4260   18.6350 C.3    98  ILE98       0.0001
     24  N        344.0930    7.3800   24.6700 N.3   101  LEU101     -0.1245
     25  CA       344.3040    8.3420   25.7460 C.3   101  LEU101      0.1561
     26  C        343.1700    9.3620   25.7720 C.2   101  LEU101      0.2260
     27  O        342.5990    9.6460   26.8270 O.2   101  LEU101     -0.2867
     28  CB       345.6510    9.0470   25.5650 C.3   101  LEU101      0.0270
     29  CG       346.0730    9.9960   26.6860 C.3   101  LEU101      0.0019
     30  CD1      346.3430    9.2180   27.9700 C.3   101  LEU101      0.0001
     31  CD2      347.2890   10.8150   26.2840 C.3   101  LEU101      0.0001
     32  N        340.7050    4.7340   31.0180 N.3   144  PHE144     -0.1227
     33  CA       341.8160    4.7990   30.0750 C.3   144  PHE144      0.1736
     34  C        342.5280    3.4500   29.9330 C.2   144  PHE144      0.2595
     35  O        342.8960    3.0440   28.8300 O.2   144  PHE144     -0.2718
     36  CB       342.8200    5.8740   30.4870 C.3   144  PHE144      0.0547
     37  CG       344.1770    5.6920   29.8680 C.ar  144  PHE144     -0.0202
     38  CD1      344.3630    5.8740   28.5030 C.ar  144  PHE144     -0.0042
     39  CD2      345.2650    5.3300   30.6480 C.ar  144  PHE144     -0.0042
     40  CE1      345.6170    5.6930   27.9280 C.ar  144  PHE144     -0.0003
     41  CE2      346.5170    5.1520   30.0820 C.ar  144  PHE144     -0.0003
     42  CZ       346.6940    5.3340   28.7210 C.ar  144  PHE144     -0.0000
     43  N        342.7390    2.7760   31.0590 N.am  145  ILE145     -0.1980
     44  CA       343.3450    1.4510   31.0670 C.3   145  ILE145      0.1595
     45  C        342.5250    0.4630   30.2290 C.2   145  ILE145      0.2287
     46  O        343.0780   -0.3500   29.4850 O.2   145  ILE145     -0.2864
     47  CB       343.4830    0.9270   32.5090 C.3   145  ILE145      0.0276
     48  CG1      344.3910    1.8490   33.3280 C.3   145  ILE145      0.0022
     49  CG2      344.0170   -0.4870   32.5140 C.3   145  ILE145      0.0022
     50  CD1      345.7340    2.1330   32.6630 C.3   145  ILE145      0.0001
     51  N        342.9170    1.4980   26.4190 N.3   148  PHE148     -0.1241
     52  CA       344.2740    1.1470   26.0170 C.3   148  PHE148      0.1605
     53  C        344.4190   -0.3620   25.8110 C.2   148  PHE148      0.2264
     54  O        345.0330   -0.8050   24.8410 O.2   148  PHE148     -0.2867
     55  CB       345.2770    1.6500   27.0610 C.3   148  PHE148      0.0534
     56  CG       346.6910    1.1830   26.8300 C.ar  148  PHE148     -0.0203
     57  CD1      347.5230    1.8460   25.9370 C.ar  148  PHE148     -0.0042
     58  CD2      347.1960    0.0880   27.5240 C.ar  148  PHE148     -0.0042
     59  CE1      348.8290    1.4160   25.7270 C.ar  148  PHE148     -0.0003
     60  CE2      348.5000   -0.3450   27.3200 C.ar  148  PHE148     -0.0003
     61  CZ       349.3160    0.3190   26.4180 C.ar  148  PHE148     -0.0000
     62  N        345.1840   -3.0980   34.9830 N.3   203  VAL203     -0.1245
     63  CA       346.4630   -2.3920   35.0380 C.3   203  VAL203      0.1561
     64  C        347.6360   -3.3190   34.7130 C.2   203  VAL203      0.2260
     65  O        348.5350   -2.9540   33.9510 O.2   203  VAL203     -0.2867
     66  CB       346.6690   -1.7280   36.4080 C.3   203  VAL203      0.0252
     67  CG1      348.1070   -1.2940   36.5860 C.3   203  VAL203      0.0019
     68  CG2      345.7330   -0.5350   36.5490 C.3   203  VAL203      0.0019
     69  N        347.7270   -3.9830   31.1410 N.3   206  SER206     -0.1202
     70  CA       348.3000   -2.8030   30.5000 C.3   206  SER206      0.2020
     71  C        349.8200   -2.8530   30.4830 C.2   206  SER206      0.2618
     72  O        350.4490   -2.4300   29.5140 O.2   206  SER206     -0.2717
     73  CB       347.8370   -1.5340   31.2170 C.3   206  SER206      0.2103
     74  OG       346.5660   -1.1290   30.7570 O.3   206  SER206     -0.2182
     75  N        350.4010   -3.3690   31.5600 N.am  207  LEU207     -0.1979
     76  CA       351.8480   -3.4240   31.6960 C.3   207  LEU207      0.1596
     77  C        352.4580   -4.3870   30.6880 C.2   207  LEU207      0.2287
     78  O        353.4810   -4.0800   30.0740 O.2   207  LEU207     -0.2864
     79  CB       352.2300   -3.8170   33.1230 C.3   207  LEU207      0.0297
     80  CG       351.8460   -2.7870   34.1870 C.3   207  LEU207      0.0022
     81  CD1      352.0530   -3.3330   35.5880 C.3   207  LEU207      0.0001
     82  CD2      352.6490   -1.5140   33.9900 C.3   207  LEU207      0.0001
     83  N        352.0310   -2.7260   27.1700 N.3   210  ALA210     -0.1245
     84  CA       353.0020   -1.6450   27.0510 C.3   210  ALA210      0.1562
     85  C        354.4190   -2.2050   26.9000 C.2   210  ALA210      0.2260
     86  O        355.2060   -1.6990   26.1000 O.2   210  ALA210     -0.2867
     87  CB       352.9110   -0.7090   28.2540 C.3   210  ALA210      0.0290
     88  N        356.3960   -1.1390   23.6970 N.3   214  PHE214     -0.1241
     89  CA       357.3670   -0.0680   23.9300 C.3   214  PHE214      0.1605
     90  C        358.7520   -0.5370   24.3810 C.2   214  PHE214      0.2264
     91  O        359.7350    0.1810   24.2020 O.2   214  PHE214     -0.2867
     92  CB       356.8120    0.9140   24.9640 C.3   214  PHE214      0.0534
     93  CG       355.4930    1.5150   24.5800 C.ar  214  PHE214     -0.0203
     94  CD1      355.3140    2.1050   23.3370 C.ar  214  PHE214     -0.0042
     95  CD2      354.4280    1.4890   25.4640 C.ar  214  PHE214     -0.0042
     96  CE1      354.0900    2.6610   22.9880 C.ar  214  PHE214     -0.0003
     97  CE2      353.2060    2.0400   25.1210 C.ar  214  PHE214     -0.0003
     98  CZ       353.0370    2.6260   23.8830 C.ar  214  PHE214     -0.0000
     99  N        355.9670    1.7820   16.8380 N.3   223  ILE223     -0.1245
    100  CA       355.2630    2.8660   17.5140 C.3   223  ILE223      0.1561
    101  C        356.2430    3.9050   18.0650 C.2   223  ILE223      0.2260
    102  O        356.8500    3.7070   19.1190 O.2   223  ILE223     -0.2867
    103  CB       354.3470    2.3450   18.6440 C.3   223  ILE223      0.0252
    104  CG1      353.2540    1.4390   18.0760 C.3   223  ILE223      0.0019
    105  CG2      353.7070    3.5000   19.3910 C.3   223  ILE223      0.0019
    106  CD1      353.5750   -0.0350   18.1340 C.3   223  ILE223      0.0001
    107  N        356.8200    8.4870   18.1440 N.3   225  LEU225     -0.1245
    108  CA       356.2440    9.7900   17.8430 C.3   225  LEU225      0.1561
    109  C        356.9510   10.4120   16.6410 C.2   225  LEU225      0.2260
    110  O        356.3700   11.2280   15.9240 O.2   225  LEU225     -0.2867
    111  CB       356.3340   10.7140   19.0570 C.3   225  LEU225      0.0270
    112  CG       355.0340   11.4370   19.4150 C.3   225  LEU225      0.0019
    113  CD1      353.9340   10.4270   19.6900 C.3   225  LEU225      0.0001
    114  CD2      355.2190   12.3580   20.6070 C.3   225  LEU225      0.0001
@<TRIPOS>BOND
     1   110   109    2
     2     1     2    1
     3     7     5    1
     4     5     2    1
     5     5     6    1
     6   109   108    1
     7     2     3    1
     8    99   100    1
     9     3     4    2
    10   100   101    1
    11   100   103    1
    12   108   107    1
    13   108   111    1
    14   101   102    2
    15   104   106    1
    16   104   103    1
    17    23    21    1
    18   103   105    1
    19   111   112    1
    20   112   113    1
    21   112   114    1
    22     8     9    1
    23    21    20    1
    24    20    22    1
    25    20    17    1
    26    14    13    1
    27    16    17    1
    28    16    10   am
    29    13    12    1
    30    13    15    1
    31     9    12    1
    32     9    10    1
    33    17    18    1
    34    18    19    2
    35    10    11    2
    36    96    94   ar
    37    96    98   ar
    38    94    93   ar
    39    88    89    1
    40    98    97   ar
    41    89    90    1
    42    89    92    1
    43    91    90    2
    44    93    92    1
    45    93    95   ar
    46    24    25    1
    47    54    53    2
    48    97    95   ar
    49    28    25    1
    50    28    29    1
    51    59    57   ar
    52    59    61   ar
    53    25    26    1
    54    26    27    2
    55    53    52    1
    56    57    56   ar
    57    52    51    1
    58    52    55    1
    59    86    85    2
    60    31    29    1
    61    61    60   ar
    62    29    30    1
    63    56    55    1
    64    56    58   ar
    65    85    84    1
    66    84    83    1
    67    84    87    1
    68    60    58   ar
    69    40    38   ar
    70    40    42   ar
    71    38    37   ar
    72    42    41   ar
    73    35    34    2
    74    46    45    2
    75    72    71    2
    76    37    36    1
    77    37    39   ar
    78    34    33    1
    79    34    43   am
    80    78    77    2
    81    33    36    1
    82    33    32    1
    83    41    39   ar
    84    45    44    1
    85    71    70    1
    86    71    75   am
    87    70    69    1
    88    70    73    1
    89    77    76    1
    90    74    73    1
    91    43    44    1
    92    44    47    1
    93    75    76    1
    94    76    79    1
    95    47    49    1
    96    47    48    1
    97    50    48    1
    98    79    80    1
    99    65    64    2
   100    82    80    1
   101    80    81    1
   102    64    63    1
   103    62    63    1
   104    63    66    1
   105    66    68    1
   106    66    67    1
