@<TRIPOS>MOLECULE
tmp/3wbnA03.pdb
 134 119 0 0 0
SMALL
GASTEIGER

@<TRIPOS>ATOM
      1  N        341.3650  -16.4930   19.7530 N.3    23  MET23      -0.1245
      2  CA       340.3480  -15.5230   20.1460 C.3    23  MET23       0.1570
      3  C        339.1990  -16.1750   20.9200 C.2    23  MET23       0.2261
      4  O        338.7180  -15.6140   21.9090 O.2    23  MET23      -0.2867
      5  CB       339.8040  -14.7820   18.9270 C.3    23  MET23       0.0387
      6  CG       340.8150  -13.8820   18.2390 C.3    23  MET23       0.0595
      7  SD       341.5370  -12.6590   19.3510 S.3    23  MET23      -0.1393
      8  CE       340.0420  -11.8740   19.9440 C.3    23  MET23       0.0692
      9  N        338.1580  -15.3240   24.8160 N.3    27  MET27      -0.1245
     10  CA       336.7980  -14.9310   25.1710 C.3    27  MET27       0.1570
     11  C        336.1560  -15.9320   26.1330 C.2    27  MET27       0.2261
     12  O        335.2640  -15.5740   26.9070 O.2    27  MET27      -0.2867
     13  CB       335.9390  -14.7620   23.9140 C.3    27  MET27       0.0387
     14  CG       336.4250  -13.6750   22.9540 C.3    27  MET27       0.0595
     15  SD       335.4790  -13.6490   21.4140 S.3    27  MET27      -0.1393
     16  CE       336.5450  -12.6680   20.3520 C.3    27  MET27       0.0692
     17  N        337.3620  -14.8970   29.6100 N.3    30  GLN30      -0.1245
     18  CA       336.5710  -13.7310   30.0000 C.3    30  GLN30       0.1566
     19  C        335.1780  -14.1520   30.4640 C.2    30  GLN30       0.2260
     20  O        334.6420  -13.5990   31.4220 O.2    30  GLN30      -0.2867
     21  CB       336.4480  -12.7420   28.8370 C.3    30  GLN30       0.0367
     22  CG       337.7540  -12.0800   28.4020 C.3    30  GLN30       0.0905
     23  CD       337.5600  -11.1550   27.2100 C.2    30  GLN30       0.2608
     24  OE1      336.5100  -11.1630   26.5680 O.2    30  GLN30      -0.2717
     25  NE2      338.5710  -10.3520   26.9120 N.am   30  GLN30      -0.0878
     26  N        335.9300   -1.2620   22.9800 N.3    67  ALA67      -0.1245
     27  CA       335.9740   -2.3310   21.9890 C.3    67  ALA67       0.1562
     28  C        335.7780   -1.7990   20.5720 C.2    67  ALA67       0.2260
     29  O        336.3870   -2.3030   19.6220 O.2    67  ALA67      -0.2867
     30  CB       334.9320   -3.3890   22.3040 C.3    67  ALA67       0.0290
     31  N        338.2740   -2.3820   17.3770 N.3    71  VAL71      -0.1245
     32  CA       337.8910   -3.0150   16.1180 C.3    71  VAL71       0.1561
     33  C        338.2680   -2.1460   14.9130 C.2    71  VAL71       0.2260
     34  O        338.7740   -2.6530   13.9050 O.2    71  VAL71      -0.2867
     35  CB       336.3850   -3.3650   16.0930 C.3    71  VAL71       0.0252
     36  CG1      335.9410   -3.7530   14.6980 C.3    71  VAL71       0.0019
     37  CG2      336.0900   -4.5020   17.0520 C.3    71  VAL71       0.0019
     38  N        343.8540   -1.1470   26.7230 N.3   149  ASN149     -0.1225
     39  CA       343.9020   -2.5990   26.6030 C.3   149  ASN149      0.1785
     40  C        343.1770   -3.1300   25.3640 C.2   149  ASN149      0.2597
     41  O        343.6260   -4.0970   24.7480 O.2   149  ASN149     -0.2718
     42  CB       343.3530   -3.2620   27.8680 C.3   149  ASN149      0.1169
     43  CG       344.3330   -3.2190   29.0170 C.2   149  ASN149      0.2627
     44  OD1      343.9890   -3.5400   30.1560 O.2   149  ASN149     -0.2716
     45  ND2      345.5570   -2.8080   28.7310 N.am  149  ASN149     -0.0877
     46  N        342.0630   -2.5020   25.0000 N.am  150  ASN150     -0.1974
     47  CA       341.3200   -2.9130   23.8120 C.3   150  ASN150      0.1688
     48  C        342.0010   -2.4840   22.5070 C.2   150  ASN150      0.2292
     49  O        341.9380   -3.1980   21.5020 O.2   150  ASN150     -0.2864
     50  CB       339.8830   -2.3870   23.8700 C.3   150  ASN150      0.1181
     51  CG       338.9950   -3.2180   24.7750 C.2   150  ASN150      0.2629
     52  OD1      338.3280   -4.1510   24.3250 O.2   150  ASN150     -0.2716
     53  ND2      338.9830   -2.8850   26.0590 N.am  150  ASN150     -0.0877
     54  N        344.9860   -4.7880   22.0070 N.3   153  ASN153     -0.1240
     55  CA       344.4770   -6.0490   21.4840 C.3   153  ASN153      0.1653
     56  C        344.1970   -5.9330   19.9900 C.2   153  ASN153      0.2266
     57  O        344.5110   -6.8430   19.2170 O.2   153  ASN153     -0.2867
     58  CB       343.2090   -6.4700   22.2290 C.3   153  ASN153      0.1155
     59  CG       342.9090   -7.9530   22.0800 C.2   153  ASN153      0.2627
     60  OD1      342.3340   -8.3880   21.0820 O.2   153  ASN153     -0.2716
     61  ND2      343.3010   -8.7370   23.0760 N.am  153  ASN153     -0.0877
     62  N        347.4350   -5.9440   17.9500 N.3   156  LEU156     -0.1231
     63  CA       347.9140   -7.3170   17.8280 C.3   156  LEU156      0.1693
     64  C        347.1090   -8.1140   16.7980 C.2   156  LEU156      0.2591
     65  O        347.6880   -8.7440   15.9090 O.2   156  LEU156     -0.2718
     66  CB       347.8800   -8.0130   19.1880 C.3   156  LEU156      0.0284
     67  CG       348.7680   -7.3950   20.2660 C.3   156  LEU156      0.0019
     68  CD1      348.4630   -7.9710   21.6470 C.3   156  LEU156      0.0001
     69  CD2      350.2330   -7.5920   19.9150 C.3   156  LEU156      0.0001
     70  N        345.7810   -8.0860   16.9200 N.am  157  ARG157     -0.1980
     71  CA       344.9100   -8.7610   15.9580 C.3   157  ARG157      0.1597
     72  C        345.0600   -8.1540   14.5680 C.2   157  ARG157      0.2287
     73  O        344.9090   -8.8480   13.5610 O.2   157  ARG157     -0.2864
     74  CB       343.4470   -8.6760   16.3900 C.3   157  ARG157      0.0334
     75  CG       343.1500   -9.2950   17.7450 C.3   157  ARG157      0.0492
     76  CD       341.6510   -9.4720   17.9450 C.3   157  ARG157      0.2205
     77  NE       340.8710   -8.3630   17.4010 N.pl3 157  ARG157     -0.0865
     78  CZ       340.5350   -7.2770   18.0900 C.cat 157  ARG157      0.5346
     79  NH1      340.9130   -7.1410   19.3540 N.pl3 157  ARG157      0.1354
     80  NH2      339.8210   -6.3200   17.5140 N.pl3 157  ARG157      0.1354
     81  N        346.9930  -11.7770   26.5320 N.3   168  ALA168     -0.1231
     82  CA       346.6050  -10.6010   27.3040 C.3   168  ALA168      0.1694
     83  C        345.2100  -10.7480   27.9130 C.2   168  ALA168      0.2591
     84  O        344.9770  -10.3220   29.0480 O.2   168  ALA168     -0.2718
     85  CB       346.6890   -9.3520   26.4450 C.3   168  ALA168      0.0304
     86  N        344.2850  -11.3360   27.1570 N.am  169  MET169     -0.1979
     87  CA       342.9460  -11.6130   27.6700 C.3   169  MET169      0.1605
     88  C        343.0130  -12.6300   28.8040 C.2   169  MET169      0.2287
     89  O        342.3810  -12.4490   29.8500 O.2   169  MET169     -0.2864
     90  CB       342.0310  -12.1310   26.5550 C.3   169  MET169      0.0413
     91  CG       341.4900  -11.0430   25.6280 C.3   169  MET169      0.0598
     92  SD       340.4310  -11.6850   24.3050 S.3   169  MET169     -0.1393
     93  CE       341.6730  -12.1610   23.1130 C.3   169  MET169      0.0692
     94  N        344.6160  -10.9900   31.9670 N.3   172  GLY172     -0.1225
     95  CA       343.6840  -10.0870   32.6170 C.3   172  GLY172      0.1811
     96  C        342.5350  -10.7810   33.3230 C.2   172  GLY172      0.2280
     97  O        342.2950  -10.5410   34.5070 O.2   172  GLY172     -0.2866
     98  N        347.4670   -6.1030   32.9380 N.3   205  THR205     -0.1218
     99  CA       347.3400   -6.3540   31.4990 C.3   205  THR205      0.1862
    100  C        347.9520   -5.2140   30.6880 C.2   205  THR205      0.2287
    101  O        348.6120   -5.4490   29.6750 O.2   205  THR205     -0.2866
    102  CB       345.8680   -6.5390   31.0740 C.3   205  THR205      0.1770
    103  OG1      345.2990   -7.6370   31.7920 O.3   205  THR205     -0.2211
    104  CG2      345.7650   -6.8240   29.5840 C.3   205  THR205      0.0375
    105  N        351.0730   -5.3330   27.7920 N.3   209  ILE209     -0.1245
    106  CA       350.8720   -4.7480   26.4690 C.3   209  ILE209      0.1561
    107  C        351.8690   -3.6220   26.2000 C.2   209  ILE209      0.2260
    108  O        352.4810   -3.5720   25.1330 O.2   209  ILE209     -0.2867
    109  CB       349.4250   -4.2410   26.2910 C.3   209  ILE209      0.0252
    110  CG1      348.4520   -5.4220   26.2770 C.3   209  ILE209      0.0019
    111  CG2      349.2820   -3.4570   25.0050 C.3   209  ILE209      0.0019
    112  CD1      346.9910   -5.0140   26.2160 C.3   209  ILE209      0.0001
    113  N        327.2630   -2.4790   19.4480 N.3   249  GLN249     -0.1245
    114  CA       327.2940   -3.0790   20.7800 C.3   249  GLN249      0.1566
    115  C        326.2540   -2.4530   21.7110 C.2   249  GLN249      0.2260
    116  O        325.7720   -3.1050   22.6370 O.2   249  GLN249     -0.2867
    117  CB       328.6970   -2.9660   21.3810 C.3   249  GLN249      0.0367
    118  CG       329.7730   -3.6590   20.5520 C.3   249  GLN249      0.0905
    119  CD       331.1770   -3.2840   20.9810 C.2   249  GLN249      0.2608
    120  OE1      331.6430   -3.6880   22.0460 O.2   249  GLN249     -0.2717
    121  NE2      331.8630   -2.5080   20.1460 N.am  249  GLN249     -0.0878
    122  N        332.0200  -15.1070   17.6530 N.3   290  LEU290     -0.1245
    123  CA       332.7550  -13.8710   17.9020 C.3   290  LEU290      0.1561
    124  C        334.2400  -14.0360   17.5740 C.2   290  LEU290      0.2260
    125  O        334.8410  -13.1590   16.9490 O.2   290  LEU290     -0.2867
    126  CB       332.5850  -13.4170   19.3520 C.3   290  LEU290      0.0270
    127  CG       331.1720  -13.0410   19.7990 C.3   290  LEU290      0.0019
    128  CD1      331.1820  -12.4300   21.1930 C.3   290  LEU290      0.0001
    129  CD2      330.5360  -12.0860   18.8070 C.3   290  LEU290      0.0001
    130  N        336.1400  -11.9530   14.5960 N.3   294  ALA294     -0.1245
    131  CA       337.3440  -11.1460   14.7760 C.3   294  ALA294      0.1562
    132  C        338.4130  -11.5160   13.7490 C.2   294  ALA294      0.2260
    133  O        339.0960  -10.6440   13.2140 O.2   294  ALA294     -0.2867
    134  CB       337.8810  -11.3120   16.1840 C.3   294  ALA294      0.0290
@<TRIPOS>BOND
     1   133   132    2
     2    73    72    2
     3   132   131    1
     4    34    33    2
     5    72    71    1
     6   130   131    1
     7    36    35    1
     8   131   134    1
     9    33    32    1
    10    65    64    2
    11    71    74    1
    12    71    70    1
    13    35    32    1
    14    35    37    1
    15    32    31    1
    16    74    75    1
    17    64    70   am
    18    64    63    1
    19   125   124    2
    20    77    76    1
    21    77    78    2
    22    80    78    1
    23   124   123    1
    24   122   123    1
    25    75    76    1
    26    63    62    1
    27    63    66    1
    28   123   126    1
    29    78    79    1
    30     6     5    1
    31     6     7    1
    32   129   127    1
    33     5     2    1
    34    66    67    1
    35    57    56    2
    36     7     8    1
    37   126   127    1
    38   113   114    1
    39    29    28    2
    40     1     2    1
    41   127   128    1
    42    69    67    1
    43    56    55    1
    44     2     3    1
    45   121   119   am
    46    67    68    1
    47    16    15    1
    48   118   119    1
    49   118   117    1
    50    28    27    1
    51   114   117    1
    52   114   115    1
    53     3     4    2
    54   119   120    2
    55    60    59    2
    56    15    14    1
    57    55    54    1
    58    55    58    1
    59    49    48    2
    60   115   116    2
    61    27    30    1
    62    27    26    1
    63    59    58    1
    64    59    61   am
    65    48    47    1
    66    14    13    1
    67    93    92    1
    68    47    50    1
    69    47    46    1
    70    50    51    1
    71    13    10    1
    72    92    91    1
    73    52    51    2
    74    41    40    2
    75    51    53   am
    76     9    10    1
    77    46    40   am
    78   111   109    1
    79   108   107    2
    80    10    11    1
    81    40    39    1
    82    91    90    1
    83    11    12    2
    84   107   106    1
    85   112   110    1
    86   110   109    1
    87   109   106    1
    88    85    82    1
    89   106   105    1
    90    81    82    1
    91    90    87    1
    92    24    23    2
    93    39    38    1
    94    39    42    1
    95    25    23   am
    96    86    87    1
    97    86    83   am
    98    23    22    1
    99    82    83    1
   100    87    88    1
   101    42    43    1
   102    83    84    2
   103    22    21    1
   104    45    43   am
   105    88    89    2
   106    21    18    1
   107    43    44    2
   108   104   102    1
   109    17    18    1
   110   101   100    2
   111    18    19    1
   112    19    20    2
   113   100    99    1
   114   102    99    1
   115   102   103    1
   116    99    98    1
   117    94    95    1
   118    95    96    1
   119    96    97    2
