@<TRIPOS>MOLECULE
tmp/3wbnA04.pdb
 120 110 0 0 0
SMALL
GASTEIGER

@<TRIPOS>ATOM
      1  N        337.3620  -14.8970   29.6100 N.3    30  GLN30      -0.1245
      2  CA       336.5710  -13.7310   30.0000 C.3    30  GLN30       0.1566
      3  C        335.1780  -14.1520   30.4640 C.2    30  GLN30       0.2260
      4  O        334.6420  -13.5990   31.4220 O.2    30  GLN30      -0.2867
      5  CB       336.4480  -12.7420   28.8370 C.3    30  GLN30       0.0367
      6  CG       337.7540  -12.0800   28.4020 C.3    30  GLN30       0.0905
      7  CD       337.5600  -11.1550   27.2100 C.2    30  GLN30       0.2608
      8  OE1      336.5100  -11.1630   26.5680 O.2    30  GLN30      -0.2717
      9  NE2      338.5710  -10.3520   26.9120 N.am   30  GLN30      -0.0878
     10  N        335.4740  -15.6920   33.8750 N.3    33  TYR33      -0.1227
     11  CA       335.5920  -14.6420   34.8810 C.3    33  TYR33       0.1736
     12  C        334.2210  -14.1320   35.3060 C.2    33  TYR33       0.2595
     13  O        333.9490  -13.9960   36.5010 O.2    33  TYR33      -0.2718
     14  CB       336.4270  -13.4480   34.3950 C.3    33  TYR33       0.0548
     15  CG       336.0890  -12.2210   35.2080 C.ar   33  TYR33      -0.0200
     16  CD1      336.4450  -12.1410   36.5490 C.ar   33  TYR33      -0.0009
     17  CD2      335.3600  -11.1730   34.6610 C.ar   33  TYR33      -0.0009
     18  CE1      336.1000  -11.0520   37.3140 C.ar   33  TYR33       0.0417
     19  CE2      335.0190  -10.0740   35.4180 C.ar   33  TYR33       0.0417
     20  CZ       335.3940  -10.0190   36.7420 C.ar   33  TYR33       0.1957
     21  OH       335.0570   -8.9270   37.5030 O.3    33  TYR33      -0.2866
     22  N        333.3770  -13.8180   34.3260 N.am   34  ASN34      -0.1974
     23  CA       332.0640  -13.2520   34.6140 C.3    34  ASN34       0.1688
     24  C        331.1830  -14.1930   35.4260 C.2    34  ASN34       0.2292
     25  O        330.4850  -13.7600   36.3400 O.2    34  ASN34      -0.2864
     26  CB       331.3520  -12.8420   33.3240 C.3    34  ASN34       0.1181
     27  CG       332.0410  -11.6980   32.6190 C.2    34  ASN34       0.2629
     28  OD1      332.6220  -10.8220   33.2570 O.2    34  ASN34      -0.2716
     29  ND2      331.9750  -11.6940   31.2940 N.am   34  ASN34      -0.0877
     30  N        332.6170   -0.2660   27.7510 N.3    63  ILE63      -0.1245
     31  CA       333.1070   -1.3930   26.9620 C.3    63  ILE63       0.1561
     32  C        332.8340   -1.1990   25.4670 C.2    63  ILE63       0.2260
     33  O        333.6960   -1.4790   24.6330 O.2    63  ILE63      -0.2867
     34  CB       332.4900   -2.7270   27.4440 C.3    63  ILE63       0.0252
     35  CG1      332.9230   -3.0300   28.8800 C.3    63  ILE63       0.0019
     36  CG2      332.8750   -3.8720   26.5150 C.3    63  ILE63       0.0019
     37  CD1      334.4310   -3.1460   29.0650 C.3    63  ILE63       0.0001
     38  N        341.2030    0.5470   30.3500 N.3   146  ILE146     -0.1245
     39  CA       340.2950   -0.3000   29.5820 C.3   146  ILE146      0.1561
     40  C        340.4190   -0.0620   28.0730 C.2   146  ILE146      0.2260
     41  O        340.5270   -1.0160   27.2940 O.2   146  ILE146     -0.2867
     42  CB       338.8360   -0.0600   30.0030 C.3   146  ILE146      0.0252
     43  CG1      338.6720   -0.3130   31.5020 C.3   146  ILE146      0.0019
     44  CG2      337.9000   -0.9400   29.1990 C.3   146  ILE146      0.0019
     45  CD1      337.3200    0.0720   32.0660 C.3   146  ILE146      0.0001
     46  N        343.8540   -1.1470   26.7230 N.3   149  ASN149     -0.1225
     47  CA       343.9020   -2.5990   26.6030 C.3   149  ASN149      0.1785
     48  C        343.1770   -3.1300   25.3640 C.2   149  ASN149      0.2597
     49  O        343.6260   -4.0970   24.7480 O.2   149  ASN149     -0.2718
     50  CB       343.3530   -3.2620   27.8680 C.3   149  ASN149      0.1169
     51  CG       344.3330   -3.2190   29.0170 C.2   149  ASN149      0.2627
     52  OD1      343.9890   -3.5400   30.1560 O.2   149  ASN149     -0.2716
     53  ND2      345.5570   -2.8080   28.7310 N.am  149  ASN149     -0.0877
     54  N        342.0630   -2.5020   25.0000 N.am  150  ASN150     -0.1974
     55  CA       341.3200   -2.9130   23.8120 C.3   150  ASN150      0.1688
     56  C        342.0010   -2.4840   22.5070 C.2   150  ASN150      0.2292
     57  O        341.9380   -3.1980   21.5020 O.2   150  ASN150     -0.2864
     58  CB       339.8830   -2.3870   23.8700 C.3   150  ASN150      0.1181
     59  CG       338.9950   -3.2180   24.7750 C.2   150  ASN150      0.2629
     60  OD1      338.3280   -4.1510   24.3250 O.2   150  ASN150     -0.2716
     61  ND2      338.9830   -2.8850   26.0590 N.am  150  ASN150     -0.0877
     62  N        346.9930  -11.7770   26.5320 N.3   168  ALA168     -0.1231
     63  CA       346.6050  -10.6010   27.3040 C.3   168  ALA168      0.1694
     64  C        345.2100  -10.7480   27.9130 C.2   168  ALA168      0.2591
     65  O        344.9770  -10.3220   29.0480 O.2   168  ALA168     -0.2718
     66  CB       346.6890   -9.3520   26.4450 C.3   168  ALA168      0.0304
     67  N        344.2850  -11.3360   27.1570 N.am  169  MET169     -0.1979
     68  CA       342.9460  -11.6130   27.6700 C.3   169  MET169      0.1605
     69  C        343.0130  -12.6300   28.8040 C.2   169  MET169      0.2287
     70  O        342.3810  -12.4490   29.8500 O.2   169  MET169     -0.2864
     71  CB       342.0310  -12.1310   26.5550 C.3   169  MET169      0.0413
     72  CG       341.4900  -11.0430   25.6280 C.3   169  MET169      0.0598
     73  SD       340.4310  -11.6850   24.3050 S.3   169  MET169     -0.1393
     74  CE       341.6730  -12.1610   23.1130 C.3   169  MET169      0.0692
     75  N        344.6160  -10.9900   31.9670 N.3   172  GLY172     -0.1210
     76  CA       343.6840  -10.0870   32.6170 C.3   172  GLY172      0.1956
     77  C        342.5350  -10.7810   33.3230 C.2   172  GLY172      0.2612
     78  O        342.2950  -10.5410   34.5070 O.2   172  GLY172     -0.2717
     79  N        341.8230  -11.6370   32.5990 N.am  173  SER173     -0.1952
     80  CA       340.6900  -12.3510   33.1710 C.3   173  SER173      0.1924
     81  C        341.1070  -13.3660   34.2350 C.2   173  SER173      0.2314
     82  O        340.4040  -13.5480   35.2310 O.2   173  SER173     -0.2863
     83  CB       339.8830  -13.0350   32.0680 C.3   173  SER173      0.2116
     84  OG       339.3690  -12.0780   31.1600 O.3   173  SER173     -0.2180
     85  N        341.9490  -11.4760   37.3910 N.3   176  ASN176     -0.1240
     86  CA       340.7220  -11.0030   38.0240 C.3   176  ASN176      0.1653
     87  C        340.0310  -12.1400   38.7780 C.2   176  ASN176      0.2266
     88  O        339.4120  -11.9230   39.8220 O.2   176  ASN176     -0.2867
     89  CB       339.7850  -10.4020   36.9780 C.3   176  ASN176      0.1155
     90  CG       338.8060   -9.4020   37.5710 C.2   176  ASN176      0.2627
     91  OD1      338.2250   -8.5880   36.8530 O.2   176  ASN176     -0.2716
     92  ND2      338.6100   -9.4640   38.8820 N.am  176  ASN176     -0.0877
     93  N        339.2290   -6.0130   39.5230 N.3   198  THR198     -0.1218
     94  CA       339.1660   -5.7540   38.0900 C.3   198  THR198      0.1862
     95  C        340.1530   -4.6650   37.6730 C.2   198  THR198      0.2287
     96  O        340.9210   -4.8470   36.7240 O.2   198  THR198     -0.2866
     97  CB       337.7450   -5.3410   37.6770 C.3   198  THR198      0.1770
     98  OG1      336.8250   -6.3990   37.9920 O.3   198  THR198     -0.2211
     99  CG2      337.6860   -5.0490   36.1950 C.3   198  THR198      0.0375
    100  N        343.6450   -5.9430   37.7760 N.3   201  SER201     -0.1202
    101  CA       343.9030   -6.9290   36.7310 C.3   201  SER201      0.2020
    102  C        344.0140   -6.2590   35.3570 C.2   201  SER201      0.2618
    103  O        344.7490   -6.7300   34.4870 O.2   201  SER201     -0.2717
    104  CB       342.8150   -8.0020   36.7260 C.3   201  SER201      0.2103
    105  OG       341.6630   -7.5500   36.0410 O.3   201  SER201     -0.2182
    106  N        343.2940   -5.1550   35.1730 N.am  202  MET202     -0.1979
    107  CA       343.3910   -4.3680   33.9460 C.3   202  MET202      0.1605
    108  C        344.7330   -3.6440   33.8560 C.2   202  MET202      0.2287
    109  O        345.3430   -3.5750   32.7840 O.2   202  MET202     -0.2864
    110  CB       342.2570   -3.3450   33.8760 C.3   202  MET202      0.0413
    111  CG       340.8670   -3.9460   33.7090 C.3   202  MET202      0.0598
    112  SD       339.5660   -2.7050   33.8610 S.3   202  MET202     -0.1393
    113  CE       338.2020   -3.5360   33.0310 C.3   202  MET202      0.0692
    114  N        347.4670   -6.1030   32.9380 N.3   205  THR205     -0.1218
    115  CA       347.3400   -6.3540   31.4990 C.3   205  THR205      0.1862
    116  C        347.9520   -5.2140   30.6880 C.2   205  THR205      0.2287
    117  O        348.6120   -5.4490   29.6750 O.2   205  THR205     -0.2866
    118  CB       345.8680   -6.5390   31.0740 C.3   205  THR205      0.1770
    119  OG1      345.2990   -7.6370   31.7920 O.3   205  THR205     -0.2211
    120  CG2      345.7650   -6.8240   29.5840 C.3   205  THR205      0.0375
@<TRIPOS>BOND
     1    57    56    2
     2    56    55    1
     3    74    73    1
     4    55    58    1
     5    55    54    1
     6    58    59    1
     7    73    72    1
     8    60    59    2
     9    33    32    2
    10    49    48    2
    11    59    61   am
    12    54    48   am
    13    48    47    1
    14    32    31    1
    15    72    71    1
    16    66    63    1
    17    36    34    1
    18    62    63    1
    19    71    68    1
    20     8     7    2
    21    47    46    1
    22    47    50    1
    23     9     7   am
    24    31    34    1
    25    31    30    1
    26    67    68    1
    27    67    64   am
    28     7     6    1
    29    41    40    2
    30    63    64    1
    31    34    35    1
    32    68    69    1
    33    50    51    1
    34    64    65    2
    35    40    39    1
    36     6     5    1
    37    53    51   am
    38    69    70    2
    39     5     2    1
    40    35    37    1
    41    51    52    2
    42    44    42    1
    43    39    42    1
    44    39    38    1
    45   120   118    1
    46     1     2    1
    47   117   116    2
    48     2     3    1
    49    42    43    1
    50     3     4    2
    51   116   115    1
    52   118   115    1
    53   118   119    1
    54    84    83    1
    55    29    27   am
    56   115   114    1
    57    43    45    1
    58    75    76    1
    59    83    80    1
    60    79    80    1
    61    79    77   am
    62    76    77    1
    63    27    28    2
    64    27    26    1
    65   109   108    2
    66   113   112    1
    67    80    81    1
    68    77    78    2
    69    26    23    1
    70   111   112    1
    71   111   110    1
    72   108   107    1
    73    10    11    1
    74   110   107    1
    75   107   106    1
    76    81    82    2
    77    22    23    1
    78    22    12   am
    79    14    11    1
    80    14    15    1
    81   103   102    2
    82    23    24    1
    83    17    15   ar
    84    17    19   ar
    85    11    12    1
    86   106   102   am
    87    15    16   ar
    88    12    13    2
    89   102   101    1
    90    19    20   ar
    91    24    25    2
    92   105   104    1
    93    99    97    1
    94    16    18   ar
    95    96    95    2
    96   104   101    1
    97   101   100    1
    98    20    18   ar
    99    20    21    1
   100    91    90    2
   101    89    90    1
   102    89    86    1
   103    85    86    1
   104    90    92   am
   105    95    94    1
   106    97    98    1
   107    97    94    1
   108    86    87    1
   109    94    93    1
   110    87    88    2
