@<TRIPOS>MOLECULE
tmp/3wbwA00.pdb
 244 241 0 0 0
SMALL
GASTEIGER

@<TRIPOS>ATOM
      1  N          9.1360   -4.2210   10.8500 N.3    20  GLY20      -0.1210
      2  CA        10.1840   -3.8230   11.7860 C.3    20  GLY20       0.1956
      3  C         10.6920   -5.0320   12.5600 C.2    20  GLY20       0.2612
      4  O          9.9850   -5.6060   13.3760 O.2    20  GLY20      -0.2717
      5  N         11.9070   -5.4650   12.2740 N.am   21  VAL21      -0.1965
      6  CA        12.4790   -6.5460   13.0420 C.3    21  VAL21       0.1727
      7  C         13.0800   -5.8610   14.2630 C.2    21  VAL21       0.2616
      8  O         13.5650   -4.7190   14.1530 O.2    21  VAL21      -0.2715
      9  CB        13.5000   -7.2960   12.1860 C.3    21  VAL21       0.0290
     10  CG1       14.4590   -8.1430   13.0080 C.3    21  VAL21       0.0023
     11  CG2       12.7650   -8.1480   11.1480 C.3    21  VAL21       0.0023
     12  N         12.9700   -6.4750   15.4260 N.am   22  TRP22      -0.1974
     13  CA        13.6170   -5.8830   16.6110 C.3    22  TRP22       0.1640
     14  C         14.7460   -6.7710   17.1280 C.2    22  TRP22       0.2290
     15  O         15.4520   -7.3760   16.3220 O.2    22  TRP22      -0.2864
     16  CB        12.6440   -5.4880   17.7310 C.3    22  TRP22       0.0576
     17  CG        13.1550   -4.2360   18.5220 C.ar   22  TRP22       0.0006
     18  CD1       14.3660   -3.5790   18.3560 C.ar   22  TRP22       0.0946
     19  CD2       12.4760   -3.5360   19.5790 C.ar   22  TRP22       0.0152
     20  NE1       14.4660   -2.5160   19.2360 N.ar   22  TRP22      -0.2442
     21  CE2       13.3240   -2.4640   19.9930 C.ar   22  TRP22       0.0810
     22  CE3       11.2370   -3.7100   20.2220 C.ar   22  TRP22       0.0012
     23  CZ2       12.9670   -1.5720   21.0140 C.ar   22  TRP22       0.0191
     24  CZ3       10.8780   -2.8100   21.2390 C.ar   22  TRP22       0.0001
     25  CH2       11.7550   -1.7610   21.6310 C.ar   22  TRP22       0.0015
     26  N         12.8890   -4.4490    7.6930 N.3    45  ASP45      -0.1239
     27  CA        13.8250   -3.4640    8.2070 C.3    45  ASP45       0.1674
     28  C         14.5740   -4.0070    9.4050 C.2    45  ASP45       0.2266
     29  O         13.9660   -4.4920   10.3520 O.2    45  ASP45      -0.2867
     30  CB        13.0570   -2.1750    8.5180 C.3    45  ASP45       0.1410
     31  CG        13.9150   -1.1060    9.1790 C.2    45  ASP45       0.3668
     32  OD1       14.0150   -1.1510   10.4360 O.co2  45  ASP45      -0.2456
     33  OD2       14.4190   -0.1880    8.4660 O.co2  45  ASP45      -0.2456
     34  N         21.0010   -4.9510   16.1950 N.3    50  TYR50      -0.1241
     35  CA        20.1830   -6.1130   16.6170 C.3    50  TYR50       0.1605
     36  C         20.9220   -7.4360   16.5040 C.2    50  TYR50       0.2264
     37  O         20.4910   -8.4390   17.0630 O.2    50  TYR50      -0.2867
     38  CB        18.8060   -6.1290   15.9070 C.3    50  TYR50       0.0534
     39  CG        18.0720   -4.8250   16.0400 C.ar   50  TYR50      -0.0201
     40  CD1       18.2140   -4.0380   17.1890 C.ar   50  TYR50      -0.0009
     41  CD2       17.2630   -4.3500   15.0050 C.ar   50  TYR50      -0.0009
     42  CE1       17.5550   -2.8080   17.2930 C.ar   50  TYR50       0.0417
     43  CE2       16.6140   -3.1400   15.0960 C.ar   50  TYR50       0.0417
     44  CZ        16.7550   -2.3750   16.2420 C.ar   50  TYR50       0.1957
     45  OH        16.1060   -1.1580   16.3260 O.3    50  TYR50      -0.2866
     46  N         21.0360   -0.7680    8.8400 N.3    71  LYS71      -0.1245
     47  CA        21.5310    0.4780    9.4240 C.3    71  LYS71       0.1561
     48  C         22.9270    0.2790   10.0000 C.2    71  LYS71       0.2260
     49  O         23.1940   -0.7770   10.5960 O.2    71  LYS71      -0.2867
     50  CB        20.6040    0.9600   10.5400 C.3    71  LYS71       0.0271
     51  CG        19.0970    1.0360   10.1100 C.3    71  LYS71       0.0035
     52  CD        18.2310    1.7230   11.1470 C.3    71  LYS71       0.0206
     53  CE        16.7600    1.5120   10.8080 C.3    71  LYS71       0.1093
     54  NZ        16.3130    0.1200   11.1880 N.3    71  LYS71      -0.1314
     55  N         22.3260    4.9900   11.5020 N.3   104  HIS104     -0.1226
     56  CA        21.2940    4.7440   12.5470 C.3   104  HIS104      0.1752
     57  C         20.9560    5.9710   13.4270 C.2   104  HIS104      0.2596
     58  O         19.7750    6.2110   13.7600 O.2   104  HIS104     -0.2718
     59  CB        21.7270    3.5670   13.4250 C.3   104  HIS104      0.0759
     60  CG        20.6030    2.8870   14.1590 C.ar  104  HIS104      0.0818
     61  ND1       20.6300    1.5370   14.4510 N.ar  104  HIS104     -0.2268
     62  CD2       19.4540    3.3600   14.6990 C.ar  104  HIS104      0.1154
     63  CE1       19.5350    1.2030   15.1160 C.ar  104  HIS104      0.1986
     64  NE2       18.7970    2.2890   15.2710 N.ar  104  HIS104     -0.2212
     65  N         21.9940    6.7040   13.8460 N.am  105  TRP105     -0.1976
     66  CA        21.8640    7.9600   14.6270 C.3   105  TRP105      0.1640
     67  C         22.9100    8.9530   14.1350 C.2   105  TRP105      0.2290
     68  O         24.0110    8.5370   13.7420 O.2   105  TRP105     -0.2864
     69  CB        22.1270    7.7390   16.1740 C.3   105  TRP105      0.0576
     70  CG        21.0460    6.9450   16.8460 C.ar  105  TRP105      0.0006
     71  CD1       20.9940    5.5830   16.9730 C.ar  105  TRP105      0.0946
     72  CD2       19.8580    7.4600   17.4500 C.ar  105  TRP105      0.0152
     73  NE1       19.8120    5.2140   17.6250 N.ar  105  TRP105     -0.2442
     74  CE2       19.1100    6.3520   17.9260 C.ar  105  TRP105      0.0810
     75  CE3       19.3430    8.7640   17.6490 C.ar  105  TRP105      0.0012
     76  CZ2       17.8770    6.5060   18.5780 C.ar  105  TRP105      0.0191
     77  CZ3       18.1050    8.9050   18.2730 C.ar  105  TRP105      0.0001
     78  CH2       17.3860    7.7740   18.7360 C.ar  105  TRP105      0.0015
     79  N         18.6170    7.9670    9.6220 N.3   135  SER135     -0.1202
     80  CA        17.6190    7.6790   10.6370 C.3   135  SER135      0.2020
     81  C         17.9120    8.6390   11.8010 C.2   135  SER135      0.2618
     82  O         19.1130    8.8820   12.1430 O.2   135  SER135     -0.2717
     83  CB        17.6830    6.2090   11.0540 C.3   135  SER135      0.2103
     84  OG        16.7670    5.9470   12.1130 O.3   135  SER135     -0.2182
     85  N         16.8440    9.2210   12.3520 N.am  136  ASN136     -0.1974
     86  CA        16.9230   10.0880   13.5510 C.3   136  ASN136      0.1688
     87  C         17.6740   11.3840   13.3290 C.2   136  ASN136      0.2292
     88  O         18.1730   11.9780   14.2820 O.2   136  ASN136     -0.2864
     89  CB        17.5770    9.3360   14.7260 C.3   136  ASN136      0.1181
     90  CG        16.7900    8.0900   15.0960 C.2   136  ASN136      0.2629
     91  OD1       15.5690    8.1500   15.2650 O.2   136  ASN136     -0.2716
     92  ND2       17.4760    6.9500   15.1980 N.am  136  ASN136     -0.0877
     93  N         14.3070    8.0460    8.5670 N.3   157  GLN157     -0.1245
     94  CA        13.4710    7.1870    9.4110 C.3   157  GLN157      0.1566
     95  C         13.4890    7.7110   10.8640 C.2   157  GLN157      0.2260
     96  O         14.5630    7.7450   11.5630 O.2   157  GLN157     -0.2867
     97  CB        13.9850    5.7400    9.3440 C.3   157  GLN157      0.0367
     98  CG        13.0890    4.7360   10.0200 C.3   157  GLN157      0.0905
     99  CD        13.7130    3.3370   10.1760 C.2   157  GLN157      0.2608
    100  OE1       13.9550    2.9160   11.2850 O.2   157  GLN157     -0.2717
    101  NE2       13.9790    2.6300    9.0540 N.am  157  GLN157     -0.0878
    102  N          9.3160    5.0250   12.4970 N.3   183  TRP183     -0.1227
    103  CA         9.4820    3.9830   13.5080 C.3   183  TRP183      0.1737
    104  C          8.6970    4.2860   14.7670 C.2   183  TRP183      0.2595
    105  O          8.2790    5.4380   14.9840 O.2   183  TRP183     -0.2718
    106  CB        10.9750    3.6910   13.7800 C.3   183  TRP183      0.0564
    107  CG        11.8410    4.6900   14.4210 C.ar  183  TRP183      0.0003
    108  CD1       12.7350    5.5410   13.7960 C.ar  183  TRP183      0.0946
    109  CD2       12.0720    4.8480   15.8380 C.ar  183  TRP183      0.0152
    110  NE1       13.4440    6.2650   14.7500 N.ar  183  TRP183     -0.2442
    111  CE2       13.0680    5.8490   15.9990 C.ar  183  TRP183      0.0810
    112  CE3       11.5260    4.2520   16.9810 C.ar  183  TRP183      0.0012
    113  CZ2       13.5310    6.2630   17.2640 C.ar  183  TRP183      0.0191
    114  CZ3       11.9950    4.6740   18.2500 C.ar  183  TRP183      0.0001
    115  CH2       12.9720    5.6620   18.3750 C.ar  183  TRP183      0.0015
    116  N          8.5020    3.2480   15.5800 N.am  184  ARG184     -0.1966
    117  CA         7.5440    3.2800   16.6940 C.3   184  ARG184      0.1714
    118  C          6.1480    3.7770   16.2090 C.2   184  ARG184      0.2458
    119  O          5.5720    4.6650   16.8250 O.2   184  ARG184     -0.2730
    120  CB         8.0970    4.1830   17.8160 C.3   184  ARG184      0.0347
    121  CG         7.3060    4.1670   19.1310 C.3   184  ARG184      0.0492
    122  CD         8.2060    4.3720   20.3720 C.3   184  ARG184      0.2205
    123  NE         8.9630    3.1380   20.5550 N.pl3 184  ARG184     -0.0865
    124  CZ        10.1510    3.0450   21.1440 C.cat 184  ARG184      0.5346
    125  NH1       10.7700    4.1300   21.6130 N.pl3 184  ARG184      0.1354
    126  NH2       10.7310    1.8530   21.2250 N.pl3 184  ARG184      0.1354
    127  N          5.6280    3.2640   15.0630 N.am  185  PRO185     -0.2716
    128  CA         4.4160    3.9210   14.5260 C.3   185  PRO185      0.1536
    129  C          3.1620    3.7990   15.3920 C.2   185  PRO185      0.2598
    130  O          2.1920    4.5510   15.1940 O.2   185  PRO185     -0.2715
    131  CB         4.2160    3.2250   13.1670 C.3   185  PRO185      0.0310
    132  CG         4.8790    1.9060   13.3230 C.3   185  PRO185      0.0237
    133  CD         6.0830    2.1890   14.1720 C.3   185  PRO185      0.0939
    134  N          3.1870    2.8450   16.3390 N.am  186  LEU186     -0.1964
    135  CA         2.0730    2.6050   17.2240 C.3   186  LEU186      0.1728
    136  C          2.3280    3.1820   18.6120 C.2   186  LEU186      0.2617
    137  O          1.5720    2.9270   19.5380 O.2   186  LEU186     -0.2715
    138  CB         1.7790    1.0920   17.3080 C.3   186  LEU186      0.0311
    139  CG         1.4600    0.3960   15.9800 C.3   186  LEU186      0.0022
    140  CD1        1.1150   -1.1010   16.2080 C.3   186  LEU186      0.0001
    141  CD2        0.3180    1.1120   15.2280 C.3   186  LEU186      0.0001
    142  N          3.4180    3.9350   18.7500 N.am  187  GLY187     -0.1940
    143  CA         3.7150    4.6220   20.0110 C.3   187  GLY187      0.2014
    144  C          3.7750    3.6490   21.1630 C.2   187  GLY187      0.2639
    145  O          3.2030    3.9080   22.2180 O.2   187  GLY187     -0.2714
    146  N          4.4460    2.5200   20.9330 N.am  188  LYS188     -0.1963
    147  CA         4.5810    1.4060   21.9050 C.3   188  LYS188      0.1728
    148  C          3.2820    0.6020   22.1800 C.2   188  LYS188      0.2616
    149  O          3.2930   -0.3590   22.9660 O.2   188  LYS188     -0.2715
    150  CB         5.2350    1.8760   23.2180 C.3   188  LYS188      0.0311
    151  CG         6.7260    2.1210   23.1260 C.3   188  LYS188      0.0038
    152  CD         7.3210    2.3510   24.5290 C.3   188  LYS188      0.0206
    153  CE         8.7690    1.8400   24.6370 C.3   188  LYS188      0.1093
    154  NZ         9.0620    1.2390   25.9970 N.3   188  LYS188     -0.1314
    155  N          2.1820    0.9810   21.5200 N.am  189  GLY189     -0.1955
    156  CA         0.8860    0.2980   21.6610 C.3   189  GLY189      0.1869
    157  C         -0.0920    1.0720   22.5250 C.2   189  GLY189      0.2309
    158  O         -1.2550    0.6650   22.7240 O.2   189  GLY189     -0.2863
    159  N         -3.2870    2.5760   20.9770 N.3   192  LEU192     -0.1245
    160  CA        -4.2540    1.5560   20.5940 C.3   192  LEU192      0.1561
    161  C         -5.4660    1.4840   21.5140 C.2   192  LEU192      0.2260
    162  O         -6.4940    0.9280   21.1270 O.2   192  LEU192     -0.2867
    163  CB        -3.5760    0.1860   20.4900 C.3   192  LEU192      0.0270
    164  CG        -2.3770    0.1570   19.5200 C.3   192  LEU192      0.0019
    165  CD1       -1.7280   -1.2180   19.4430 C.3   192  LEU192      0.0001
    166  CD2       -2.7690    0.6370   18.1500 C.3   192  LEU192      0.0001
    167  N         -5.1400   -0.4670   15.7530 N.3   209  ALA209     -0.1245
    168  CA        -3.8750   -0.6030   15.0610 C.3   209  ALA209      0.1562
    169  C         -4.0190   -0.2730   13.5600 C.2   209  ALA209      0.2260
    170  O         -3.1590    0.4360   12.9870 O.2   209  ALA209     -0.2867
    171  CB        -3.2780   -2.0160   15.2900 C.3   209  ALA209      0.0290
    172  N          6.8460    0.9960    9.4330 N.3   224  ILE224     -0.1231
    173  CA         7.4210   -0.3220    9.7540 C.3   224  ILE224      0.1678
    174  C          6.9590   -0.7890   11.1340 C.2   224  ILE224      0.2434
    175  O          7.7180   -0.7750   12.1090 O.2   224  ILE224     -0.2733
    176  CB         8.9720   -0.3570    9.6040 C.3   224  ILE224      0.0265
    177  CG1        9.6080    0.8850   10.2160 C.3   224  ILE224      0.0019
    178  CG2        9.3230   -0.5150    8.1050 C.3   224  ILE224      0.0020
    179  CD1       11.1710    0.7630   10.4960 C.3   224  ILE224      0.0001
    180  N          5.7000   -1.2150   11.2190 N.am  225  PRO225     -0.2718
    181  CA         5.2120   -1.7120   12.4890 C.3   225  PRO225      0.1535
    182  C          5.9190   -3.0180   12.8680 C.2   225  PRO225      0.2598
    183  O          6.2100   -3.8530   11.9960 O.2   225  PRO225     -0.2715
    184  CB         3.7370   -1.9560   12.2260 C.3   225  PRO225      0.0310
    185  CG         3.6330   -2.1170   10.7590 C.3   225  PRO225      0.0237
    186  CD         4.6660   -1.2560   10.1630 C.3   225  PRO225      0.0939
    187  N          6.1470   -3.1890   14.1640 N.am  226  LYS226     -0.1964
    188  CA         6.7680   -4.4080   14.6820 C.3   226  LYS226      0.1728
    189  C          5.7500   -5.3440   15.2910 C.2   226  LYS226      0.2617
    190  O          4.9230   -4.9250   16.1130 O.2   226  LYS226     -0.2715
    191  CB         7.7640   -4.0140   15.7640 C.3   226  LYS226      0.0311
    192  CG         8.3740   -5.2000   16.5180 C.3   226  LYS226      0.0038
    193  CD         7.6830   -5.5230   17.8280 C.3   226  LYS226      0.0206
    194  CE         8.3270   -6.7970   18.4230 C.3   226  LYS226      0.1093
    195  NZ         7.5560   -7.3480   19.5740 N.3   226  LYS226     -0.1314
    196  N          5.8170   -6.6200   14.9170 N.am  227  SER227     -0.1936
    197  CA         5.0390   -7.6370   15.6080 C.3   227  SER227      0.2055
    198  C          5.7100   -9.0050   15.5920 C.2   227  SER227      0.2643
    199  O          6.3770   -9.3670   14.6160 O.2   227  SER227     -0.2714
    200  CB         3.6250   -7.7590   15.0340 C.3   227  SER227      0.2130
    201  OG         2.8840   -8.6100   15.8680 O.3   227  SER227     -0.2179
    202  N          5.5210   -9.7330   16.6860 N.am  228  VAL228     -0.1963
    203  CA         5.9950  -11.1090   16.8570 C.3   228  VAL228      0.1727
    204  C          4.8220  -12.0940   16.6850 C.2   228  VAL228      0.2616
    205  O          5.0450  -13.2900   16.4560 O.2   228  VAL228     -0.2715
    206  CB         6.7360  -11.2640   18.2370 C.3   228  VAL228      0.0290
    207  CG1        6.9030  -12.7360   18.6800 C.3   228  VAL228      0.0023
    208  CG2        8.0960  -10.5300   18.1850 C.3   228  VAL228      0.0023
    209  N          3.5930  -11.5610   16.7720 N.am  229  ASN229     -0.1972
    210  CA         2.3180  -12.2900   16.6280 C.3   229  ASN229      0.1688
    211  C          1.8780  -12.4340   15.1600 C.2   229  ASN229      0.2292
    212  O          1.5150  -11.4330   14.5500 O.2   229  ASN229     -0.2864
    213  CB         1.2190  -11.4420   17.2940 C.3   229  ASN229      0.1181
    214  CG         0.7350  -11.9820   18.6110 C.2   229  ASN229      0.2629
    215  OD1        0.1760  -13.0710   18.6790 O.2   229  ASN229     -0.2716
    216  ND2        0.8820  -11.1800   19.6700 N.am  229  ASN229     -0.0877
    217  N         -1.3340  -10.4810   14.6230 N.3   232  ARG232     -0.1245
    218  CA        -1.1290   -9.0270   14.5030 C.3   232  ARG232      0.1563
    219  C         -0.3870   -8.6690   13.2410 C.2   232  ARG232      0.2260
    220  O         -0.6340   -7.6230   12.6940 O.2   232  ARG232     -0.2867
    221  CB        -0.4430   -8.4080   15.7300 C.3   232  ARG232      0.0307
    222  CG        -1.3290   -8.4870   17.0050 C.3   232  ARG232      0.0489
    223  CD        -0.5600   -8.0690   18.2490 C.3   232  ARG232      0.2205
    224  NE        -1.4570   -7.9630   19.3960 N.pl3 232  ARG232     -0.0865
    225  CZ        -1.0950   -7.5720   20.6190 C.cat 232  ARG232      0.5346
    226  NH1        0.1550   -7.2170   20.8840 N.pl3 232  ARG232      0.1354
    227  NH2       -2.0010   -7.5250   21.5880 N.pl3 232  ARG232      0.1354
    228  N         -3.0210   -8.6750   10.6170 N.3   235  GLU235     -0.1231
    229  CA        -3.8640   -7.5070   10.8810 C.3   235  GLU235      0.1699
    230  C         -3.2360   -6.1870   10.4330 C.2   235  GLU235      0.2592
    231  O         -3.9230   -5.3760    9.8210 O.2   235  GLU235     -0.2718
    232  CB        -4.2100   -7.4290   12.3740 C.3   235  GLU235      0.0402
    233  CG        -4.8840   -6.1360   12.8260 C.3   235  GLU235      0.1161
    234  CD        -5.2220   -6.1560   14.3090 C.2   235  GLU235      0.3649
    235  OE1       -5.7230   -7.2110   14.7870 O.co2 235  GLU235     -0.2457
    236  OE2       -5.0050   -5.1190   14.9910 O.co2 235  GLU235     -0.2457
    237  N         -1.9430   -5.9870   10.7090 N.am  236  ASN236     -0.1974
    238  CA        -1.2750   -4.7150   10.4200 C.3   236  ASN236      0.1688
    239  C         -1.1920   -4.4440    8.9260 C.2   236  ASN236      0.2292
    240  O         -1.1050   -3.2810    8.4810 O.2   236  ASN236     -0.2864
    241  CB         0.1310   -4.6790   11.0460 C.3   236  ASN236      0.1181
    242  CG         0.0950   -4.5180   12.5750 C.2   236  ASN236      0.2629
    243  OD1       -0.9530   -4.2530   13.1420 O.2   236  ASN236     -0.2716
    244  ND2        1.2260   -4.7270   13.2310 N.am  236  ASN236     -0.0877
@<TRIPOS>BOND
     1    26    27    1
     2   178   176    1
     3    27    30    1
     4    27    28    1
     5    33    31   ar
     6   240   239    2
     7    30    31    1
     8    93    94    1
     9    46    47    1
    10   239   238    1
    11   101    99   am
    12    31    32   ar
    13    97    94    1
    14    97    98    1
    15    28    29    2
    16    94    95    1
    17    47    48    1
    18    47    50    1
    19   172   173    1
    20   176   173    1
    21   176   177    1
    22    79    80    1
    23   173   174    1
    24   231   230    2
    25    48    49    2
    26    98    99    1
    27    51    50    1
    28    51    52    1
    29   186   185    1
    30   186   180    1
    31    99   100    2
    32   177   179    1
    33   238   237    1
    34   238   241    1
    35   230   237   am
    36   230   229    1
    37   228   229    1
    38    80    83    1
    39    80    81    1
    40   185   184    1
    41    53    52    1
    42    53    54    1
    43     1     2    1
    44    95    96    2
    45   229   232    1
    46   241   242    1
    47    83    84    1
    48   174   180   am
    49   174   175    2
    50    11     9    1
    51   180   181    1
    52    55    56    1
    53     2     3    1
    54    81    82    2
    55    81    85   am
    56   183   182    2
    57     9    10    1
    58     9     6    1
    59   184   181    1
    60     5     3   am
    61     5     6    1
    62    85    86    1
    63   232   233    1
    64   181   182    1
    65   102   103    1
    66    56    59    1
    67    56    57    1
    68     3     4    2
    69   242   243    2
    70   242   244   am
    71   220   219    2
    72   233   234    1
    73   182   187   am
    74   170   169    2
    75     6     7    1
    76   131   132    1
    77   131   128    1
    78   219   218    1
    79   132   133    1
    80    87    86    1
    81    87    88    2
    82    59    60    1
    83    57    58    2
    84    57    65   am
    85   103   106    1
    86   103   104    1
    87    86    89    1
    88   169   168    1
    89    68    67    2
    90   106   107    1
    91   108   107   ar
    92   108   110   ar
    93    65    66    1
    94    67    66    1
    95     8     7    2
    96    60    61   ar
    97    60    62   ar
    98   187   188    1
    99   133   127    1
   100     7    12   am
   101   234   235   ar
   102   234   236   ar
   103   107   109   ar
   104    61    63   ar
   105   218   217    1
   106   218   221    1
   107   128   127    1
   108   128   129    1
   109   212   211    2
   110   199   198    2
   111    66    69    1
   112   188   189    1
   113   188   191    1
   114    62    64   ar
   115    89    90    1
   116   110   111   ar
   117   104   105    2
   118   104   116   am
   119   196   189   am
   120   196   197    1
   121    41    43   ar
   122    41    39   ar
   123   200   197    1
   124   200   201    1
   125   168   171    1
   126   168   167    1
   127   127   118   am
   128    43    44   ar
   129    90    92   am
   130    90    91    2
   131    63    64   ar
   132   211   210    1
   133   130   129    2
   134   141   139    1
   135   189   190    2
   136   129   134   am
   137    12    13    1
   138   116   117    1
   139   198   197    1
   140   198   202   am
   141   221   222    1
   142   191   192    1
   143   109   111   ar
   144   109   112   ar
   145    38    39    1
   146    38    35    1
   147   139   140    1
   148   139   138    1
   149   111   113   ar
   150    39    40   ar
   151    69    70    1
   152    34    35    1
   153   118   117    1
   154   118   119    2
   155    44    45    1
   156    44    42   ar
   157    15    14    2
   158   134   135    1
   159   205   204    2
   160    36    35    1
   161    36    37    2
   162   192   193    1
   163    13    14    1
   164    13    16    1
   165   210   209    1
   166   210   213    1
   167   204   209   am
   168   204   203    1
   169   202   203    1
   170   117   120    1
   171    70    71   ar
   172    70    72   ar
   173   203   206    1
   174    71    73   ar
   175   112   114   ar
   176   222   223    1
   177    40    42   ar
   178   135   138    1
   179   135   136    1
   180   113   115   ar
   181   213   214    1
   182    72    75   ar
   183    72    74   ar
   184    73    74   ar
   185    75    77   ar
   186    16    17    1
   187   120   121    1
   188   193   194    1
   189    74    76   ar
   190   166   164    1
   191   208   206    1
   192   206   207    1
   193   223   224    1
   194   114   115   ar
   195    77    78   ar
   196    18    17   ar
   197    18    20   ar
   198   194   195    1
   199    17    19   ar
   200    76    78   ar
   201   214   215    2
   202   214   216   am
   203   136   142   am
   204   136   137    2
   205   142   143    1
   206   121   122    1
   207    20    21   ar
   208   224   225    2
   209   165   164    1
   210   164   163    1
   211    19    21   ar
   212    19    22   ar
   213    21    23   ar
   214   143   144    1
   215    22    24   ar
   216   122   123    1
   217   163   160    1
   218   123   124    2
   219   160   159    1
   220   160   161    1
   221   225   226    1
   222   225   227    1
   223   146   144   am
   224   146   147    1
   225    23    25   ar
   226   162   161    2
   227   124   126    1
   228   124   125    1
   229   144   145    2
   230    24    25   ar
   231   155   156    1
   232   155   148   am
   233   156   157    1
   234   147   148    1
   235   147   150    1
   236   148   149    2
   237   157   158    2
   238   151   150    1
   239   151   152    1
   240   152   153    1
   241   153   154    1
