@<TRIPOS>MOLECULE
tmp/3wbzE00.pdb
 147 144 0 0 0
SMALL
GASTEIGER

@<TRIPOS>ATOM
      1  N         19.3940   69.2810   42.5260 N.3    29  ASP29      -0.1225
      2  CA        19.4510   67.8320   42.5440 C.3    29  ASP29       0.1805
      3  C         20.6930   67.3900   43.2980 C.2    29  ASP29       0.2598
      4  O         21.7700   67.9290   43.0830 O.2    29  ASP29      -0.2718
      5  CB        19.4680   67.2750   41.1070 C.3    29  ASP29       0.1424
      6  CG        19.4140   65.7610   41.0750 C.2    29  ASP29       0.3668
      7  OD1       20.4350   65.1250   41.3780 O.co2  29  ASP29      -0.2456
      8  OD2       18.3410   65.2000   40.7690 O.co2  29  ASP29      -0.2456
      9  N         20.5510   66.4140   44.1770 N.am   30  GLY30      -0.1942
     10  CA        21.6780   65.9530   44.9870 C.3    30  GLY30       0.2014
     11  C         22.8580   65.4240   44.1910 C.2    30  GLY30       0.2639
     12  O         22.6920   64.6240   43.2680 O.2    30  GLY30      -0.2714
     13  N         24.0570   65.8680   44.5490 N.am   31  LYS31      -0.1963
     14  CA        25.2660   65.3930   43.8840 C.3    31  LYS31       0.1728
     15  C         25.7450   64.0660   44.4790 C.2    31  LYS31       0.2617
     16  O         26.0820   63.9830   45.6670 O.2    31  LYS31      -0.2715
     17  CB        26.3790   66.4500   43.9590 C.3    31  LYS31       0.0311
     18  CG        27.6960   65.9860   43.3350 C.3    31  LYS31       0.0038
     19  CD        28.8590   66.8880   43.7430 C.3    31  LYS31       0.0206
     20  CE        30.2310   66.2610   43.4080 C.3    31  LYS31       0.1093
     21  NZ        30.7230   65.3100   44.4730 N.3    31  LYS31      -0.1314
     22  N         25.7930   63.0350   43.6390 N.am   32  GLY32      -0.1940
     23  CA        26.2130   61.6980   44.0330 C.3    32  GLY32       0.2014
     24  C         25.3430   61.1070   45.1370 C.2    32  GLY32       0.2639
     25  O         25.8630   60.4590   46.0820 O.2    32  GLY32      -0.2714
     26  N         24.0200   61.2780   45.0300 N.am   33  PHE33      -0.1959
     27  CA        23.1600   60.7650   46.1010 C.3    33  PHE33       0.1771
     28  C         22.9510   59.2590   46.0370 C.2    33  PHE33       0.2619
     29  O         22.4270   58.6640   46.9760 O.2    33  PHE33      -0.2715
     30  CB        21.8070   61.4590   46.1320 C.3    33  PHE33       0.0574
     31  CG        21.6810   62.4520   47.2560 C.ar   33  PHE33      -0.0200
     32  CD1       22.5480   63.5390   47.3420 C.ar   33  PHE33      -0.0042
     33  CD2       20.7390   62.2690   48.2560 C.ar   33  PHE33      -0.0042
     34  CE1       22.4480   64.4540   48.3880 C.ar   33  PHE33      -0.0003
     35  CE2       20.6310   63.1820   49.3110 C.ar   33  PHE33      -0.0003
     36  CZ        21.4850   64.2710   49.3740 C.ar   33  PHE33      -0.0000
     37  N         23.3740   58.6440   44.9450 N.am   34  HIS34      -0.1973
     38  CA        23.4260   57.1920   44.8880 C.3    34  HIS34       0.1656
     39  C         24.4520   56.6940   45.9290 C.2    34  HIS34       0.2291
     40  O         24.1580   55.8350   46.7350 O.2    34  HIS34      -0.2864
     41  CB        23.7940   56.7480   43.4780 C.3    34  HIS34       0.0771
     42  CG        23.8630   55.2730   43.3040 C.ar   34  HIS34       0.0820
     43  ND1       22.7380   54.4970   43.1230 N.ar   34  HIS34      -0.2267
     44  CD2       24.9170   54.4210   43.3090 C.ar   34  HIS34       0.1154
     45  CE1       23.0960   53.2300   42.9950 C.ar   34  HIS34       0.1986
     46  NE2       24.4110   53.1550   43.1090 N.ar   34  HIS34      -0.2212
     47  N         23.3780   57.7220   49.5230 N.3    37  SER37      -0.1217
     48  CA        22.3480   56.8850   50.1070 C.3    37  SER37       0.1889
     49  C         22.9200   55.5250   50.5190 C.2    37  SER37       0.2288
     50  O         22.3920   54.8820   51.4280 O.2    37  SER37      -0.2866
     51  CB        21.1750   56.6860   49.1540 C.3    37  SER37       0.2089
     52  OG        21.5460   55.9040   48.0460 O.3    37  SER37      -0.2183
     53  N         20.5260   54.3030   53.4630 N.3    42  PHE42      -0.1227
     54  CA        19.1140   54.6140   53.2570 C.3    42  PHE42       0.1736
     55  C         18.3870   53.3050   53.0800 C.2    42  PHE42       0.2595
     56  O         18.9370   52.3790   52.4820 O.2    42  PHE42      -0.2718
     57  CB        18.8700   55.4620   51.9850 C.3    42  PHE42       0.0547
     58  CG        19.2780   56.9070   52.0910 C.ar   42  PHE42      -0.0202
     59  CD1       20.1750   57.3370   53.0590 C.ar   42  PHE42      -0.0042
     60  CD2       18.7620   57.8350   51.1970 C.ar   42  PHE42      -0.0042
     61  CE1       20.5490   58.6510   53.1170 C.ar   42  PHE42      -0.0003
     62  CE2       19.1290   59.1420   51.2540 C.ar   42  PHE42      -0.0003
     63  CZ        20.0200   59.5570   52.2110 C.ar   42  PHE42      -0.0000
     64  N         17.1530   53.2250   53.5650 N.am   43  GLU43      -0.1965
     65  CA        16.2770   52.1170   53.1960 C.3    43  GLU43       0.1733
     66  C         15.9540   52.1110   51.6890 C.2    43  GLU43       0.2616
     67  O         15.9360   53.1570   51.0400 O.2    43  GLU43      -0.2715
     68  CB        14.9890   52.1750   54.0030 C.3    43  GLU43       0.0429
     69  CG        15.2050   52.0070   55.4950 C.3    43  GLU43       0.1163
     70  CD        13.9020   51.7810   56.2530 C.2    43  GLU43       0.3649
     71  OE1       13.9080   51.8820   57.5010 O.co2  43  GLU43      -0.2457
     72  OE2       12.8660   51.5090   55.5980 O.co2  43  GLU43      -0.2457
     73  N         15.7220   50.9280   51.1330 N.am   44  LYS44      -0.1964
     74  CA        15.3850   50.7840   49.7210 C.3    44  LYS44       0.1713
     75  C         14.0370   50.0810   49.5660 C.2    44  LYS44       0.2458
     76  O         13.7090   49.2090   50.3550 O.2    44  LYS44      -0.2730
     77  CB        16.4890   50.0240   48.9930 C.3    44  LYS44       0.0311
     78  CG        17.8120   50.7830   48.9810 C.3    44  LYS44       0.0038
     79  CD        17.7320   52.0670   48.1600 C.3    44  LYS44       0.0206
     80  CE        19.0710   52.8140   48.1350 C.3    44  LYS44       0.1093
     81  NZ        19.1040   53.8140   47.0240 N.3    44  LYS44      -0.1314
     82  N         13.2450   50.4740   48.5540 N.am   45  PRO45      -0.2716
     83  CA        13.5870   51.5090   47.5640 C.3    45  PRO45       0.1536
     84  C         13.5620   52.9520   48.0780 C.2    45  PRO45       0.2599
     85  O         14.3780   53.7590   47.6240 O.2    45  PRO45      -0.2715
     86  CB        12.5160   51.3260   46.4830 C.3    45  PRO45       0.0310
     87  CG        11.3320   50.7730   47.2280 C.3    45  PRO45       0.0237
     88  CD        11.9140   49.8870   48.3110 C.3    45  PRO45       0.0939
     89  N         12.6750   53.2680   49.0100 N.am   46  ASN46      -0.1959
     90  CA        12.5550   54.6370   49.5060 C.3    46  ASN46       0.1819
     91  C         12.7990   54.7840   50.9880 C.2    46  ASN46       0.2621
     92  O         12.1980   54.0870   51.7970 O.2    46  ASN46      -0.2715
     93  CB        11.1680   55.1870   49.2050 C.3    46  ASN46       0.1195
     94  CG        10.8590   55.1840   47.7480 C.2    46  ASN46       0.2630
     95  OD1       11.4280   55.9750   46.9690 O.2    46  ASN46      -0.2716
     96  ND2        9.9790   54.2690   47.3430 N.am   46  ASN46      -0.0877
     97  N         13.6390   55.7390   51.3410 N.am   47  ASP47      -0.1971
     98  CA        13.8700   56.0530   52.7370 C.3    47  ASP47       0.1709
     99  C         12.9770   57.2100   53.1390 C.2    47  ASP47       0.2293
    100  O         13.1370   58.3270   52.6400 O.2    47  ASP47      -0.2864
    101  CB        15.3400   56.3930   52.9840 C.3    47  ASP47       0.1436
    102  CG        15.6780   56.4530   54.4720 C.2    47  ASP47       0.3671
    103  OD1       15.2160   57.3990   55.1320 O.co2  47  ASP47      -0.2456
    104  OD2       16.3760   55.5440   54.9890 O.co2  47  ASP47      -0.2456
    105  N         14.7110   60.2680   54.9590 N.3    50  ALA50      -0.1231
    106  CA        15.5420   61.0210   54.0230 C.3    50  ALA50       0.1694
    107  C         14.6520   61.9160   53.1730 C.2    50  ALA50       0.2591
    108  O         14.9780   63.0640   52.9210 O.2    50  ALA50      -0.2718
    109  CB        16.3590   60.0890   53.1630 C.3    50  ALA50       0.0304
    110  N         13.5030   61.4030   52.7550 N.am   51  LEU51      -0.1980
    111  CA        12.5500   62.2210   52.0090 C.3    51  LEU51       0.1596
    112  C         11.9490   63.3240   52.8930 C.2    51  LEU51       0.2287
    113  O         11.6610   64.4170   52.4090 O.2    51  LEU51      -0.2864
    114  CB        11.4380   61.3450   51.4070 C.3    51  LEU51       0.0297
    115  CG        11.9020   60.4740   50.2490 C.3    51  LEU51       0.0022
    116  CD1       10.8100   59.5040   49.7970 C.3    51  LEU51       0.0001
    117  CD2       12.3720   61.3520   49.1090 C.3    51  LEU51       0.0001
    118  N         14.4350   66.0830   53.0110 N.3    54  MET54      -0.1245
    119  CA        14.3150   66.8780   51.7840 C.3    54  MET54       0.1570
    120  C         13.0980   67.8050   51.8320 C.2    54  MET54       0.2261
    121  O         13.1830   68.9890   51.4710 O.2    54  MET54      -0.2867
    122  CB        14.2450   65.9590   50.5540 C.3    54  MET54       0.0387
    123  CG        14.6250   66.6390   49.2730 C.3    54  MET54       0.0595
    124  SD        16.4030   66.8840   49.0890 S.3    54  MET54      -0.1393
    125  CE        16.9250   65.2110   48.9300 C.3    54  MET54       0.0692
    126  N         12.6710   61.8090   45.1930 N.3    75  SER75      -0.1202
    127  CA        14.0470   61.3560   45.1800 C.3    75  SER75       0.2020
    128  C         14.9770   62.4390   45.7610 C.2    75  SER75       0.2618
    129  O         14.7350   62.9730   46.8460 O.2    75  SER75      -0.2717
    130  CB        14.4310   60.9690   43.7400 C.3    75  SER75       0.2103
    131  OG        15.7380   60.4230   43.6540 O.3    75  SER75      -0.2182
    132  N         16.0440   62.7650   45.0490 N.am   76  ASP76      -0.1973
    133  CA        16.9660   63.7690   45.5520 C.3    76  ASP76       0.1709
    134  C         16.8150   65.1140   44.8570 C.2    76  ASP76       0.2293
    135  O         17.7450   65.9150   44.8590 O.2    76  ASP76      -0.2864
    136  CB        18.4060   63.2710   45.4040 C.3    76  ASP76       0.1436
    137  CG        18.8310   63.1490   43.9580 C.2    76  ASP76       0.3671
    138  OD1       17.9450   62.9740   43.1070 O.co2  76  ASP76      -0.2456
    139  OD2       20.0350   63.2120   43.6710 O.co2  76  ASP76      -0.2456
    140  N         12.1850   51.1960   40.5970 N.3   160  ASN160     -0.1240
    141  CA        13.0180   50.9780   41.7690 C.3   160  ASN160      0.1653
    142  C         12.3470   50.0730   42.7960 C.2   160  ASN160      0.2266
    143  O         13.0190   49.2870   43.4620 O.2   160  ASN160     -0.2867
    144  CB        13.4160   52.3160   42.4110 C.3   160  ASN160      0.1155
    145  CG        14.3940   53.1030   41.5450 C.2   160  ASN160      0.2627
    146  OD1       15.1970   52.5270   40.8130 O.2   160  ASN160     -0.2716
    147  ND2       14.3540   54.4070   41.6490 N.am  160  ASN160     -0.0877
@<TRIPOS>BOND
     1   140   141    1
     2     8     6   ar
     3   146   145    2
     4     6     5    1
     5     6     7   ar
     6     5     2    1
     7   145   147   am
     8   145   144    1
     9   141   144    1
    10   141   142    1
    11     1     2    1
    12     2     3    1
    13   142   143    2
    14    45    46   ar
    15    45    43   ar
    16     4     3    2
    17   138   137   ar
    18    46    44   ar
    19    43    42   ar
    20    12    11    2
    21     3     9   am
    22    42    44   ar
    23    42    41    1
    24    18    19    1
    25    18    17    1
    26    20    19    1
    27    20    21    1
    28    41    38    1
    29    22    23    1
    30    22    15   am
    31   131   130    1
    32   139   137   ar
    33   130   127    1
    34    14    17    1
    35    14    15    1
    36    14    13    1
    37   137   136    1
    38    23    24    1
    39     9    10    1
    40    11    13   am
    41    11    10    1
    42    15    16    2
    43   134   135    2
    44   134   133    1
    45    38    37    1
    46    38    39    1
    47    37    28   am
    48    26    24   am
    49    26    27    1
    50   132   133    1
    51   132   128   am
    52    24    25    2
    53   127   126    1
    54   127   128    1
    55   136   133    1
    56   128   129    2
    57    39    40    2
    58    28    27    1
    59    28    29    2
    60    27    30    1
    61    30    31    1
    62    86    87    1
    63    86    83    1
    64    95    94    2
    65    81    80    1
    66    87    88    1
    67    31    32   ar
    68    31    33   ar
    69    32    34   ar
    70    96    94   am
    71    83    84    1
    72    83    82    1
    73    85    84    2
    74    94    93    1
    75    52    51    1
    76    84    89   am
    77    80    79    1
    78    79    78    1
    79    33    35   ar
    80    88    82    1
    81    34    36   ar
    82    82    75   am
    83   125   124    1
    84    78    77    1
    85    77    74    1
    86    89    90    1
    87   124   123    1
    88   117   115    1
    89    51    48    1
    90    93    90    1
    91   123   122    1
    92    35    36   ar
    93    90    91    1
    94    47    48    1
    95    75    74    1
    96    75    76    2
    97    74    73    1
    98   116   115    1
    99    48    49    1
   100   115   114    1
   101    49    50    2
   102   122   119    1
   103    91    97   am
   104    91    92    2
   105    67    66    2
   106    73    66   am
   107    60    62   ar
   108    60    58   ar
   109    62    63   ar
   110    97    98    1
   111   114   111    1
   112   121   120    2
   113    66    65    1
   114   119   120    1
   115   119   118    1
   116    57    58    1
   117    57    54    1
   118   111   110    1
   119   111   112    1
   120    58    59   ar
   121    63    61   ar
   122   113   112    2
   123    56    55    2
   124   100    99    2
   125    98   101    1
   126    98    99    1
   127   110   107   am
   128   108   107    2
   129   101   102    1
   130    59    61   ar
   131    55    54    1
   132    55    64   am
   133   109   106    1
   134   107   106    1
   135    65    64    1
   136    65    68    1
   137    54    53    1
   138    68    69    1
   139   106   105    1
   140   102   104   ar
   141   102   103   ar
   142    69    70    1
   143    72    70   ar
   144    70    71   ar
