@<TRIPOS>MOLECULE
tmp/3wc3A00.pdb
 116 115 0 0 0
SMALL
GASTEIGER

@<TRIPOS>ATOM
      1  N          8.2730   42.6960    0.6860 N.3    54  ASP54      -0.1225
      2  CA         9.2070   43.6860    0.1720 C.3    54  ASP54       0.1805
      3  C          9.4250   43.6570   -1.3410 C.2    54  ASP54       0.2597
      4  O          9.4970   44.7100   -1.9840 O.2    54  ASP54      -0.2718
      5  CB        10.5620   43.5810    0.8800 C.3    54  ASP54       0.1424
      6  CG        11.5770   44.5360    0.2990 C.2    54  ASP54       0.3668
      7  OD1       11.4240   45.7580    0.5170 O.co2  54  ASP54      -0.2456
      8  OD2       12.5130   44.0630   -0.3960 O.co2  54  ASP54      -0.2456
      9  N          9.5900   42.4610   -1.9020 N.am   55  ALA55      -0.1979
     10  CA        10.1270   42.3440   -3.2610 C.3    55  ALA55       0.1597
     11  C          9.4350   41.1640   -3.9360 C.2    55  ALA55       0.2287
     12  O          8.2150   41.1630   -4.0380 O.2    55  ALA55      -0.2864
     13  CB        11.6590   42.2090   -3.2370 C.3    55  ALA55       0.0319
     14  N          9.9390   38.2470   -2.5780 N.3    57  ASP57      -0.1239
     15  CA        10.0100   37.3980   -1.3740 C.3    57  ASP57       0.1674
     16  C          8.8120   37.6950   -0.4470 C.2    57  ASP57       0.2266
     17  O          7.8650   38.4110   -0.8360 O.2    57  ASP57      -0.2867
     18  CB        11.3440   37.6530   -0.6440 C.3    57  ASP57       0.1410
     19  CG        11.5200   39.1130   -0.1900 C.2    57  ASP57       0.3668
     20  OD1       10.7560   40.0050   -0.6290 O.co2  57  ASP57      -0.2456
     21  OD2       12.4260   39.3670    0.6260 O.co2  57  ASP57      -0.2456
     22  N         10.1360   43.8990    5.4370 N.3    61  PHE61      -0.1241
     23  CA        11.3350   44.6580    5.7880 C.3    61  PHE61       0.1605
     24  C         10.8660   46.0860    6.0620 C.2    61  PHE61       0.2264
     25  O         10.5460   46.8540    5.1270 O.2    61  PHE61      -0.2867
     26  CB        12.3600   44.6710    4.6280 C.3    61  PHE61       0.0534
     27  CG        13.2550   43.4510    4.5370 C.ar   61  PHE61      -0.0203
     28  CD1       14.1780   43.1610    5.5430 C.ar   61  PHE61      -0.0042
     29  CD2       13.2260   42.6450    3.3910 C.ar   61  PHE61      -0.0042
     30  CE1       15.0430   42.0510    5.4330 C.ar   61  PHE61      -0.0003
     31  CE2       14.0760   41.5440    3.2660 C.ar   61  PHE61      -0.0003
     32  CZ        14.9890   41.2480    4.2800 C.ar   61  PHE61      -0.0000
     33  N         13.8260   33.1880    1.8990 N.3   124  HIS124     -0.1241
     34  CA        14.3430   33.1140    0.5340 C.3   124  HIS124      0.1621
     35  C         14.6340   31.6960    0.0780 C.2   124  HIS124      0.2264
     36  O         14.7610   31.4480   -1.1280 O.2   124  HIS124     -0.2867
     37  CB        15.5590   34.0210    0.3760 C.3   124  HIS124      0.0745
     38  CG        15.2230   35.4790    0.4980 C.ar  124  HIS124      0.0817
     39  ND1       16.1660   36.4730    0.3450 N.ar  124  HIS124     -0.2268
     40  CD2       14.0500   36.1050    0.7650 C.ar  124  HIS124      0.1154
     41  CE1       15.5840   37.6560    0.4960 C.ar  124  HIS124      0.1986
     42  NE2       14.3010   37.4600    0.7550 N.ar  124  HIS124     -0.2212
     43  N         22.1080   41.7450    5.8350 N.3   204  GLY204     -0.1210
     44  CA        22.5060   41.2210    4.5210 C.3   204  GLY204      0.1956
     45  C         21.5960   41.7040    3.3890 C.2   204  GLY204      0.2612
     46  O         21.7850   41.3020    2.2430 O.2   204  GLY204     -0.2717
     47  N         20.6180   42.5640    3.7030 N.am  205  PHE205     -0.1962
     48  CA        19.4960   42.8610    2.7930 C.3   205  PHE205      0.1771
     49  C         19.1720   44.3350    2.6820 C.2   205  PHE205      0.2619
     50  O         19.1530   44.8840    1.5720 O.2   205  PHE205     -0.2715
     51  CB        18.2650   42.0150    3.1850 C.3   205  PHE205      0.0574
     52  CG        18.5640   40.5460    3.1450 C.ar  205  PHE205     -0.0200
     53  CD1       18.4260   39.8310    1.9460 C.ar  205  PHE205     -0.0042
     54  CD2       19.0980   39.9100    4.2640 C.ar  205  PHE205     -0.0042
     55  CE1       18.7700   38.4810    1.8810 C.ar  205  PHE205     -0.0003
     56  CE2       19.4540   38.5600    4.2080 C.ar  205  PHE205     -0.0003
     57  CZ        19.3040   37.8480    3.0060 C.ar  205  PHE205     -0.0000
     58  N         18.9200   44.9660    3.8320 N.am  206  TYR206     -0.1974
     59  CA        18.6540   46.4100    3.8800 C.3   206  TYR206      0.1639
     60  C         19.4970   47.0740    4.9560 C.2   206  TYR206      0.2290
     61  O         18.9820   47.6570    5.9020 O.2   206  TYR206     -0.2864
     62  CB        17.1500   46.6850    4.0900 C.3   206  TYR206      0.0560
     63  CG        16.3840   46.4270    2.8140 C.ar  206  TYR206     -0.0198
     64  CD1       16.3920   47.3670    1.7830 C.ar  206  TYR206     -0.0009
     65  CD2       15.7060   45.2260    2.6140 C.ar  206  TYR206     -0.0009
     66  CE1       15.7270   47.1280    0.5880 C.ar  206  TYR206      0.0417
     67  CE2       15.0240   44.9740    1.4160 C.ar  206  TYR206      0.0417
     68  CZ        15.0480   45.9410    0.4130 C.ar  206  TYR206      0.1957
     69  OH        14.4150   45.7000   -0.7760 O.3   206  TYR206     -0.2866
     70  N         16.0850   54.3070   -0.4190 N.3   250  TRP250     -0.1241
     71  CA        15.6300   53.8650    0.9060 C.3   250  TRP250      0.1605
     72  C         16.6910   54.0630    1.9920 C.2   250  TRP250      0.2264
     73  O         16.3480   54.0500    3.1580 O.2   250  TRP250     -0.2867
     74  CB        15.1560   52.3980    0.8810 C.3   250  TRP250      0.0550
     75  CG        16.2400   51.4470    0.4500 C.ar  250  TRP250      0.0003
     76  CD1       16.4330   50.9490   -0.8190 C.ar  250  TRP250      0.0946
     77  CD2       17.2940   50.8930    1.2660 C.ar  250  TRP250      0.0152
     78  NE1       17.5480   50.1270   -0.8380 N.ar  250  TRP250     -0.2442
     79  CE2       18.0940   50.0820    0.4210 C.ar  250  TRP250      0.0810
     80  CE3       17.6460   51.0130    2.6300 C.ar  250  TRP250      0.0012
     81  CZ2       19.2280   49.3810    0.8960 C.ar  250  TRP250      0.0191
     82  CZ3       18.7780   50.3360    3.0970 C.ar  250  TRP250      0.0001
     83  CH2       19.5590   49.5370    2.2250 C.ar  250  TRP250      0.0015
     84  N         18.4210   37.7490  -11.1180 N.3   407  TYR407     -0.1241
     85  CA        17.7750   38.3870   -9.9750 C.3   407  TYR407      0.1605
     86  C         18.1410   39.8430   -9.7810 C.2   407  TYR407      0.2264
     87  O         17.5190   40.5180   -8.9500 O.2   407  TYR407     -0.2867
     88  CB        18.0590   37.6020   -8.6910 C.3   407  TYR407      0.0534
     89  CG        19.4950   37.6860   -8.2290 C.ar  407  TYR407     -0.0201
     90  CD1       19.9260   38.7180   -7.3770 C.ar  407  TYR407     -0.0009
     91  CD2       20.4240   36.7370   -8.6450 C.ar  407  TYR407     -0.0009
     92  CE1       21.2640   38.7950   -6.9500 C.ar  407  TYR407      0.0417
     93  CE2       21.7670   36.8020   -8.2330 C.ar  407  TYR407      0.0417
     94  CZ        22.1720   37.8280   -7.3890 C.ar  407  TYR407      0.1957
     95  OH        23.4860   37.8620   -6.9850 O.3   407  TYR407     -0.2866
     96  N         14.6490   41.8250  -10.8340 N.3   411  GLU411     -0.1245
     97  CA        14.1120   42.1360   -9.5040 C.3   411  GLU411      0.1567
     98  C         12.9460   43.1100   -9.5860 C.2   411  GLU411      0.2260
     99  O         12.9030   43.9810  -10.4590 O.2   411  GLU411     -0.2867
    100  CB        15.2160   42.7580   -8.6380 C.3   411  GLU411      0.0388
    101  CG        14.8600   42.8990   -7.1290 C.3   411  GLU411      0.1160
    102  CD        14.7240   41.5500   -6.4210 C.2   411  GLU411      0.3649
    103  OE1       13.7630   40.8020   -6.7170 O.co2 411  GLU411     -0.2457
    104  OE2       15.6030   41.2350   -5.5710 O.co2 411  GLU411     -0.2457
    105  N         11.2600   50.1090   -5.6420 N.3   416  TYR416     -0.1241
    106  CA        11.4420   50.3700   -7.0820 C.3   416  TYR416      0.1605
    107  C         10.3110   51.2090   -7.6530 C.2   416  TYR416      0.2264
    108  O         10.5420   52.0440   -8.5130 O.2   416  TYR416     -0.2867
    109  CB        11.5110   49.0710   -7.8980 C.3   416  TYR416      0.0534
    110  CG        12.7850   48.2810   -7.7620 C.ar  416  TYR416     -0.0201
    111  CD1       13.7100   48.5270   -6.7290 C.ar  416  TYR416     -0.0009
    112  CD2       13.0530   47.2370   -8.6550 C.ar  416  TYR416     -0.0009
    113  CE1       14.8750   47.7670   -6.6330 C.ar  416  TYR416      0.0417
    114  CE2       14.2160   46.4760   -8.5500 C.ar  416  TYR416      0.0417
    115  CZ        15.1210   46.7600   -7.5480 C.ar  416  TYR416      0.1957
    116  OH        16.2710   45.9960   -7.4310 O.3   416  TYR416     -0.2866
@<TRIPOS>BOND
     1    84    85    1
     2    96    97    1
     3    99    98    2
     4    85    86    1
     5    85    88    1
     6    86    87    2
     7    98    97    1
     8    97   100    1
     9    88    89    1
    10   112   114   ar
    11   112   110   ar
    12    91    93   ar
    13    91    89   ar
    14   100   101    1
    15   114   115   ar
    16   108   107    2
    17    93    94   ar
    18    89    90   ar
    19   109   110    1
    20   109   106    1
    21   110   111   ar
    22   107   106    1
    23   115   116    1
    24   115   113   ar
    25    94    95    1
    26    94    92   ar
    27    90    92   ar
    28   101   102    1
    29   106   105    1
    30   111   113   ar
    31   103   102   ar
    32   102   104   ar
    33    12    11    2
    34    11    10    1
    35    10    13    1
    36    10     9    1
    37    14    15    1
    38     4     3    2
    39     9     3   am
    40    15    18    1
    41    15    16    1
    42     3     2    1
    43    36    35    2
    44    78    76   ar
    45    78    79   ar
    46    17    16    2
    47    76    75   ar
    48    69    68    1
    49    18    19    1
    50    20    19   ar
    51    70    71    1
    52     8     6   ar
    53    19    21   ar
    54    35    34    1
    55     2     1    1
    56     2     5    1
    57     6     7   ar
    58     6     5    1
    59    39    41   ar
    60    39    38   ar
    61    37    38    1
    62    37    34    1
    63    68    66   ar
    64    68    67   ar
    65    79    81   ar
    66    79    77   ar
    67    75    74    1
    68    75    77   ar
    69    41    42   ar
    70    38    40   ar
    71    34    33    1
    72    66    64   ar
    73    42    40   ar
    74    74    71    1
    75    81    83   ar
    76    71    72    1
    77    77    80   ar
    78    67    65   ar
    79    50    49    2
    80    64    63   ar
    81    55    53   ar
    82    55    57   ar
    83    53    52   ar
    84    72    73    2
    85    83    82   ar
    86    46    45    2
    87    65    63   ar
    88    80    82   ar
    89    49    48    1
    90    49    58   am
    91    48    51    1
    92    48    47    1
    93    63    62    1
    94    57    56   ar
    95    52    51    1
    96    52    54   ar
    97    31    29   ar
    98    31    32   ar
    99    45    47   am
   100    45    44    1
   101    29    27   ar
   102    58    59    1
   103    59    62    1
   104    59    60    1
   105    56    54   ar
   106    32    30   ar
   107    44    43    1
   108    27    26    1
   109    27    28   ar
   110    26    23    1
   111    60    61    2
   112    25    24    2
   113    30    28   ar
   114    22    23    1
   115    23    24    1
