@<TRIPOS>MOLECULE
tmp/3wc7A00.pdb
 192 181 0 0 0
SMALL
GASTEIGER

@<TRIPOS>ATOM
      1  N         10.9710  -20.4110    8.0450 N.3    64  HIS64      -0.1241
      2  CA         9.9390  -21.0110    8.8750 C.3    64  HIS64       0.1621
      3  C         10.4870  -22.2700    9.4730 C.2    64  HIS64       0.2264
      4  O         10.9850  -23.1460    8.7710 O.2    64  HIS64      -0.2867
      5  CB         8.6710  -21.2760    8.0610 C.3    64  HIS64       0.0745
      6  CG         7.8940  -20.0390    7.7170 C.ar   64  HIS64       0.0817
      7  ND1        7.3060  -19.8480    6.4800 N.ar   64  HIS64      -0.2268
      8  CD2        7.5340  -18.9670    8.4660 C.ar   64  HIS64       0.1154
      9  CE1        6.6900  -18.6860    6.4480 C.ar   64  HIS64       0.1986
     10  NE2        6.7900  -18.1350    7.6520 N.ar   64  HIS64      -0.2212
     11  N          9.6900  -25.0720   10.9840 N.3    66  ARG66      -0.1231
     12  CA         9.3090  -26.4830   10.7830 C.3    66  ARG66       0.1694
     13  C          9.6120  -27.0000    9.3600 C.2    66  ARG66       0.2591
     14  O          9.4880  -28.2250    9.0920 O.2    66  ARG66      -0.2718
     15  CB         7.8140  -26.6430   11.0890 C.3    66  ARG66       0.0321
     16  CG         6.9320  -25.7450   10.2330 C.3    66  ARG66       0.0489
     17  CD         5.5440  -25.7490   10.7740 C.3    66  ARG66       0.2205
     18  NE         4.5820  -24.9440   10.0070 N.pl3  66  ARG66      -0.0865
     19  CZ         3.3540  -24.6650   10.4400 C.cat  66  ARG66       0.5346
     20  NH1        2.9200  -25.0780   11.6240 N.pl3  66  ARG66       0.1354
     21  NH2        2.5400  -23.9300    9.6930 N.pl3  66  ARG66       0.1354
     22  N          9.9980  -26.1120    8.4590 N.am   67  GLU67      -0.1979
     23  CA        10.2020  -26.4730    7.0540 C.3    67  GLU67       0.1602
     24  C         11.5960  -27.0310    6.7830 C.2    67  GLU67       0.2287
     25  O         12.3220  -26.4490    6.0150 O.2    67  GLU67      -0.2864
     26  CB         9.8900  -25.2690    6.1390 C.3    67  GLU67       0.0415
     27  CG         8.3890  -24.8670    6.2090 C.3    67  GLU67       0.1163
     28  CD         8.0440  -23.5360    5.5730 C.2    67  GLU67       0.3649
     29  OE1        8.8700  -23.0590    4.7820 O.co2  67  GLU67      -0.2457
     30  OE2        6.9440  -22.9380    5.7990 O.co2  67  GLU67      -0.2457
     31  N          6.5740  -22.5170   13.6910 N.3   122  ARG122     -0.1245
     32  CA         6.7500  -21.8410   12.3890 C.3   122  ARG122      0.1563
     33  C          7.4330  -20.4770   12.5760 C.2   122  ARG122      0.2260
     34  O          8.3170  -20.1320   11.8080 O.2   122  ARG122     -0.2867
     35  CB         5.3350  -21.5590   11.7930 C.3   122  ARG122      0.0307
     36  CG         5.2640  -20.5490   10.6540 C.3   122  ARG122      0.0489
     37  CD         3.7850  -20.3460   10.2330 C.3   122  ARG122      0.2205
     38  NE         3.5990  -19.2780    9.2530 N.pl3 122  ARG122     -0.0865
     39  CZ         3.7380  -19.4060    7.9310 C.cat 122  ARG122      0.5346
     40  NH1        4.1310  -20.5680    7.3840 N.pl3 122  ARG122      0.1354
     41  NH2        3.5140  -18.3670    7.1470 N.pl3 122  ARG122      0.1354
     42  N          7.6490  -14.1100    7.4400 N.3   139  ASN139     -0.1225
     43  CA         7.2320  -13.8720    6.0540 C.3   139  ASN139      0.1785
     44  C          5.9380  -13.1070    6.0210 C.2   139  ASN139      0.2597
     45  O          5.2880  -13.0640    4.9650 O.2   139  ASN139     -0.2718
     46  CB         7.1570  -15.1750    5.2460 C.3   139  ASN139      0.1169
     47  CG         7.4600  -14.9540    3.7700 C.2   139  ASN139      0.2627
     48  OD1        8.2470  -14.0530    3.4200 O.2   139  ASN139     -0.2716
     49  ND2        6.8370  -15.7780    2.8870 N.am  139  ASN139     -0.0877
     50  N          5.5290  -12.5360    7.1670 N.am  140  ARG140     -0.1979
     51  CA         4.5670  -11.4700    7.1840 C.3   140  ARG140      0.1597
     52  C          5.2020  -10.1770    7.7370 C.2   140  ARG140      0.2287
     53  O          4.5000   -9.1870    7.9650 O.2   140  ARG140     -0.2864
     54  CB         3.3360  -11.8640    8.0200 C.3   140  ARG140      0.0334
     55  CG         2.6600  -13.1280    7.5360 C.3   140  ARG140      0.0492
     56  CD         2.0280  -13.0080    6.0740 C.3   140  ARG140      0.2205
     57  NE         1.3300  -14.2930    5.8120 N.pl3 140  ARG140     -0.0865
     58  CZ         1.9620  -15.4020    5.3660 C.cat 140  ARG140      0.5346
     59  NH1        3.2750  -15.3470    5.0780 N.pl3 140  ARG140      0.1354
     60  NH2        1.2820  -16.5530    5.2060 N.pl3 140  ARG140      0.1354
     61  N         -0.4790  -17.8910   13.8260 N.3   158  GLU158     -0.1231
     62  CA         0.6760  -18.3740   13.1030 C.3   158  GLU158      0.1699
     63  C          1.1460  -17.4310   11.9730 C.2   158  GLU158      0.2592
     64  O          2.2680  -17.5450   11.5130 O.2   158  GLU158     -0.2718
     65  CB         0.3960  -19.7790   12.5550 C.3   158  GLU158      0.0402
     66  CG         0.1630  -20.8370   13.6320 C.3   158  GLU158      0.1161
     67  CD         1.4500  -21.0760   14.4920 C.2   158  GLU158      0.3649
     68  OE1        2.5200  -20.5580   14.2500 O.co2 158  GLU158     -0.2457
     69  OE2        1.4190  -21.7160   15.5190 O.co2 158  GLU158     -0.2457
     70  N          0.3120  -16.4880   11.5400 N.am  159  THR159     -0.1953
     71  CA         0.7260  -15.5440   10.4820 C.3   159  THR159      0.1897
     72  C          0.8100  -14.0970   11.0640 C.2   159  THR159      0.2313
     73  O          0.5790  -13.0920   10.3610 O.2   159  THR159     -0.2863
     74  CB        -0.2770  -15.5510    9.2680 C.3   159  THR159      0.1794
     75  OG1       -1.6000  -15.2890    9.7430 O.3   159  THR159     -0.2208
     76  CG2       -0.2100  -16.8900    8.5320 C.3   159  THR159      0.0378
     77  N         11.0370  -22.3750    0.8280 N.3   192  HIS192     -0.1226
     78  CA        10.0450  -22.8250    1.7990 C.3   192  HIS192      0.1752
     79  C          9.5820  -24.2330    1.4450 C.2   192  HIS192      0.2597
     80  O         10.0280  -24.7770    0.4510 O.2   192  HIS192     -0.2718
     81  CB         8.7990  -21.9370    1.7930 C.3   192  HIS192      0.0759
     82  CG         9.0120  -20.5690    2.3480 C.ar  192  HIS192      0.0818
     83  ND1        8.4310  -20.1220    3.5260 N.ar  192  HIS192     -0.2268
     84  CD2        9.7370  -19.5350    1.8670 C.ar  192  HIS192      0.1154
     85  CE1        8.7580  -18.8390    3.7030 C.ar  192  HIS192      0.1986
     86  NE2        9.5750  -18.4780    2.7320 N.ar  192  HIS192     -0.2212
     87  N          8.7520  -24.8370    2.3210 N.am  193  SER193     -0.1938
     88  CA         7.9870  -26.0470    1.9860 C.3   193  SER193      0.2055
     89  C          6.6920  -25.9790    2.7730 C.2   193  SER193      0.2643
     90  O          6.5790  -25.1280    3.6350 O.2   193  SER193     -0.2714
     91  CB         8.7840  -27.3290    2.3910 C.3   193  SER193      0.2130
     92  OG         8.7610  -27.5770    3.8230 O.3   193  SER193     -0.2179
     93  N          5.6900  -26.8220    2.4990 N.am  194  TYR194     -0.1959
     94  CA         5.6450  -27.6970    1.2990 C.3   194  TYR194      0.1771
     95  C          4.5580  -27.1570    0.3090 C.2   194  TYR194      0.2620
     96  O          3.9650  -26.1210    0.5660 O.2   194  TYR194     -0.2715
     97  CB         5.2870  -29.1390    1.7360 C.3   194  TYR194      0.0574
     98  CG         3.9520  -29.2050    2.5130 C.ar  194  TYR194     -0.0198
     99  CD1        3.8880  -28.9670    3.8930 C.ar  194  TYR194     -0.0009
    100  CD2        2.7430  -29.4550    1.8310 C.ar  194  TYR194     -0.0009
    101  CE1        2.6570  -28.9960    4.5970 C.ar  194  TYR194      0.0417
    102  CE2        1.5170  -29.4640    2.4800 C.ar  194  TYR194      0.0417
    103  CZ         1.4820  -29.3060    3.8980 C.ar  194  TYR194      0.1957
    104  OH         0.2720  -29.3420    4.5770 O.3   194  TYR194     -0.2866
    105  N          4.3780  -27.8480   -0.8230 N.am  195  SER195     -0.1950
    106  CA         3.2150  -27.8600   -1.7360 C.3   195  SER195      0.1924
    107  C          3.7030  -27.7740   -3.1920 C.2   195  SER195      0.2314
    108  O          2.8740  -27.6930   -4.1350 O.2   195  SER195     -0.2863
    109  CB         2.0700  -26.8440   -1.3760 C.3   195  SER195      0.2116
    110  OG         2.5470  -25.5300   -1.5810 O.3   195  SER195     -0.2180
    111  N          6.7730  -19.4670   -7.0110 N.3   199  LEU199     -0.1245
    112  CA         5.8710  -18.2730   -6.9210 C.3   199  LEU199      0.1561
    113  C          6.7010  -17.0230   -7.1950 C.2   199  LEU199      0.2260
    114  O          7.8950  -17.0280   -6.9620 O.2   199  LEU199     -0.2867
    115  CB         5.2970  -18.1370   -5.5110 C.3   199  LEU199      0.0270
    116  CG         4.5900  -19.4040   -4.9770 C.3   199  LEU199      0.0019
    117  CD1        4.4720  -19.4020   -3.4930 C.3   199  LEU199      0.0001
    118  CD2        3.2350  -19.6770   -5.6750 C.3   199  LEU199      0.0001
    119  N          2.0430  -11.2120   -3.6900 N.3   203  SER203     -0.1217
    120  CA         1.2150  -11.8350   -2.6820 C.3   203  SER203      0.1889
    121  C          0.4970  -10.7950   -1.8310 C.2   203  SER203      0.2288
    122  O         -0.4850  -11.1410   -1.1750 O.2   203  SER203     -0.2866
    123  CB         2.0660  -12.7170   -1.7320 C.3   203  SER203      0.2089
    124  OG         2.7960  -13.6810   -2.4810 O.3   203  SER203     -0.2183
    125  N          2.1210  -15.0840   -6.3820 N.3   239  GLY239     -0.1225
    126  CA         1.7530  -15.6050   -5.0900 C.3   239  GLY239      0.1811
    127  C          0.2710  -15.5750   -4.7190 C.2   239  GLY239      0.2280
    128  O         -0.2770  -16.5810   -4.2600 O.2   239  GLY239     -0.2866
    129  N         -0.8920  -19.4240   -4.4930 N.3   243  ILE243     -0.1231
    130  CA        -1.0210  -20.0860   -3.2090 C.3   243  ILE243      0.1692
    131  C         -2.1060  -19.3940   -2.3520 C.2   243  ILE243      0.2592
    132  O         -3.1070  -20.0040   -2.0310 O.2   243  ILE243     -0.2718
    133  CB         0.3270  -20.2470   -2.4970 C.3   243  ILE243      0.0266
    134  CG1        0.1280  -21.0530   -1.2290 C.3   243  ILE243      0.0019
    135  CG2        1.0870  -18.9130   -2.1860 C.3   243  ILE243      0.0020
    136  CD1        1.2930  -21.8630   -0.9450 C.3   243  ILE243      0.0001
    137  N         -1.9020  -18.1480   -1.9480 N.am  244  TYR244     -0.1976
    138  CA        -2.9910  -17.3600   -1.2530 C.3   244  TYR244      0.1639
    139  C         -2.4400  -15.9430   -1.0450 C.2   244  TYR244      0.2290
    140  O         -1.1980  -15.7470   -1.1440 O.2   244  TYR244     -0.2864
    141  CB        -3.4260  -17.9360    0.1010 C.3   244  TYR244      0.0560
    142  CG        -2.3050  -18.4710    0.9520 C.ar  244  TYR244     -0.0198
    143  CD1       -1.2730  -17.6520    1.3860 C.ar  244  TYR244     -0.0009
    144  CD2       -2.2950  -19.8430    1.3760 C.ar  244  TYR244     -0.0009
    145  CE1       -0.1990  -18.1960    2.2020 C.ar  244  TYR244      0.0417
    146  CE2       -1.2540  -20.4060    2.1810 C.ar  244  TYR244      0.0417
    147  CZ        -0.2350  -19.5620    2.6080 C.ar  244  TYR244      0.1957
    148  OH         0.7660  -20.0930    3.4140 O.3   244  TYR244     -0.2866
    149  N         -0.8380  -12.9440    0.9640 N.3   246  ALA246     -0.1245
    150  CA        -0.0150  -13.0320    2.1820 C.3   246  ALA246      0.1562
    151  C          0.8890  -11.8120    2.1530 C.2   246  ALA246      0.2260
    152  O          1.9430  -11.8600    1.5010 O.2   246  ALA246     -0.2867
    153  CB         0.8120  -14.3440    2.2300 C.3   246  ALA246      0.0290
    154  N          5.5850  -10.1560    2.6320 N.3   249  GLY249     -0.1225
    155  CA         6.4980  -11.2290    2.2480 C.3   249  GLY249      0.1811
    156  C          7.8550  -10.7120    1.8060 C.2   249  GLY249      0.2280
    157  O          7.9290   -9.6350    1.2230 O.2   249  GLY249     -0.2866
    158  N          9.8960  -11.9120   -0.6350 N.3   251  ASP251     -0.1239
    159  CA         9.9500  -11.8340   -2.1290 C.3   251  ASP251      0.1674
    160  C          9.2910  -10.5590   -2.7020 C.2   251  ASP251      0.2266
    161  O          9.8690   -9.9220   -3.5930 O.2   251  ASP251     -0.2867
    162  CB         9.3740  -13.1350   -2.7940 C.3   251  ASP251      0.1410
    163  CG         7.8780  -13.3820   -2.4190 C.2   251  ASP251      0.3668
    164  OD1        7.2790  -12.7120   -1.5280 O.co2 251  ASP251     -0.2456
    165  OD2        7.2980  -14.2900   -3.0340 O.co2 251  ASP251     -0.2456
    166  N          9.7800  -17.3330   -4.6540 N.3   264  THR264     -0.1218
    167  CA         9.6630  -18.2080   -3.5010 C.3   264  THR264      0.1862
    168  C          9.4040  -19.5990   -4.0070 C.2   264  THR264      0.2287
    169  O          8.5070  -19.8210   -4.8370 O.2   264  THR264     -0.2866
    170  CB         8.4450  -17.7800   -2.6090 C.3   264  THR264      0.1770
    171  OG1        8.5730  -16.3850   -2.1960 O.3   264  THR264     -0.2211
    172  CG2        8.1830  -18.7400   -1.4350 C.3   264  THR264      0.0375
    173  N          8.3730  -23.5290   -3.0350 N.3   266  GLU266     -0.1245
    174  CA         7.6990  -24.3740   -2.0610 C.3   266  GLU266      0.1567
    175  C          8.0580  -25.8120   -2.4230 C.2   266  GLU266      0.2260
    176  O          7.5330  -26.3490   -3.4200 O.2   266  GLU266     -0.2867
    177  CB         6.1670  -24.1940   -2.1370 C.3   266  GLU266      0.0388
    178  CG         5.7060  -22.7580   -1.8910 C.3   266  GLU266      0.1160
    179  CD         5.8860  -22.3110   -0.4450 C.2   266  GLU266      0.3649
    180  OE1        5.9740  -23.1930    0.4410 O.co2 266  GLU266     -0.2457
    181  OE2        5.9250  -21.0740   -0.2040 O.co2 266  GLU266     -0.2457
    182  N          5.3450  -31.0480    6.4150 N.3   275  PHE275     -0.1241
    183  CA         6.5860  -30.5440    7.0440 C.3   275  PHE275      0.1605
    184  C          7.5220  -31.6310    7.4930 C.2   275  PHE275      0.2264
    185  O          8.7520  -31.4360    7.5530 O.2   275  PHE275     -0.2867
    186  CB         6.2110  -29.6510    8.2200 C.3   275  PHE275      0.0534
    187  CG         5.3710  -28.4930    7.8050 C.ar  275  PHE275     -0.0203
    188  CD1        5.8270  -27.6390    6.8080 C.ar  275  PHE275     -0.0042
    189  CD2        4.1080  -28.2480    8.3770 C.ar  275  PHE275     -0.0042
    190  CE1        5.0440  -26.5710    6.4080 C.ar  275  PHE275     -0.0003
    191  CE2        3.3030  -27.1700    7.9360 C.ar  275  PHE275     -0.0003
    192  CZ         3.8020  -26.3310    6.9740 C.ar  275  PHE275     -0.0000
@<TRIPOS>BOND
     1   113   114    2
     2   113   112    1
     3   111   112    1
     4   112   115    1
     5   125   126    1
     6   118   116    1
     7   115   116    1
     8   126   127    1
     9   116   117    1
    10   169   168    2
    11   127   128    2
    12   166   167    1
    13   129   130    1
    14   108   107    2
    15   168   167    1
    16   119   120    1
    17   161   160    2
    18   167   170    1
    19   176   175    2
    20   130   133    1
    21   130   131    1
    22   107   106    1
    23   173   174    1
    24   165   163   ar
    25   162   163    1
    26   162   159    1
    27   160   159    1
    28   120   121    1
    29   120   123    1
    30   170   171    1
    31   170   172    1
    32   133   135    1
    33   133   134    1
    34   124   123    1
    35   175   174    1
    36   163   164   ar
    37   131   132    2
    38   131   137   am
    39   177   174    1
    40   177   178    1
    41   159   158    1
    42   137   138    1
    43   178   179    1
    44   121   122    2
    45   106   109    1
    46   106   105    1
    47   110   109    1
    48   138   139    1
    49   138   141    1
    50   134   136    1
    51   140   139    2
    52   105    95   am
    53   179   181   ar
    54   179   180   ar
    55   141   142    1
    56    95    96    2
    57    95    94    1
    58    80    79    2
    59    77    78    1
    60   142   144   ar
    61   142   143   ar
    62   149   150    1
    63   157   156    2
    64    94    97    1
    65    94    93    1
    66   144   146   ar
    67   143   145   ar
    68    79    78    1
    69    79    87   am
    70   152   151    2
    71    97    98    1
    72    81    78    1
    73    81    82    1
    74   156   155    1
    75   100   102   ar
    76   100    98   ar
    77    84    82   ar
    78    84    86   ar
    79    88    87    1
    80    88    91    1
    81    88    89    1
    82   151   150    1
    83   146   147   ar
    84   150   153    1
    85   145   147   ar
    86   155   154    1
    87    82    83   ar
    88    91    92    1
    89   102   103   ar
    90    93    89   am
    91    98    99   ar
    92   147   148    1
    93    86    85   ar
    94    89    90    2
    95    49    47   am
    96    48    47    2
    97    83    85   ar
    98    47    46    1
    99    99   101   ar
   100   103   104    1
   101   103   101   ar
   102    29    28   ar
   103    45    44    2
   104    59    58    1
   105    60    58    1
   106    46    43    1
   107    58    57    2
   108    28    30   ar
   109    28    27    1
   110    57    56    1
   111    25    24    2
   112    44    43    1
   113    44    50   am
   114    43    42    1
   115    56    55    1
   116    26    27    1
   117    26    23    1
   118   190   188   ar
   119   190   192   ar
   120   182   183    1
   121     9     7   ar
   122     9    10   ar
   123     7     6   ar
   124    24    23    1
   125   188   187   ar
   126   192   191   ar
   127   183   184    1
   128   183   186    1
   129    23    22    1
   130    41    39    1
   131    50    51    1
   132    51    52    1
   133    51    54    1
   134    40    39    1
   135   184   185    2
   136    55    54    1
   137    10     8   ar
   138     6     5    1
   139     6     8   ar
   140    52    53    2
   141   187   186    1
   142   187   189   ar
   143    39    38    2
   144   191   189   ar
   145     1     2    1
   146     5     2    1
   147    22    13   am
   148    76    74    1
   149     4     3    2
   150     2     3    1
   151    14    13    2
   152    38    37    1
   153    74    75    1
   154    74    71    1
   155    13    12    1
   156    21    19    1
   157    18    19    2
   158    18    17    1
   159    16    17    1
   160    16    15    1
   161    37    36    1
   162    73    72    2
   163    19    20    1
   164    71    72    1
   165    71    70    1
   166    36    35    1
   167    12    11    1
   168    12    15    1
   169    64    63    2
   170    70    63   am
   171    35    32    1
   172    34    33    2
   173    63    62    1
   174    32    33    1
   175    32    31    1
   176    65    62    1
   177    65    66    1
   178    62    61    1
   179    66    67    1
   180    68    67   ar
   181    67    69   ar
