@<TRIPOS>MOLECULE
tmp/3wc8A03.pdb
 81 79 0 0 0
SMALL
GASTEIGER

@<TRIPOS>ATOM
      1  N         -3.9810  -20.2690   -1.2900 N.3    22  LYS22      -0.1231
      2  CA        -4.4390  -21.3510   -0.4160 C.3    22  LYS22       0.1693
      3  C         -3.8600  -21.0630    0.9370 C.2    22  LYS22       0.2593
      4  O         -2.6690  -20.8380    1.0830 O.2    22  LYS22      -0.2718
      5  CB        -3.9120  -22.6970   -0.9810 C.3    22  LYS22       0.0285
      6  CG        -4.6270  -23.9350   -0.3400 C.3    22  LYS22       0.0035
      7  CD        -4.1530  -25.1910   -1.0130 C.3    22  LYS22       0.0206
      8  CE        -4.9600  -26.3550   -0.4880 C.3    22  LYS22       0.1093
      9  NZ        -4.3060  -27.6470   -0.8890 N.3    22  LYS22      -0.1314
     10  N         -4.7180  -21.0230    1.9510 N.am   23  GLY23      -0.1942
     11  CA        -4.2650  -20.7200    3.2910 C.3    23  GLY23       0.2014
     12  C         -4.3080  -19.2280    3.5440 C.2    23  GLY23       0.2639
     13  O         -3.9430  -18.7790    4.6430 O.2    23  GLY23      -0.2714
     14  N         -4.7180  -18.4470    2.5320 N.am   24  GLY24      -0.1939
     15  CA        -4.6960  -16.9890    2.6560 C.3    24  GLY24       0.2014
     16  C         -5.7170  -16.4490    3.6550 C.2    24  GLY24       0.2639
     17  O         -6.7880  -17.0240    3.7970 O.2    24  GLY24      -0.2714
     18  N         -5.3990  -15.3380    4.3090 N.am   25  LYS25      -0.1963
     19  CA        -6.3230  -14.8080    5.3500 C.3    25  LYS25       0.1728
     20  C         -7.5600  -14.1350    4.7940 C.2    25  LYS25       0.2616
     21  O         -7.5400  -13.6550    3.6590 O.2    25  LYS25      -0.2715
     22  CB        -5.6340  -13.8590    6.3480 C.3    25  LYS25       0.0311
     23  CG        -5.0960  -12.5500    5.8070 C.3    25  LYS25       0.0038
     24  CD        -4.1770  -11.7650    6.8480 C.3    25  LYS25       0.0206
     25  CE        -4.1330  -10.2730    6.4070 C.3    25  LYS25       0.1093
     26  NZ        -2.8020   -9.4800    6.5260 N.3    25  LYS25      -0.1314
     27  N         -8.6310  -14.1150    5.5920 N.am   26  HIS26      -0.1973
     28  CA        -9.7320  -13.1940    5.2900 C.3    26  HIS26       0.1656
     29  C         -9.2490  -11.8070    5.6150 C.2    26  HIS26       0.2291
     30  O         -8.4940  -11.6610    6.5660 O.2    26  HIS26      -0.2864
     31  CB       -10.9760  -13.5480    6.1030 C.3    26  HIS26       0.0771
     32  CG       -11.5250  -14.9100    5.7720 C.ar   26  HIS26       0.0820
     33  ND1      -11.6950  -15.3460    4.4790 N.ar   26  HIS26      -0.2267
     34  CD2      -11.9810  -15.9190    6.5690 C.ar   26  HIS26       0.1154
     35  CE1      -12.1890  -16.5780    4.4800 C.ar   26  HIS26       0.1986
     36  NE2      -12.3860  -16.9400    5.7420 N.ar   26  HIS26      -0.2212
     37  N        -11.1670  -14.6870    1.8040 N.3    31  ASN31      -0.1240
     38  CA       -10.2160  -15.3920    0.9450 C.3    31  ASN31       0.1653
     39  C        -11.0030  -16.1050   -0.1590 C.2    31  ASN31       0.2266
     40  O        -12.0920  -16.6900    0.0680 O.2    31  ASN31      -0.2867
     41  CB        -9.3620  -16.3980    1.7870 C.3    31  ASN31       0.1155
     42  CG        -8.4940  -17.2840    0.8980 C.2    31  ASN31       0.2627
     43  OD1       -7.3680  -16.9330    0.5210 O.2    31  ASN31      -0.2716
     44  ND2       -8.9890  -18.4160    0.6050 N.am   31  ASN31      -0.0877
     45  N         -9.7230  -18.5510   -2.3680 N.3    33  HIS33      -0.1226
     46  CA        -9.2600  -19.8390   -2.8670 C.3    33  HIS33       0.1752
     47  C        -10.4080  -20.8940   -2.8370 C.2    33  HIS33       0.2596
     48  O        -11.2180  -20.9620   -1.8370 O.2    33  HIS33      -0.2718
     49  CB        -8.0590  -20.3980   -2.0120 C.3    33  HIS33       0.0759
     50  CG        -7.2310  -21.4030   -2.7610 C.ar   33  HIS33       0.0818
     51  ND1       -7.4520  -22.7720   -2.6970 N.ar   33  HIS33      -0.2268
     52  CD2       -6.2240  -21.2300   -3.6480 C.ar   33  HIS33       0.1154
     53  CE1       -6.5930  -23.3930   -3.4890 C.ar   33  HIS33       0.1986
     54  NE2       -5.8500  -22.4830   -4.0940 N.ar   33  HIS33      -0.2212
     55  N        -10.4550  -21.7170   -3.9080 N.am   34  GLY34      -0.1957
     56  CA       -11.5440  -22.7280   -4.1650 C.3    34  GLY34       0.1869
     57  C        -12.8740  -22.0610   -4.5610 C.2    34  GLY34       0.2309
     58  O        -13.8970  -22.7440   -4.5840 O.2    34  GLY34      -0.2863
     59  N        -17.9780  -23.3390   -6.3020 N.3    38  ARG38      -0.1245
     60  CA       -18.5630  -23.1610   -4.9700 C.3    38  ARG38       0.1563
     61  C        -19.7940  -22.2580   -5.0100 C.2    38  ARG38       0.2260
     62  O        -19.8390  -21.3950   -5.8440 O.2    38  ARG38      -0.2867
     63  CB       -17.5570  -22.4920   -4.0200 C.3    38  ARG38       0.0307
     64  CG       -17.7630  -22.9740   -2.6020 C.3    38  ARG38       0.0489
     65  CD       -16.5500  -22.7070   -1.6830 C.3    38  ARG38       0.2205
     66  NE       -16.2770  -21.2730   -1.6890 N.pl3  38  ARG38      -0.0865
     67  CZ       -15.0920  -20.7590   -1.4380 C.cat  38  ARG38       0.5346
     68  NH1      -14.9330  -19.4430   -1.4990 N.pl3  38  ARG38       0.1354
     69  NH2      -14.0800  -21.5800   -1.1240 N.pl3  38  ARG38       0.1354
     70  N        -16.9850  -19.1990    1.8620 N.3    43  ALA43      -0.1231
     71  CA       -15.5800  -19.2910    2.3730 C.3    43  ALA43       0.1679
     72  C        -15.6320  -19.5710    3.8640 C.2    43  ALA43       0.2434
     73  O        -16.2980  -18.7990    4.5880 O.2    43  ALA43      -0.2733
     74  CB       -14.8250  -17.9900    2.1800 C.3    43  ALA43       0.0304
     75  N        -14.9200  -20.6150    4.3390 N.am   44  PRO44      -0.2729
     76  CA       -15.1230  -21.0560    5.7330 C.3    44  PRO44       0.1401
     77  C        -14.5840  -20.0060    6.6690 C.2    44  PRO44       0.2269
     78  O        -13.5110  -19.4480    6.4150 O.2    44  PRO44      -0.2865
     79  CB       -14.2850  -22.3520    5.8220 C.3    44  PRO44       0.0296
     80  CG       -13.4500  -22.4130    4.5740 C.3    44  PRO44       0.0237
     81  CD       -14.1490  -21.5920    3.5370 C.3    44  PRO44       0.0939
@<TRIPOS>BOND
     1    59    60    1
     2    62    61    2
     3    61    60    1
     4    60    63    1
     5    58    57    2
     6    57    56    1
     7    56    55    1
     8    54    52   ar
     9    54    53   ar
    10    63    64    1
    11    55    47   am
    12    52    50   ar
    13    53    51   ar
    14    46    47    1
    15    46    45    1
    16    46    49    1
    17    47    48    2
    18    50    51   ar
    19    50    49    1
    20    64    65    1
    21    66    65    1
    22    66    67    2
    23    68    67    1
    24    67    69    1
    25     1     2    1
    26     7     8    1
    27     7     6    1
    28     5     2    1
    29     5     6    1
    30     9     8    1
    31     2     3    1
    32    39    40    2
    33    39    38    1
    34    43    42    2
    35    44    42   am
    36    42    41    1
    37     3     4    2
    38     3    10   am
    39    38    41    1
    40    38    37    1
    41    70    71    1
    42    10    11    1
    43    74    71    1
    44    71    72    1
    45    14    15    1
    46    14    12   am
    47    15    16    1
    48    11    12    1
    49    81    75    1
    50    81    80    1
    51    12    13    2
    52    16    17    2
    53    16    18   am
    54    21    20    2
    55    72    75   am
    56    72    73    2
    57    18    19    1
    58    75    76    1
    59    33    35   ar
    60    33    32   ar
    61    35    36   ar
    62    80    79    1
    63    20    19    1
    64    20    27   am
    65    28    27    1
    66    28    29    1
    67    28    31    1
    68    19    22    1
    69    29    30    2
    70    76    79    1
    71    76    77    1
    72    36    34   ar
    73    32    31    1
    74    32    34   ar
    75    23    22    1
    76    23    24    1
    77    25    26    1
    78    25    24    1
    79    78    77    2
