@<TRIPOS>MOLECULE
tmp/3wc9E00.pdb
 197 187 0 0 0
SMALL
GASTEIGER

@<TRIPOS>ATOM
      1  N         15.0060  -18.5510  -46.6690 N.3    15  THR15      -0.1203
      2  CA        16.3330  -18.3780  -47.2500 C.3    15  THR15       0.1994
      3  C         17.2320  -19.6080  -47.1430 C.2    15  THR15       0.2619
      4  O         17.8530  -20.0100  -48.1230 O.2    15  THR15      -0.2717
      5  CB        17.0860  -17.2190  -46.5770 C.3    15  THR15       0.1784
      6  OG1       17.7660  -17.7060  -45.4150 O.3    15  THR15      -0.2211
      7  CG2       16.1220  -16.1260  -46.1500 C.3    15  THR15       0.0376
      8  N         17.3230  -20.1940  -45.9530 N.am   16  SER16      -0.1937
      9  CA        18.1780  -21.3620  -45.7520 C.3    16  SER16       0.2055
     10  C         17.4820  -22.6760  -46.0910 C.2    16  SER16       0.2643
     11  O         17.4310  -23.6060  -45.2890 O.2    16  SER16      -0.2714
     12  CB        18.7200  -21.3960  -44.3120 C.3    16  SER16       0.2130
     13  OG        19.6370  -20.3310  -44.0690 O.3    16  SER16      -0.2179
     14  N         16.9570  -22.7160  -47.3090 N.am   17  ARG17      -0.1963
     15  CA        16.2620  -23.8580  -47.9000 C.3    17  ARG17       0.1729
     16  C         16.8280  -25.2370  -47.5400 C.2    17  ARG17       0.2617
     17  O         16.0820  -26.1700  -47.2530 O.2    17  ARG17      -0.2715
     18  CB        16.3010  -23.6840  -49.4140 C.3    17  ARG17       0.0348
     19  CG        17.6240  -23.0550  -49.8600 C.3    17  ARG17       0.0492
     20  CD        17.6830  -22.7550  -51.3410 C.3    17  ARG17       0.2205
     21  NE        18.7860  -21.8470  -51.6550 N.pl3  17  ARG17      -0.0865
     22  CZ        19.1800  -21.5380  -52.8890 C.cat  17  ARG17       0.5346
     23  NH1       20.1930  -20.6980  -53.0740 N.pl3  17  ARG17       0.1354
     24  NH2       18.5710  -22.0770  -53.9400 N.pl3  17  ARG17       0.1354
     25  N         18.1470  -25.3640  -47.5630 N.am   18  SER18      -0.1936
     26  CA        18.7840  -26.6410  -47.2700 C.3    18  SER18       0.2055
     27  C         19.2940  -26.8240  -45.8470 C.2    18  SER18       0.2643
     28  O         20.0450  -27.7710  -45.5790 O.2    18  SER18      -0.2714
     29  CB        19.9380  -26.8770  -48.2470 C.3    18  SER18       0.2130
     30  OG        20.7750  -25.7370  -48.3200 O.3    18  SER18      -0.2179
     31  N         18.8980  -25.9370  -44.9350 N.am   19  PHE19      -0.1973
     32  CA        19.3470  -26.0510  -43.5500 C.3    19  PHE19       0.1639
     33  C         18.2530  -25.7940  -42.5180 C.2    19  PHE19       0.2290
     34  O         18.3730  -26.2050  -41.3700 O.2    19  PHE19      -0.2864
     35  CB        20.5380  -25.1160  -43.2960 C.3    19  PHE19       0.0560
     36  CG        21.8270  -25.5830  -43.9270 C.ar   19  PHE19      -0.0200
     37  CD1       22.1280  -25.2760  -45.2510 C.ar   19  PHE19      -0.0042
     38  CD2       22.7310  -26.3600  -43.2050 C.ar   19  PHE19      -0.0042
     39  CE1       23.3090  -25.7360  -45.8480 C.ar   19  PHE19      -0.0003
     40  CE2       23.9130  -26.8230  -43.7960 C.ar   19  PHE19      -0.0003
     41  CZ        24.1980  -26.5070  -45.1240 C.ar   19  PHE19      -0.0000
     42  N         22.4560  -17.9610  -38.7010 N.3    38  TYR38      -0.1241
     43  CA        22.2380  -18.0220  -40.1360 C.3    38  TYR38       0.1605
     44  C         21.6960  -16.7040  -40.6440 C.2    38  TYR38       0.2264
     45  O         22.2340  -16.1270  -41.5850 O.2    38  TYR38      -0.2867
     46  CB        21.2750  -19.1590  -40.4890 C.3    38  TYR38       0.0534
     47  CG        22.0020  -20.4190  -40.8830 C.ar   38  TYR38      -0.0201
     48  CD1       22.3350  -20.6770  -42.2160 C.ar   38  TYR38      -0.0009
     49  CD2       22.4380  -21.3170  -39.9110 C.ar   38  TYR38      -0.0009
     50  CE1       23.0940  -21.8040  -42.5620 C.ar   38  TYR38       0.0417
     51  CE2       23.1930  -22.4390  -40.2460 C.ar   38  TYR38       0.0417
     52  CZ        23.5160  -22.6770  -41.5640 C.ar   38  TYR38       0.1957
     53  OH        24.2540  -23.7940  -41.8570 O.3    38  TYR38      -0.2866
     54  N         23.4990  -14.6570  -43.3360 N.3    42  ARG42      -0.1245
     55  CA        22.7370  -14.4730  -44.5580 C.3    42  ARG42       0.1563
     56  C         22.8790  -13.0090  -44.9360 C.2    42  ARG42       0.2260
     57  O         23.2600  -12.6720  -46.0570 O.2    42  ARG42      -0.2867
     58  CB        21.2620  -14.8080  -44.3230 C.3    42  ARG42       0.0307
     59  CG        20.3270  -14.3110  -45.4150 C.3    42  ARG42       0.0489
     60  CD        20.7970  -14.7620  -46.7820 C.3    42  ARG42       0.2205
     61  NE        20.7980  -16.2150  -46.9090 N.pl3  42  ARG42      -0.0865
     62  CZ        21.6520  -16.9010  -47.6640 C.cat  42  ARG42       0.5346
     63  NH1       22.5880  -16.2660  -48.3630 N.pl3  42  ARG42       0.1354
     64  NH2       21.5640  -18.2250  -47.7240 N.pl3  42  ARG42       0.1354
     65  N         34.2090  -17.5270  -46.4380 N.3   140  VAL140     -0.1231
     66  CA        32.7840  -17.6810  -46.7110 C.3   140  VAL140      0.1692
     67  C         32.1060  -18.9030  -46.0900 C.2   140  VAL140      0.2591
     68  O         30.9290  -18.8490  -45.7490 O.2   140  VAL140     -0.2718
     69  CB        32.5270  -17.6830  -48.2310 C.3   140  VAL140      0.0266
     70  CG1       31.0350  -17.6200  -48.5150 C.3   140  VAL140      0.0020
     71  CG2       33.2300  -16.5040  -48.8650 C.3   140  VAL140      0.0020
     72  N         32.8330  -20.0020  -45.9380 N.am  141  ALA141     -0.1980
     73  CA        32.2390  -21.2030  -45.3670 C.3   141  ALA141      0.1597
     74  C         33.0250  -21.7210  -44.1710 C.2   141  ALA141      0.2287
     75  O         32.4540  -21.9960  -43.1210 O.2   141  ALA141     -0.2864
     76  CB        32.1260  -22.2890  -46.4390 C.3   141  ALA141      0.0319
     77  N         32.0300  -20.3850  -40.9510 N.3   144  VAL144     -0.1231
     78  CA        30.7490  -20.8770  -40.4630 C.3   144  VAL144      0.1692
     79  C         30.9240  -22.2090  -39.7500 C.2   144  VAL144      0.2592
     80  O         30.3510  -22.4310  -38.6870 O.2   144  VAL144     -0.2718
     81  CB        29.7400  -21.0730  -41.5980 C.3   144  VAL144      0.0266
     82  CG1       28.4310  -21.5750  -41.0270 C.3   144  VAL144      0.0020
     83  CG2       29.5170  -19.7680  -42.3290 C.3   144  VAL144      0.0020
     84  N         31.7200  -23.0910  -40.3420 N.am  145  GLY145     -0.1957
     85  CA        31.9610  -24.3880  -39.7410 C.3   145  GLY145      0.1869
     86  C         32.5740  -24.2500  -38.3650 C.2   145  GLY145      0.2309
     87  O         32.1650  -24.9260  -37.4220 O.2   145  GLY145     -0.2863
     88  N         30.2240  -22.7680  -35.6910 N.3   148  LEU148     -0.1245
     89  CA        29.2180  -23.7350  -35.2820 C.3   148  LEU148      0.1561
     90  C         29.8970  -24.6310  -34.2620 C.2   148  LEU148      0.2260
     91  O         29.3620  -24.8750  -33.1830 O.2   148  LEU148     -0.2867
     92  CB        28.7360  -24.5590  -36.4810 C.3   148  LEU148      0.0270
     93  CG        27.9290  -23.7890  -37.5270 C.3   148  LEU148      0.0019
     94  CD1       27.6960  -24.6440  -38.7650 C.3   148  LEU148      0.0001
     95  CD2       26.6150  -23.3570  -36.9110 C.3   148  LEU148      0.0001
     96  N         28.5680  -25.4420  -30.6910 N.3   152  PHE152     -0.1241
     97  CA        28.3000  -26.7900  -30.2020 C.3   152  PHE152      0.1605
     98  C         29.0350  -27.0890  -28.8870 C.2   152  PHE152      0.2264
     99  O         28.4730  -27.7170  -27.9850 O.2   152  PHE152     -0.2867
    100  CB        28.6840  -27.8450  -31.2540 C.3   152  PHE152      0.0534
    101  CG        27.9890  -27.6770  -32.5870 C.ar  152  PHE152     -0.0203
    102  CD1       26.7130  -27.1260  -32.6680 C.ar  152  PHE152     -0.0042
    103  CD2       28.6100  -28.0860  -33.7630 C.ar  152  PHE152     -0.0042
    104  CE1       26.0690  -26.9830  -33.9060 C.ar  152  PHE152     -0.0003
    105  CE2       27.9740  -27.9480  -34.9980 C.ar  152  PHE152     -0.0003
    106  CZ        26.7050  -27.3970  -35.0680 C.ar  152  PHE152     -0.0000
    107  N         36.8860  -28.2880  -38.5900 N.3   169  ALA169     -0.1245
    108  CA        35.6920  -27.4840  -38.7850 C.3   169  ALA169      0.1562
    109  C         35.7850  -26.7260  -40.0920 C.2   169  ALA169      0.2260
    110  O         34.7750  -26.4270  -40.7250 O.2   169  ALA169     -0.2867
    111  CB        35.5310  -26.5040  -37.6330 C.3   169  ALA169      0.0290
    112  N         35.0710  -29.1000  -43.0250 N.3   172  MET172     -0.1230
    113  CA        33.6320  -29.2700  -43.0610 C.3   172  MET172      0.1702
    114  C         33.0300  -28.1630  -43.9190 C.2   172  MET172      0.2592
    115  O         32.1740  -28.4150  -44.7610 O.2   172  MET172     -0.2718
    116  CB        33.0450  -29.1980  -41.6430 C.3   172  MET172      0.0401
    117  CG        33.1640  -30.4800  -40.8320 C.3   172  MET172      0.0596
    118  SD        32.1470  -31.8470  -41.4640 S.3   172  MET172     -0.1393
    119  CE        30.5490  -31.3420  -40.8320 C.3   172  MET172      0.0692
    120  N         33.4910  -26.9360  -43.6980 N.am  173  GLY173     -0.1957
    121  CA        32.9870  -25.7990  -44.4490 C.3   173  GLY173      0.1869
    122  C         33.4310  -25.7690  -45.9020 C.2   173  GLY173      0.2309
    123  O         32.6150  -25.5480  -46.8020 O.2   173  GLY173     -0.2863
    124  N         31.6860  -28.1640  -48.3540 N.3   176  LEU176     -0.1231
    125  CA        30.3550  -27.7270  -48.7410 C.3   176  LEU176      0.1693
    126  C         30.4160  -26.5870  -49.7430 C.2   176  LEU176      0.2591
    127  O         29.6180  -26.5230  -50.6760 O.2   176  LEU176     -0.2718
    128  CB        29.5600  -27.2530  -47.5250 C.3   176  LEU176      0.0284
    129  CG        29.2490  -28.2200  -46.3910 C.3   176  LEU176      0.0019
    130  CD1       28.1640  -27.5980  -45.5350 C.3   176  LEU176      0.0001
    131  CD2       28.7820  -29.5560  -46.9360 C.3   176  LEU176      0.0001
    132  N         31.3670  -25.6830  -49.5380 N.am  177  GLN177     -0.1979
    133  CA        31.5130  -24.5230  -50.4020 C.3   177  GLN177      0.1601
    134  C         31.9610  -24.8780  -51.8090 C.2   177  GLN177      0.2287
    135  O         31.3940  -24.3980  -52.7840 O.2   177  GLN177     -0.2864
    136  CB        32.5010  -23.5330  -49.7900 C.3   177  GLN177      0.0394
    137  CG        32.4810  -22.1860  -50.4690 C.3   177  GLN177      0.0908
    138  CD        31.0960  -21.5700  -50.4460 C.2   177  GLN177      0.2608
    139  OE1       30.5400  -21.3030  -49.3780 O.2   177  GLN177     -0.2717
    140  NE2       30.5250  -21.3490  -51.6250 N.am  177  GLN177     -0.0878
    141  N         29.4490  -26.6060  -54.0260 N.3   180  ASN180     -0.1240
    142  CA        28.4920  -25.6560  -54.5890 C.3   180  ASN180      0.1653
    143  C         29.1320  -24.8550  -55.7120 C.2   180  ASN180      0.2266
    144  O         28.5640  -24.7220  -56.7940 O.2   180  ASN180     -0.2867
    145  CB        27.9950  -24.6760  -53.5270 C.3   180  ASN180      0.1155
    146  CG        27.3320  -25.3660  -52.3600 C.2   180  ASN180      0.2627
    147  OD1       26.7140  -24.7160  -51.5140 O.2   180  ASN180     -0.2716
    148  ND2       27.4580  -26.6900  -52.2990 N.am  180  ASN180     -0.0877
    149  N         29.2220  -27.1700  -58.5900 N.3   183  ARG183     -0.1245
    150  CA        27.8630  -27.3990  -59.0590 C.3   183  ARG183      0.1563
    151  C         27.1900  -26.2070  -59.7320 C.2   183  ARG183      0.2260
    152  O         26.5690  -26.3520  -60.7810 O.2   183  ARG183     -0.2867
    153  CB        27.0080  -27.8550  -57.8720 C.3   183  ARG183      0.0307
    154  CG        25.5610  -28.2050  -58.1860 C.3   183  ARG183      0.0489
    155  CD        24.5930  -27.3730  -57.3440 C.3   183  ARG183      0.2205
    156  NE        25.0520  -27.2020  -55.9660 N.pl3 183  ARG183     -0.0865
    157  CZ        24.4670  -26.4150  -55.0680 C.cat 183  ARG183      0.5346
    158  NH1       23.3850  -25.7220  -55.3880 N.pl3 183  ARG183      0.1354
    159  NH2       24.9850  -26.2940  -53.8560 N.pl3 183  ARG183      0.1354
    160  N         35.5290  -35.2420  -38.3510 N.3   241  TYR241     -0.1241
    161  CA        34.7400  -34.2440  -37.6440 C.3   241  TYR241      0.1605
    162  C         33.4000  -34.8070  -37.2170 C.2   241  TYR241      0.2264
    163  O         32.9320  -34.5230  -36.1160 O.2   241  TYR241     -0.2867
    164  CB        34.5150  -32.9970  -38.5040 C.3   241  TYR241      0.0534
    165  CG        33.6810  -31.9370  -37.8140 C.ar  241  TYR241     -0.0201
    166  CD1       32.2880  -32.0340  -37.7610 C.ar  241  TYR241     -0.0009
    167  CD2       34.2860  -30.8470  -37.1950 C.ar  241  TYR241     -0.0009
    168  CE1       31.5190  -31.0690  -37.1070 C.ar  241  TYR241      0.0417
    169  CE2       33.5300  -29.8760  -36.5370 C.ar  241  TYR241      0.0417
    170  CZ        32.1480  -29.9920  -36.4970 C.ar  241  TYR241      0.1957
    171  OH        31.4040  -29.0250  -35.8540 O.3   241  TYR241     -0.2866
    172  N         22.1640  -32.3680  -38.3750 N.3   253  PHE253     -0.1227
    173  CA        22.4650  -31.0540  -38.9230 C.3   253  PHE253      0.1736
    174  C         23.8080  -30.9940  -39.6510 C.2   253  PHE253      0.2595
    175  O         23.9750  -30.2140  -40.5880 O.2   253  PHE253     -0.2718
    176  CB        22.4450  -30.0280  -37.7850 C.3   253  PHE253      0.0547
    177  CG        23.0170  -28.6890  -38.1550 C.ar  253  PHE253     -0.0202
    178  CD1       22.2180  -27.7080  -38.7240 C.ar  253  PHE253     -0.0042
    179  CD2       24.3700  -28.4200  -37.9570 C.ar  253  PHE253     -0.0042
    180  CE1       22.7640  -26.4800  -39.0910 C.ar  253  PHE253     -0.0003
    181  CE2       24.9220  -27.1990  -38.3210 C.ar  253  PHE253     -0.0003
    182  CZ        24.1230  -26.2280  -38.8870 C.ar  253  PHE253     -0.0000
    183  N         24.7570  -31.8140  -39.2080 N.am  254  CYS254     -0.1970
    184  CA        26.1000  -31.8630  -39.7930 C.3   254  CYS254      0.1712
    185  C         26.2610  -32.8900  -40.9170 C.2   254  CYS254      0.2296
    186  O         26.6830  -32.5560  -42.0280 O.2   254  CYS254     -0.2864
    187  CB        27.1420  -32.1910  -38.7140 C.3   254  CYS254      0.0983
    188  SG        27.3290  -30.9840  -37.4060 S.3   254  CYS254     -0.0798
    189  N         26.7830  -32.8510  -45.5040 N.3   258  GLN258     -0.1245
    190  CA        28.0130  -33.3760  -46.0800 C.3   258  GLN258      0.1566
    191  C         27.6180  -34.4960  -47.0440 C.2   258  GLN258      0.2260
    192  O         28.0780  -34.5530  -48.1830 O.2   258  GLN258     -0.2867
    193  CB        28.9320  -33.9470  -44.9930 C.3   258  GLN258      0.0367
    194  CG        29.4460  -32.9510  -43.9760 C.3   258  GLN258      0.0905
    195  CD        30.0860  -31.7390  -44.6220 C.2   258  GLN258      0.2608
    196  OE1       30.7140  -31.8490  -45.6730 O.2   258  GLN258     -0.2717
    197  NE2       29.9390  -30.5770  -43.9920 N.am  258  GLN258     -0.0878
@<TRIPOS>BOND
     1   152   151    2
     2   151   150    1
     3   150   149    1
     4   150   153    1
     5   154   153    1
     6   154   155    1
     7   155   156    1
     8   144   143    2
     9   156   157    2
    10   143   142    1
    11   158   157    1
    12   157   159    1
    13   142   141    1
    14   142   145    1
    15    24    22    1
    16   145   146    1
    17    23    22    1
    18    22    21    2
    19   135   134    2
    20   146   148   am
    21   146   147    2
    22   134   133    1
    23    21    20    1
    24   140   138   am
    25    20    19    1
    26   127   126    2
    27   137   138    1
    28   137   136    1
    29   138   139    2
    30   133   136    1
    31   133   132    1
    32    19    18    1
    33   126   132   am
    34   126   125    1
    35    18    15    1
    36    71    69    1
    37   125   124    1
    38   125   128    1
    39    70    69    1
    40    63    62    1
    41    30    29    1
    42    29    26    1
    43    69    66    1
    44   192   191    2
    45     4     3    2
    46    15    16    1
    47    15    14    1
    48    64    62    1
    49    62    61    2
    50    25    16   am
    51    25    26    1
    52    16    17    2
    53   128   129    1
    54    14    10   am
    55    26    27    1
    56     2     3    1
    57     2     1    1
    58     2     5    1
    59     3     8   am
    60   191   190    1
    61   131   129    1
    62    61    60    1
    63   123   122    2
    64    60    59    1
    65    66    65    1
    66    66    67    1
    67     5     7    1
    68     5     6    1
    69    76    73    1
    70   129   130    1
    71    10     9    1
    72    10    11    2
    73    67    72   am
    74    67    68    2
    75   190   189    1
    76   190   193    1
    77    57    56    2
    78     8     9    1
    79    72    73    1
    80   122   121    1
    81    39    37   ar
    82    39    41   ar
    83    27    28    2
    84    27    31   am
    85     9    12    1
    86   196   195    2
    87    59    58    1
    88    73    74    1
    89    37    36   ar
    90    41    40   ar
    91   193   194    1
    92    56    55    1
    93    31    32    1
    94   115   114    2
    95   195   197   am
    96   195   194    1
    97    55    58    1
    98    55    54    1
    99   121   120    1
   100    12    13    1
   101    74    75    2
   102    36    35    1
   103    36    38   ar
   104   114   120   am
   105   114   113    1
   106    40    38   ar
   107    32    35    1
   108    32    33    1
   109   113   112    1
   110   113   116    1
   111    50    48   ar
   112    50    52   ar
   113    33    34    2
   114    83    81    1
   115    48    47   ar
   116   186   185    2
   117    53    52    1
   118   116   117    1
   119    81    82    1
   120    81    78    1
   121    45    44    2
   122    52    51   ar
   123   118   117    1
   124   118   119    1
   125    77    78    1
   126   185   184    1
   127    47    46    1
   128    47    49   ar
   129   110   109    2
   130    44    43    1
   131   175   174    2
   132    46    43    1
   133    78    79    1
   134    84    79   am
   135    84    85    1
   136    51    49   ar
   137    43    42    1
   138   109   108    1
   139   184   183    1
   140   184   187    1
   141    79    80    2
   142    85    86    1
   143   174   183   am
   144   174   173    1
   145   180   182   ar
   146   180   178   ar
   147   173   172    1
   148   173   176    1
   149   182   181   ar
   150   108   107    1
   151   108   111    1
   152    94    93    1
   153   178   177   ar
   154   187   188    1
   155   164   165    1
   156   164   161    1
   157    86    87    2
   158   160   161    1
   159   181   179   ar
   160   177   179   ar
   161   177   176    1
   162   165   166   ar
   163   165   167   ar
   164   166   168   ar
   165   161   162    1
   166    93    95    1
   167    93    92    1
   168   162   163    2
   169   167   169   ar
   170   168   170   ar
   171   169   170   ar
   172   170   171    1
   173    92    89    1
   174    88    89    1
   175    89    90    1
   176   106   105   ar
   177   106   104   ar
   178   105   103   ar
   179    90    91    2
   180   104   102   ar
   181   103   101   ar
   182   102   101   ar
   183   101   100    1
   184   100    97    1
   185    96    97    1
   186    97    98    1
   187    98    99    2
