@<TRIPOS>MOLECULE
tmp/3wcaC01.pdb
 218 204 0 0 0
SMALL
GASTEIGER

@<TRIPOS>ATOM
      1  N         29.3720   58.1660   43.4030 N.3    18  PHE18      -0.1241
      2  CA        29.8650   58.4400   44.7420 C.3    18  PHE18       0.1605
      3  C         30.4940   59.8160   44.8800 C.2    18  PHE18       0.2264
      4  O         30.7060   60.2980   45.9940 O.2    18  PHE18      -0.2867
      5  CB        30.8430   57.3280   45.1610 C.3    18  PHE18       0.0534
      6  CG        30.1510   56.0300   45.4880 C.ar   18  PHE18      -0.0203
      7  CD1       29.6870   55.7770   46.7740 C.ar   18  PHE18      -0.0042
      8  CD2       29.8430   55.1210   44.4830 C.ar   18  PHE18      -0.0042
      9  CE1       28.9180   54.6440   47.0510 C.ar   18  PHE18      -0.0003
     10  CE2       29.0710   53.9810   44.7500 C.ar   18  PHE18      -0.0003
     11  CZ        28.6080   53.7460   46.0350 C.ar   18  PHE18      -0.0000
     12  N         30.3820   61.5140   48.4650 N.3    22  ILE22      -0.1245
     13  CA        31.7100   61.6010   49.0580 C.3    22  ILE22       0.1561
     14  C         32.0510   63.0690   49.3340 C.2    22  ILE22       0.2260
     15  O         32.6000   63.3960   50.3880 O.2    22  ILE22      -0.2867
     16  CB        32.7640   60.9440   48.1260 C.3    22  ILE22       0.0252
     17  CG1       32.6200   59.4220   48.1970 C.3    22  ILE22       0.0019
     18  CG2       34.1780   61.3360   48.5310 C.3    22  ILE22       0.0019
     19  CD1       33.4110   58.6780   47.1090 C.3    22  ILE22       0.0001
     20  N         38.2800   58.8890   52.4550 N.3    33  VAL33      -0.1245
     21  CA        37.3660   58.1870   51.5520 C.3    33  VAL33       0.1561
     22  C         37.7080   58.5100   50.0950 C.2    33  VAL33       0.2260
     23  O         37.6770   57.6400   49.2330 O.2    33  VAL33      -0.2867
     24  CB        35.8830   58.5920   51.7960 C.3    33  VAL33       0.0252
     25  CG1       34.9650   57.7780   50.8850 C.3    33  VAL33       0.0019
     26  CG2       35.5040   58.3760   53.2530 C.3    33  VAL33       0.0019
     27  N         40.9210   56.7530   49.2400 N.3    36  PHE36      -0.1227
     28  CA        40.5740   55.3380   49.2300 C.3    36  PHE36       0.1736
     29  C         39.8600   54.9700   47.9290 C.2    36  PHE36       0.2595
     30  O         40.0930   53.9030   47.3530 O.2    36  PHE36      -0.2718
     31  CB        39.6870   55.0310   50.4430 C.3    36  PHE36       0.0547
     32  CG        39.1580   53.6180   50.4870 C.ar   36  PHE36      -0.0202
     33  CD1       39.9820   52.5370   50.1940 C.ar   36  PHE36      -0.0042
     34  CD2       37.8430   53.3700   50.8870 C.ar   36  PHE36      -0.0042
     35  CE1       39.5110   51.2300   50.3010 C.ar   36  PHE36      -0.0003
     36  CE2       37.3570   52.0620   50.9990 C.ar   36  PHE36      -0.0003
     37  CZ        38.1920   50.9920   50.7070 C.ar   36  PHE36      -0.0000
     38  N         38.9890   55.8560   47.4570 N.am   37  TYR37      -0.1976
     39  CA        38.2700   55.5970   46.2100 C.3    37  TYR37       0.1639
     40  C         39.2540   55.5790   45.0390 C.2    37  TYR37       0.2290
     41  O         39.2250   54.6780   44.2020 O.2    37  TYR37      -0.2864
     42  CB        37.2000   56.6730   45.9610 C.3    37  TYR37       0.0560
     43  CG        36.5150   56.5440   44.6060 C.ar   37  TYR37      -0.0198
     44  CD1       35.4450   55.6780   44.4240 C.ar   37  TYR37      -0.0009
     45  CD2       36.9880   57.2440   43.4940 C.ar   37  TYR37      -0.0009
     46  CE1       34.8610   55.5010   43.1810 C.ar   37  TYR37       0.0417
     47  CE2       36.4100   57.0750   42.2320 C.ar   37  TYR37       0.0417
     48  CZ        35.3470   56.1980   42.0860 C.ar   37  TYR37       0.1957
     49  OH        34.7830   56.0000   40.8470 O.3    37  TYR37      -0.2866
     50  N         41.6190   52.4810   44.8220 N.3    40  LEU40      -0.1231
     51  CA        40.8820   51.3590   44.2540 C.3    40  LEU40       0.1693
     52  C         40.5420   51.5850   42.7870 C.2    40  LEU40       0.2591
     53  O         40.5580   50.6510   41.9830 O.2    40  LEU40      -0.2718
     54  CB        39.5980   51.1160   45.0470 C.3    40  LEU40       0.0284
     55  CG        39.8090   50.6860   46.4970 C.3    40  LEU40       0.0019
     56  CD1       38.4610   50.3760   47.1260 C.3    40  LEU40       0.0001
     57  CD2       40.7310   49.4640   46.5470 C.3    40  LEU40       0.0001
     58  N         40.2200   52.8270   42.4440 N.am   41  ARG41      -0.1980
     59  CA        39.8810   53.1710   41.0670 C.3    41  ARG41       0.1597
     60  C         41.0720   52.8780   40.1560 C.2    41  ARG41       0.2287
     61  O         40.9190   52.3170   39.0740 O.2    41  ARG41      -0.2864
     62  CB        39.5140   54.6540   40.9640 C.3    41  ARG41       0.0334
     63  CG        38.8420   54.9990   39.6600 C.3    41  ARG41       0.0492
     64  CD        37.5470   54.2310   39.5480 C.3    41  ARG41       0.2205
     65  NE        36.9660   54.3270   38.2200 N.pl3  41  ARG41      -0.0865
     66  CZ        35.8140   53.7670   37.8760 C.cat  41  ARG41       0.5346
     67  NH1       35.1210   53.0700   38.7730 N.pl3  41  ARG41       0.1354
     68  NH2       35.3580   53.9030   36.6350 N.pl3  41  ARG41       0.1354
     69  N         41.5670   49.1520   39.6090 N.3    44  ASP44      -0.1239
     70  CA        40.6130   48.6000   38.6540 C.3    44  ASP44       0.1674
     71  C         40.9960   48.9340   37.2160 C.2    44  ASP44       0.2266
     72  O         40.7390   48.1530   36.3000 O.2    44  ASP44      -0.2867
     73  CB        39.2080   49.1350   38.9270 C.3    44  ASP44       0.1410
     74  CG        38.1810   48.5870   37.9550 C.2    44  ASP44       0.3668
     75  OD1       37.9440   47.3610   37.9630 O.co2  44  ASP44      -0.2456
     76  OD2       37.6110   49.3800   37.1790 O.co2  44  ASP44      -0.2456
     77  N         43.7400   46.7420   35.9880 N.3    47  GLU47      -0.1245
     78  CA        43.1870   45.3980   35.8530 C.3    47  GLU47       0.1567
     79  C         42.1510   45.3160   34.7370 C.2    47  GLU47       0.2260
     80  O         41.9780   44.2700   34.1140 O.2    47  GLU47      -0.2867
     81  CB        42.5640   44.9730   37.1920 C.3    47  GLU47       0.0388
     82  CG        41.8000   43.6480   37.1940 C.3    47  GLU47       0.1160
     83  CD        40.3910   43.7690   36.6370 C.2    47  GLU47       0.3649
     84  OE1       39.7070   44.7670   36.9620 O.co2  47  GLU47      -0.2457
     85  OE2       39.9600   42.8610   35.8890 O.co2  47  GLU47      -0.2457
     86  N         41.9120   43.2910   47.7030 N.3   115  MET115     -0.1245
     87  CA        41.0910   43.3930   46.4990 C.3   115  MET115      0.1570
     88  C         41.9500   43.0150   45.3000 C.2   115  MET115      0.2261
     89  O         41.5170   42.2750   44.4200 O.2   115  MET115     -0.2867
     90  CB        40.5580   44.8180   46.3160 C.3   115  MET115      0.0387
     91  CG        39.6580   44.9690   45.0930 C.3   115  MET115      0.0595
     92  SD        39.0660   46.6640   44.8140 S.3   115  MET115     -0.1393
     93  CE        37.9810   46.8730   46.2630 C.3   115  MET115      0.0692
     94  N         41.2150   40.0500   42.4990 N.3   119  MET119     -0.1245
     95  CA        41.0870   40.2840   41.0640 C.3   119  MET119      0.1570
     96  C         41.9420   39.2640   40.3120 C.2   119  MET119      0.2261
     97  O         41.4860   38.6410   39.3530 O.2   119  MET119     -0.2867
     98  CB        41.5270   41.7080   40.7200 C.3   119  MET119      0.0387
     99  CG        40.5250   42.7770   41.1410 C.3   119  MET119      0.0595
    100  SD        41.1340   44.4630   40.9050 S.3   119  MET119     -0.1393
    101  CE        39.6470   45.4340   41.3030 C.3   119  MET119      0.0692
    102  N         33.0580   36.9600   43.9390 N.3   136  TYR136     -0.1241
    103  CA        33.5340   37.9920   43.0350 C.3   136  TYR136      0.1605
    104  C         33.0750   39.3580   43.5260 C.2   136  TYR136      0.2264
    105  O         33.8520   40.3060   43.5380 O.2   136  TYR136     -0.2867
    106  CB        33.0040   37.7600   41.6210 C.3   136  TYR136      0.0534
    107  CG        33.2240   38.9580   40.7260 C.ar  136  TYR136     -0.0201
    108  CD1       34.5120   39.3820   40.4050 C.ar  136  TYR136     -0.0009
    109  CD2       32.1450   39.6950   40.2340 C.ar  136  TYR136     -0.0009
    110  CE1       34.7230   40.5160   39.6190 C.ar  136  TYR136      0.0417
    111  CE2       32.3470   40.8300   39.4450 C.ar  136  TYR136      0.0417
    112  CZ        33.6390   41.2330   39.1440 C.ar  136  TYR136      0.1957
    113  OH        33.8510   42.3540   38.3760 O.3   136  TYR136     -0.2866
    114  N         35.3230   43.0160   44.8270 N.3   140  VAL140     -0.1245
    115  CA        35.2520   44.3730   44.2830 C.3   140  VAL140      0.1561
    116  C         34.2460   45.3010   44.9460 C.2   140  VAL140      0.2260
    117  O         34.3150   46.5100   44.7430 O.2   140  VAL140     -0.2867
    118  CB        34.9640   44.3530   42.7540 C.3   140  VAL140      0.0252
    119  CG1       35.9530   43.4220   42.0520 C.3   140  VAL140      0.0019
    120  CG2       33.5260   43.9090   42.4810 C.3   140  VAL140      0.0019
    121  N         34.9230   46.8600   49.7860 N.3   144  VAL144     -0.1245
    122  CA        34.8430   48.3120   49.8680 C.3   144  VAL144      0.1561
    123  C         33.9840   48.6070   51.0960 C.2   144  VAL144      0.2260
    124  O         34.2090   49.5800   51.7930 O.2   144  VAL144     -0.2867
    125  CB        34.2030   48.9290   48.5880 C.3   144  VAL144      0.0252
    126  CG1       34.1650   50.4600   48.7040 C.3   144  VAL144      0.0019
    127  CG2       35.0140   48.5210   47.3590 C.3   144  VAL144      0.0019
    128  N         35.2440   50.9180   54.2560 N.3   148  LEU148     -0.1245
    129  CA        34.5200   52.0940   54.7360 C.3   148  LEU148      0.1561
    130  C         34.1950   51.9350   56.2150 C.2   148  LEU148      0.2260
    131  O         34.3940   52.8580   57.0190 O.2   148  LEU148     -0.2867
    132  CB        33.2370   52.2910   53.9150 C.3   148  LEU148      0.0270
    133  CG        33.4610   52.7110   52.4550 C.3   148  LEU148      0.0019
    134  CD1       32.1200   52.7930   51.7200 C.3   148  LEU148      0.0001
    135  CD2       34.1700   54.0640   52.4190 C.3   148  LEU148      0.0001
    136  N         26.6750   46.3370   44.1240 N.3   177  GLN177     -0.1245
    137  CA        27.3120   45.6670   43.0070 C.3   177  GLN177      0.1566
    138  C         26.3470   44.8080   42.2150 C.2   177  GLN177      0.2260
    139  O         26.2680   44.9340   40.9930 O.2   177  GLN177     -0.2867
    140  CB        28.4880   44.8220   43.5010 C.3   177  GLN177      0.0367
    141  CG        29.2800   44.1290   42.4030 C.3   177  GLN177      0.0905
    142  CD        29.8270   45.0960   41.3720 C.2   177  GLN177      0.2608
    143  OE1       30.1660   46.2340   41.6910 O.2   177  GLN177     -0.2717
    144  NE2       29.9360   44.6370   40.1290 N.am  177  GLN177     -0.0878
    145  N         23.8990   46.7180   40.0690 N.3   180  ASN180     -0.1225
    146  CA        24.5040   47.2600   38.8510 C.3   180  ASN180      0.1785
    147  C         24.7290   46.1550   37.8120 C.2   180  ASN180      0.2597
    148  O         24.5360   46.3670   36.6130 O.2   180  ASN180     -0.2718
    149  CB        25.8330   47.9620   39.1560 C.3   180  ASN180      0.1169
    150  CG        25.6440   49.2740   39.9170 C.2   180  ASN180      0.2627
    151  OD1       24.5740   49.8820   39.8780 O.2   180  ASN180     -0.2716
    152  ND2       26.6920   49.7220   40.5920 N.am  180  ASN180     -0.0877
    153  N         25.1280   44.9750   38.2780 N.am  181  ILE181     -0.1980
    154  CA        25.3740   43.8420   37.3950 C.3   181  ILE181      0.1595
    155  C         24.0950   43.4130   36.7010 C.2   181  ILE181      0.2287
    156  O         24.1110   42.9980   35.5470 O.2   181  ILE181     -0.2864
    157  CB        25.9560   42.6500   38.1830 C.3   181  ILE181      0.0276
    158  CG1       27.4330   42.9090   38.4810 C.3   181  ILE181      0.0022
    159  CG2       25.7860   41.3610   37.4040 C.3   181  ILE181      0.0022
    160  CD1       28.0490   41.8850   39.3980 C.3   181  ILE181      0.0001
    161  N         23.1210   46.5070   34.2970 N.3   184  ASP184     -0.1239
    162  CA        24.0470   46.6630   33.1740 C.3   184  ASP184      0.1674
    163  C         24.2340   45.4460   32.2780 C.2   184  ASP184      0.2266
    164  O         25.2320   45.3600   31.5680 O.2   184  ASP184     -0.2867
    165  CB        25.4250   47.1020   33.6790 C.3   184  ASP184      0.1410
    166  CG        25.3960   48.4560   34.3480 C.2   184  ASP184      0.3668
    167  OD1       24.4430   49.2170   34.0970 O.co2 184  ASP184     -0.2456
    168  OD2       26.3300   48.7670   35.1140 O.co2 184  ASP184     -0.2456
    169  N         24.4070   46.3940   28.2740 N.3   187  GLU187     -0.1231
    170  CA        25.6130   47.1910   28.1080 C.3   187  GLU187      0.1699
    171  C         26.8860   46.3580   28.2610 C.2   187  GLU187      0.2592
    172  O         27.8580   46.5660   27.5350 O.2   187  GLU187     -0.2718
    173  CB        25.6210   48.3190   29.1330 C.3   187  GLU187      0.0402
    174  CG        26.7610   49.2910   28.9780 C.3   187  GLU187      0.1161
    175  CD        26.8000   50.2980   30.1000 C.2   187  GLU187      0.3649
    176  OE1       25.7520   50.9240   30.3700 O.co2 187  GLU187     -0.2457
    177  OE2       27.8780   50.4630   30.7080 O.co2 187  GLU187     -0.2457
    178  N         26.8800   45.4180   29.2030 N.am  188  ASP188     -0.1974
    179  CA        28.0480   44.5760   29.4410 C.3   188  ASP188      0.1709
    180  C         28.2290   43.4640   28.4170 C.2   188  ASP188      0.2293
    181  O         29.2890   42.8400   28.3500 O.2   188  ASP188     -0.2864
    182  CB        27.9940   43.9500   30.8380 C.3   188  ASP188      0.1436
    183  CG        28.1770   44.9670   31.9450 C.2   188  ASP188      0.3671
    184  OD1       28.9490   45.9300   31.7540 O.co2 188  ASP188     -0.2456
    185  OD2       27.5590   44.7910   33.0150 O.co2 188  ASP188     -0.2456
    186  N         31.2440   40.9960   28.0380 N.3   195  ARG195     -0.1245
    187  CA        31.4400   40.7250   29.4580 C.3   195  ARG195      0.1563
    188  C         30.2040   40.0580   30.0450 C.2   195  ARG195      0.2260
    189  O         29.0880   40.5540   29.8930 O.2   195  ARG195     -0.2867
    190  CB        31.6930   42.0170   30.2330 C.3   195  ARG195      0.0307
    191  CG        32.9360   42.7730   29.8460 C.3   195  ARG195      0.0489
    192  CD        33.1400   43.9210   30.8100 C.3   195  ARG195      0.2205
    193  NE        34.2510   44.7820   30.4270 N.pl3 195  ARG195     -0.0865
    194  CZ        34.6780   45.8120   31.1520 C.cat 195  ARG195      0.5346
    195  NH1       34.0850   46.1080   32.3030 N.pl3 195  ARG195      0.1354
    196  NH2       35.6930   46.5510   30.7240 N.pl3 195  ARG195      0.1354
    197  N         28.5400   38.4830   33.6190 N.3   197  PHE197     -0.1241
    198  CA        28.6820   38.5220   35.0660 C.3   197  PHE197      0.1605
    199  C         27.6620   37.6350   35.7460 C.2   197  PHE197      0.2264
    200  O         27.9220   37.1000   36.8190 O.2   197  PHE197     -0.2867
    201  CB        28.5690   39.9630   35.5660 C.3   197  PHE197      0.0534
    202  CG        29.8290   40.7500   35.3960 C.ar  197  PHE197     -0.0203
    203  CD1       30.9600   40.4380   36.1410 C.ar  197  PHE197     -0.0042
    204  CD2       29.9040   41.7790   34.4710 C.ar  197  PHE197     -0.0042
    205  CE1       32.1500   41.1400   35.9650 C.ar  197  PHE197     -0.0003
    206  CE2       31.0910   42.4860   34.2880 C.ar  197  PHE197     -0.0003
    207  CZ        32.2150   42.1630   35.0390 C.ar  197  PHE197     -0.0000
    208  N         25.8840   59.1730   53.8910 N.3   255  PHE255     -0.1241
    209  CA        26.7970   58.6540   52.8830 C.3   255  PHE255      0.1605
    210  C         26.5640   57.1630   52.6460 C.2   255  PHE255      0.2264
    211  O         26.6150   56.6810   51.5100 O.2   255  PHE255     -0.2867
    212  CB        28.2430   58.9220   53.3280 C.3   255  PHE255      0.0534
    213  CG        29.2810   58.1780   52.5330 C.ar  255  PHE255     -0.0203
    214  CD1       29.8430   56.9970   53.0340 C.ar  255  PHE255     -0.0042
    215  CD2       29.7010   58.6520   51.2880 C.ar  255  PHE255     -0.0042
    216  CE1       30.8180   56.2930   52.3050 C.ar  255  PHE255     -0.0003
    217  CE2       30.6710   57.9590   50.5470 C.ar  255  PHE255     -0.0003
    218  CZ        31.2310   56.7750   51.0560 C.ar  255  PHE255     -0.0000
@<TRIPOS>BOND
     1   172   171    2
     2   186   187    1
     3   170   171    1
     4   170   169    1
     5   170   173    1
     6   171   178   am
     7   181   180    2
     8   180   179    1
     9   174   173    1
    10   174   175    1
    11   178   179    1
    12   179   182    1
    13   187   188    1
    14   187   190    1
    15   191   190    1
    16   191   192    1
    17   189   188    2
    18   175   176   ar
    19   175   177   ar
    20   193   192    1
    21   193   194    2
    22   196   194    1
    23   182   183    1
    24   194   195    1
    25   164   163    2
    26   184   183   ar
    27   183   185   ar
    28   163   162    1
    29   162   165    1
    30   162   161    1
    31   197   198    1
    32   165   166    1
    33   167   166   ar
    34    80    79    2
    35   206   204   ar
    36   206   207   ar
    37   166   168   ar
    38   204   202   ar
    39    79    78    1
    40   207   205   ar
    41   198   201    1
    42   198   199    1
    43   202   201    1
    44   202   203   ar
    45   156   155    2
    46   199   200    2
    47    78    77    1
    48    78    81    1
    49    85    83   ar
    50   205   203   ar
    51    72    71    2
    52   148   147    2
    53    68    66    1
    54    83    84   ar
    55    83    82    1
    56   155   154    1
    57    76    74   ar
    58    81    82    1
    59    71    70    1
    60   154   157    1
    61   154   153    1
    62   159   157    1
    63   147   153   am
    64   147   146    1
    65    66    65    2
    66    66    67    1
    67    74    75   ar
    68    74    73    1
    69   157   158    1
    70    65    64    1
    71   113   112    1
    72   158   160    1
    73    70    73    1
    74    70    69    1
    75   146   149    1
    76   146   145    1
    77    61    60    2
    78   112   111   ar
    79   112   110   ar
    80   149   150    1
    81    97    96    2
    82   111   109   ar
    83    64    63    1
    84   110   108   ar
    85    63    62    1
    86   151   150    2
    87   150   152   am
    88   144   142   am
    89    60    59    1
    90   109   107   ar
    91    96    95    1
    92   108   107   ar
    93    98    95    1
    94    98    99    1
    95   107   106    1
    96    49    48    1
    97   100    99    1
    98   100   101    1
    99    62    59    1
   100   139   138    2
   101    95    94    1
   102    59    58    1
   103   142   143    2
   104   142   141    1
   105   106   103    1
   106    53    52    2
   107   119   118    1
   108    48    47   ar
   109    48    46   ar
   110   138   137    1
   111    47    45   ar
   112   141   140    1
   113    58    52   am
   114   120   118    1
   115   118   115    1
   116    52    51    1
   117   137   140    1
   118   137   136    1
   119   103   104    1
   120   103   102    1
   121    46    44   ar
   122     1     2    1
   123    45    43   ar
   124   104   105    2
   125    41    40    2
   126    51    50    1
   127    51    54    1
   128   115   114    1
   129   115   116    1
   130    89    88    2
   131    44    43   ar
   132     8    10   ar
   133     8     6   ar
   134    43    42    1
   135     2     3    1
   136     2     5    1
   137   117   116    2
   138    10    11   ar
   139    92    91    1
   140    92    93    1
   141     3     4    2
   142    40    39    1
   143    54    55    1
   144    91    90    1
   145     5     6    1
   146    88    87    1
   147     6     7   ar
   148    42    39    1
   149    11     9   ar
   150    39    38    1
   151    90    87    1
   152    55    57    1
   153    55    56    1
   154    87    86    1
   155     7     9   ar
   156    19    17    1
   157    30    29    2
   158   127   125    1
   159    38    29   am
   160    29    28    1
   161    16    17    1
   162    16    18    1
   163    16    13    1
   164    12    13    1
   165   125   126    1
   166   125   122    1
   167    13    14    1
   168    28    27    1
   169    28    31    1
   170    23    22    2
   171    14    15    2
   172   121   122    1
   173   122   123    1
   174    22    21    1
   175    33    35   ar
   176    33    32   ar
   177    35    37   ar
   178    31    32    1
   179    32    34   ar
   180   217   218   ar
   181   217   215   ar
   182    37    36   ar
   183    25    24    1
   184    34    36   ar
   185   218   216   ar
   186   123   124    2
   187   215   213   ar
   188   211   210    2
   189    21    24    1
   190    21    20    1
   191   134   133    1
   192    24    26    1
   193   216   214   ar
   194   135   133    1
   195   133   132    1
   196   213   214   ar
   197   213   212    1
   198   210   209    1
   199   209   212    1
   200   209   208    1
   201   132   129    1
   202   128   129    1
   203   129   130    1
   204   130   131    2
