@<TRIPOS>MOLECULE
tmp/3wcaD00.pdb
 212 203 0 0 0
SMALL
GASTEIGER

@<TRIPOS>ATOM
      1  N         65.6370   17.7330   16.5450 N.3    14  VAL14      -0.1231
      2  CA        64.5790   18.7360   16.4510 C.3    14  VAL14       0.1692
      3  C         63.3150   18.2600   15.7480 C.2    14  VAL14       0.2593
      4  O         62.2320   18.7950   15.9830 O.2    14  VAL14      -0.2718
      5  CB        65.0840   20.0150   15.7380 C.3    14  VAL14       0.0266
      6  CG1       66.2700   20.5910   16.4910 C.3    14  VAL14       0.0020
      7  CG2       65.4680   19.7020   14.2990 C.3    14  VAL14       0.0020
      8  N         63.4510   17.2540   14.8900 N.am   15  SER15      -0.1938
      9  CA        62.3090   16.7230   14.1520 C.3    15  SER15       0.2055
     10  C         62.3110   15.2070   14.0480 C.2    15  SER15       0.2643
     11  O         62.5680   14.6550   12.9820 O.2    15  SER15      -0.2714
     12  CB        62.2810   17.3010   12.7440 C.3    15  SER15       0.2130
     13  OG        61.4570   16.5030   11.9150 O.3    15  SER15      -0.2179
     14  N         62.0100   14.5390   15.1520 N.am   16  ARG16      -0.1963
     15  CA        61.9760   13.0810   15.1920 C.3    16  ARG16       0.1729
     16  C         61.3560   12.4270   13.9510 C.2    16  ARG16       0.2617
     17  O         62.0000   11.6140   13.2850 O.2    16  ARG16      -0.2715
     18  CB        61.2100   12.6240   16.4320 C.3    16  ARG16       0.0348
     19  CG        59.8450   13.2840   16.5770 C.3    16  ARG16       0.0492
     20  CD        58.9280   12.4450   17.4420 C.3    16  ARG16       0.2205
     21  NE        59.4600   12.2450   18.7870 N.pl3  16  ARG16      -0.0865
     22  CZ        58.9350   11.4090   19.6780 C.cat  16  ARG16       0.5346
     23  NH1       57.8640   10.6910   19.3640 N.pl3  16  ARG16       0.1354
     24  NH2       59.4730   11.2970   20.8850 N.pl3  16  ARG16       0.1354
     25  N         60.1090   12.7840   13.6500 N.am   17  SER17      -0.1936
     26  CA        59.3830   12.2190   12.5110 C.3    17  SER17       0.2055
     27  C         60.0250   12.5040   11.1570 C.2    17  SER17       0.2643
     28  O         60.5520   11.6020   10.5050 O.2    17  SER17      -0.2714
     29  CB        57.9360   12.7300   12.5010 C.3    17  SER17       0.2130
     30  OG        57.8800   14.1400   12.3690 O.3    17  SER17      -0.2179
     31  N         59.9700   13.7610   10.7360 N.am   18  PHE18      -0.1973
     32  CA        60.5350   14.1600    9.4580 C.3    18  PHE18       0.1639
     33  C         61.9630   13.6420    9.2810 C.2    18  PHE18       0.2290
     34  O         62.4370   13.4770    8.1590 O.2    18  PHE18      -0.2864
     35  CB        60.5140   15.6830    9.3350 C.3    18  PHE18       0.0560
     36  CG        60.7540   16.1790    7.9410 C.ar   18  PHE18      -0.0200
     37  CD1       59.8130   15.9610    6.9440 C.ar   18  PHE18      -0.0042
     38  CD2       61.9250   16.8620    7.6230 C.ar   18  PHE18      -0.0042
     39  CE1       60.0310   16.4160    5.6470 C.ar   18  PHE18      -0.0003
     40  CE2       62.1560   17.3220    6.3280 C.ar   18  PHE18      -0.0003
     41  CZ        61.2060   17.0980    5.3380 C.ar   18  PHE18      -0.0000
     42  N         65.3970   22.1030    5.5360 N.3    37  TYR37      -0.1241
     43  CA        64.5670   21.9740    6.7310 C.3    37  TYR37       0.1605
     44  C         65.1500   22.7360    7.9190 C.2    37  TYR37       0.2264
     45  O         64.4310   23.4360    8.6320 O.2    37  TYR37      -0.2867
     46  CB        64.4050   20.5030    7.1230 C.3    37  TYR37       0.0534
     47  CG        63.5780   20.3210    8.3770 C.ar   37  TYR37      -0.0201
     48  CD1       62.1840   20.3300    8.3260 C.ar   37  TYR37      -0.0009
     49  CD2       64.1900   20.2070    9.6240 C.ar   37  TYR37      -0.0009
     50  CE1       61.4180   20.2330    9.4900 C.ar   37  TYR37       0.0417
     51  CE2       63.4390   20.1120   10.7940 C.ar   37  TYR37       0.0417
     52  CZ        62.0550   20.1250   10.7210 C.ar   37  TYR37       0.1957
     53  OH        61.3110   20.0300   11.8790 O.3    37  TYR37      -0.2866
     54  N         63.8760   25.8320    9.9700 N.3    41  ARG41      -0.1245
     55  CA        63.6410   25.5480   11.3770 C.3    41  ARG41       0.1563
     56  C         64.2630   26.6730   12.1940 C.2    41  ARG41       0.2260
     57  O         63.6920   27.1240   13.1870 O.2    41  ARG41      -0.2867
     58  CB        64.2550   24.1980   11.7590 C.3    41  ARG41       0.0307
     59  CG        63.6520   23.5790   13.0130 C.3    41  ARG41       0.0489
     60  CD        62.1440   23.8140   13.0610 C.3    41  ARG41       0.2205
     61  NE        61.4170   22.7940   13.8130 N.pl3  41  ARG41      -0.0865
     62  CZ        61.7390   22.3770   15.0340 C.cat  41  ARG41       0.5346
     63  NH1       61.0030   21.4450   15.6280 N.pl3  41  ARG41       0.1354
     64  NH2       62.7970   22.8770   15.6560 N.pl3  41  ARG41       0.1354
     65  N         54.0120   29.3220    6.3410 N.3   140  VAL140     -0.1231
     66  CA        54.7420   28.3900    7.2000 C.3   140  VAL140      0.1692
     67  C         54.8160   26.9480    6.6980 C.2   140  VAL140      0.2591
     68  O         55.7260   26.2080    7.0700 O.2   140  VAL140     -0.2718
     69  CB        54.1560   28.3820    8.6360 C.3   140  VAL140      0.0266
     70  CG1       54.2450   29.7720    9.2360 C.3   140  VAL140      0.0020
     71  CG2       52.7150   27.9080    8.6160 C.3   140  VAL140      0.0020
     72  N         53.8680   26.5550    5.8520 N.am  141  ALA141     -0.1980
     73  CA        53.8340   25.1930    5.3290 C.3   141  ALA141      0.1597
     74  C         53.6770   25.1140    3.8070 C.2   141  ALA141      0.2287
     75  O         54.3280   24.2960    3.1530 O.2   141  ALA141     -0.2864
     76  CB        52.7140   24.4200    6.0060 C.3   141  ALA141      0.0319
     77  N         56.6980   25.4890    1.8340 N.3   144  VAL144     -0.1231
     78  CA        57.5770   24.3390    2.0010 C.3   144  VAL144      0.1692
     79  C         57.3200   23.4450    0.8000 C.2   144  VAL144      0.2592
     80  O         58.2480   22.9330    0.1790 O.2   144  VAL144     -0.2718
     81  CB        57.2590   23.5600    3.2910 C.3   144  VAL144      0.0266
     82  CG1       58.1820   22.3550    3.4010 C.3   144  VAL144      0.0020
     83  CG2       57.4150   24.4710    4.5010 C.3   144  VAL144      0.0020
     84  N         56.0420   23.2770    0.4720 N.am  145  GLY145     -0.1957
     85  CA        55.6720   22.4710   -0.6800 C.3   145  GLY145      0.1869
     86  C         56.3160   23.0430   -1.9300 C.2   145  GLY145      0.2309
     87  O         56.9110   22.3030   -2.7190 O.2   145  GLY145     -0.2863
     88  N         60.0490   22.1450   -1.7860 N.3   148  LEU148     -0.1231
     89  CA        60.2730   20.7360   -2.0770 C.3   148  LEU148      0.1693
     90  C         60.0400   20.4500   -3.5590 C.2   148  LEU148      0.2592
     91  O         60.8900   19.8580   -4.2240 O.2   148  LEU148     -0.2718
     92  CB        59.3510   19.8590   -1.2190 C.3   148  LEU148      0.0284
     93  CG        59.6610   19.8570    0.2850 C.3   148  LEU148      0.0019
     94  CD1       58.6680   18.9580    1.0030 C.3   148  LEU148      0.0001
     95  CD2       61.0980   19.3860    0.5350 C.3   148  LEU148      0.0001
     96  N         58.8940   20.8890   -4.0730 N.am  149  THR149     -0.1953
     97  CA        58.5520   20.6750   -5.4780 C.3   149  THR149      0.1897
     98  C         59.6450   21.2000   -6.4080 C.2   149  THR149      0.2313
     99  O         60.0660   20.5090   -7.3390 O.2   149  THR149     -0.2863
    100  CB        57.2240   21.3640   -5.8370 C.3   149  THR149      0.1794
    101  OG1       56.1780   20.8670   -4.9870 O.3   149  THR149     -0.2208
    102  CG2       56.8670   21.0970   -7.2990 C.3   149  THR149      0.0378
    103  N         62.6180   18.9430   -6.2580 N.3   152  TYR152     -0.1241
    104  CA        62.4290   17.6910   -6.9920 C.3   152  TYR152      0.1605
    105  C         62.6890   17.9330   -8.4820 C.2   152  TYR152      0.2264
    106  O         63.2950   17.1000   -9.1660 O.2   152  TYR152     -0.2867
    107  CB        60.9960   17.1480   -6.8520 C.3   152  TYR152      0.0534
    108  CG        60.4540   16.9190   -5.4510 C.ar  152  TYR152     -0.0201
    109  CD1       61.2910   16.5960   -4.3820 C.ar  152  TYR152     -0.0009
    110  CD2       59.0760   16.9730   -5.2160 C.ar  152  TYR152     -0.0009
    111  CE1       60.7660   16.3330   -3.1100 C.ar  152  TYR152      0.0417
    112  CE2       58.5420   16.7130   -3.9640 C.ar  152  TYR152      0.0417
    113  CZ        59.3880   16.3940   -2.9110 C.ar  152  TYR152      0.1957
    114  OH        58.8400   16.1490   -1.6720 O.3   152  TYR152     -0.2866
    115  N         50.9270   21.8350   -4.7710 N.3   169  ALA169     -0.1245
    116  CA        52.0820   21.7790   -3.8910 C.3   169  ALA169      0.1562
    117  C         51.7510   22.5380   -2.6030 C.2   169  ALA169      0.2260
    118  O         52.2180   22.1840   -1.5220 O.2   169  ALA169     -0.2867
    119  CB        53.2780   22.4090   -4.5710 C.3   169  ALA169      0.0290
    120  N         49.2550   20.5510   -0.3850 N.3   172  MET172     -0.1230
    121  CA        49.9520   19.5010    0.3490 C.3   172  MET172      0.1702
    122  C         50.4030   20.0830    1.6870 C.2   172  MET172      0.2592
    123  O         50.0950   19.5470    2.7500 O.2   172  MET172     -0.2718
    124  CB        51.1780   19.0350   -0.4370 C.3   172  MET172      0.0401
    125  CG        50.8750   18.2180   -1.6780 C.3   172  MET172      0.0596
    126  SD        50.7290   16.4460   -1.3470 S.3   172  MET172     -0.1393
    127  CE        52.4480   16.0190   -1.1340 C.3   172  MET172      0.0692
    128  N         51.1330   21.1920    1.6060 N.am  173  GLY173     -0.1957
    129  CA        51.6450   21.8600    2.7900 C.3   173  GLY173      0.1869
    130  C         50.5860   22.2700    3.7920 C.2   173  GLY173      0.2309
    131  O         50.8230   22.2110    4.9990 O.2   173  GLY173     -0.2863
    132  N         48.9450   19.2970    5.8500 N.3   176  LEU176     -0.1231
    133  CA        49.7660   18.8480    6.9620 C.3   176  LEU176      0.1693
    134  C         49.6270   19.8010    8.1400 C.2   176  LEU176      0.2591
    135  O         49.2970   19.3820    9.2510 O.2   176  LEU176     -0.2718
    136  CB        51.2410   18.7520    6.5510 C.3   176  LEU176      0.0284
    137  CG        51.6350   17.6700    5.5410 C.3   176  LEU176      0.0019
    138  CD1       53.1480   17.6510    5.3610 C.3   176  LEU176      0.0001
    139  CD2       51.1560   16.3180    6.0400 C.3   176  LEU176      0.0001
    140  N         49.8630   21.0860    7.8890 N.am  177  GLN177     -0.1979
    141  CA        49.7970   22.0970    8.9380 C.3   177  GLN177      0.1601
    142  C         48.4430   22.1450    9.6230 C.2   177  GLN177      0.2287
    143  O         48.3610   22.2020   10.8460 O.2   177  GLN177     -0.2864
    144  CB        50.1260   23.4780    8.3710 C.3   177  GLN177      0.0394
    145  CG        50.3100   24.5390    9.4390 C.3   177  GLN177      0.0908
    146  CD        51.4650   24.2270   10.3720 C.2   177  GLN177      0.2608
    147  OE1       52.6070   24.0850    9.9400 O.2   177  GLN177     -0.2717
    148  NE2       51.1710   24.1220   11.6600 N.am  177  GLN177     -0.0878
    149  N         47.9060   19.3050   11.8370 N.3   180  ASN180     -0.1240
    150  CA        48.7720   19.5230   12.9930 C.3   180  ASN180      0.1653
    151  C         48.1170   20.5190   13.9570 C.2   180  ASN180      0.2266
    152  O         48.1360   20.3270   15.1760 O.2   180  ASN180     -0.2867
    153  CB        50.1290   20.0760   12.5410 C.3   180  ASN180      0.1155
    154  CG        51.2070   19.0120   12.4740 C.2   180  ASN180      0.2627
    155  OD1       51.0110   17.9460   11.8880 O.2   180  ASN180     -0.2716
    156  ND2       52.3620   19.3040   13.0690 N.am  180  ASN180     -0.0877
    157  N         45.0760   18.7710   15.8590 N.3   183  ARG183     -0.1245
    158  CA        45.5610   17.8250   16.8540 C.3   183  ARG183      0.1563
    159  C         46.3930   18.4560   17.9790 C.2   183  ARG183      0.2260
    160  O         46.2370   18.0820   19.1420 O.2   183  ARG183     -0.2867
    161  CB        46.3630   16.7240   16.1460 C.3   183  ARG183      0.0307
    162  CG        46.6930   15.4940   16.9890 C.3   183  ARG183      0.0489
    163  CD        47.7830   15.7870   18.0050 C.3   183  ARG183      0.2205
    164  NE        48.9280   16.4450   17.3810 N.pl3 183  ARG183     -0.0865
    165  CZ        49.7330   15.8680   16.4940 C.cat 183  ARG183      0.5346
    166  NH1       49.5200   14.6110   16.1240 N.pl3 183  ARG183      0.1354
    167  NH2       50.7420   16.5550   15.9710 N.pl3 183  ARG183      0.1354
    168  N         48.3820   15.6550   -6.5450 N.3   243  TYR243     -0.1241
    169  CA        49.8180   15.8850   -6.5070 C.3   243  TYR243      0.1605
    170  C         50.6220   14.5900   -6.4250 C.2   243  TYR243      0.2264
    171  O         51.5770   14.3980   -7.1750 O.2   243  TYR243     -0.2867
    172  CB        50.1710   16.7770   -5.3170 C.3   243  TYR243      0.0534
    173  CG        51.6340   17.1410   -5.2450 C.ar  243  TYR243     -0.0201
    174  CD1       52.5740   16.2350   -4.7670 C.ar  243  TYR243     -0.0009
    175  CD2       52.0840   18.3890   -5.6810 C.ar  243  TYR243     -0.0009
    176  CE1       53.9230   16.5540   -4.7220 C.ar  243  TYR243      0.0417
    177  CE2       53.4370   18.7160   -5.6380 C.ar  243  TYR243      0.0417
    178  CZ        54.3460   17.7880   -5.1580 C.ar  243  TYR243      0.1957
    179  OH        55.6820   18.0830   -5.1370 O.3   243  TYR243     -0.2866
    180  N         58.7750    9.8380    0.1720 N.3   255  PHE255     -0.1227
    181  CA        59.0070   10.9820    1.0400 C.3   255  PHE255      0.1736
    182  C         57.8080   11.9320    1.0500 C.2   255  PHE255      0.2596
    183  O         57.5190   12.5740    2.0580 O.2   255  PHE255     -0.2718
    184  CB        60.2750   11.7030    0.5820 C.3   255  PHE255      0.0547
    185  CG        60.4870   13.0480    1.2200 C.ar  255  PHE255     -0.0202
    186  CD1       59.8920   14.1900    0.6850 C.ar  255  PHE255     -0.0042
    187  CD2       61.3240   13.1840    2.3270 C.ar  255  PHE255     -0.0042
    188  CE1       60.1310   15.4560    1.2390 C.ar  255  PHE255     -0.0003
    189  CE2       61.5730   14.4450    2.8930 C.ar  255  PHE255     -0.0003
    190  CZ        60.9750   15.5840    2.3440 C.ar  255  PHE255     -0.0000
    191  N         57.0960   11.9870   -0.0710 N.am  256  SER256     -0.1952
    192  CA        55.9380   12.8590   -0.2190 C.3   256  SER256      0.1924
    193  C         54.6080   12.2890    0.2670 C.2   256  SER256      0.2314
    194  O         53.7820   13.0100    0.8200 O.2   256  SER256     -0.2863
    195  CB        55.7910   13.2720   -1.6870 C.3   256  SER256      0.2116
    196  OG        56.9570   13.9330   -2.1440 O.3   256  SER256     -0.2180
    197  N         53.9680   11.5050    4.9020 N.3   259  PRO259     -0.2102
    198  CA        53.4340   12.5150    5.8280 C.3   259  PRO259      0.1504
    199  C         51.9500   12.7670    5.5420 C.2   259  PRO259      0.2575
    200  O         51.1350   12.9310    6.4580 O.2   259  PRO259     -0.2718
    201  CB        54.2960   13.7420    5.5410 C.3   259  PRO259      0.0282
    202  CG        55.5960   13.1430    5.0680 C.3   259  PRO259      0.0208
    203  CD        55.1120   12.0400    4.1470 C.3   259  PRO259      0.0893
    204  N         51.6090   12.7680    4.2600 N.am  260  GLN260     -0.1980
    205  CA        50.2400   12.9910    3.8260 C.3   260  GLN260      0.1601
    206  C         49.2970   11.9110    4.3330 C.2   260  GLN260      0.2287
    207  O         48.1900   12.2110    4.7690 O.2   260  GLN260     -0.2864
    208  CB        50.1800   13.0540    2.3000 C.3   260  GLN260      0.0394
    209  CG        50.9490   14.2230    1.7070 C.3   260  GLN260      0.0908
    210  CD        50.4860   15.5740    2.2610 C.2   260  GLN260      0.2608
    211  OE1       49.2900   15.8150    2.4190 O.2   260  GLN260     -0.2717
    212  NE2       51.4360   16.4580    2.5410 N.am  260  GLN260     -0.0878
@<TRIPOS>BOND
     1   106   105    2
     2   105   104    1
     3    99    98    2
     4   102   100    1
     5   171   170    2
     6   104   107    1
     7   104   103    1
     8   107   108    1
     9   168   169    1
    10   169   170    1
    11   169   172    1
    12    98    97    1
    13   100    97    1
    14   100   101    1
    15   175   177   ar
    16   175   173   ar
    17   177   178   ar
    18    97    96    1
    19   108   110   ar
    20   108   109   ar
    21   172   173    1
    22   173   174   ar
    23   110   112   ar
    24   178   179    1
    25   178   176   ar
    26   115   116    1
    27   174   176   ar
    28   119   116    1
    29   109   111   ar
    30    91    90    2
    31    96    90   am
    32   112   113   ar
    33   116   117    1
    34    90    89    1
    35   111   113   ar
    36   113   114    1
    37    87    86    2
    38   117   118    2
    39   196   195    1
    40    89    88    1
    41    89    92    1
    42    86    85    1
    43   195   192    1
    44   125   126    1
    45   125   124    1
    46   126   127    1
    47    92    93    1
    48    85    84    1
    49   124   121    1
    50   120   121    1
    51   192   191    1
    52   192   193    1
    53   191   182   am
    54   180   181    1
    55    80    79    2
    56   193   194    2
    57    93    95    1
    58    93    94    1
    59   121   122    1
    60    84    79   am
    61   184   181    1
    62   184   185    1
    63   186   185   ar
    64   186   188   ar
    65    79    78    1
    66   181   182    1
    67   182   183    2
    68   185   187   ar
    69   188   190   ar
    70   128   122   am
    71   128   129    1
    72   122   123    2
    73   209   210    1
    74   209   208    1
    75    77    78    1
    76    78    81    1
    77   210   211    2
    78   210   212   am
    79   208   205    1
    80   187   189   ar
    81   190   189   ar
    82   129   130    1
    83    75    74    2
    84    81    82    1
    85    81    83    1
    86   130   131    2
    87    74    73    1
    88   205   204    1
    89   205   206    1
    90   203   197    1
    91   203   202    1
    92   204   199   am
    93   206   207    2
    94   197   198    1
    95   202   201    1
    96    73    72    1
    97    73    76    1
    98    41    39   ar
    99    41    40   ar
   100   138   137    1
   101    42    43    1
   102   137   139    1
   103   137   136    1
   104   201   198    1
   105   199   198    1
   106   199   200    2
   107    39    37   ar
   108   132   133    1
   109    72    67   am
   110    40    38   ar
   111    65    66    1
   112   136   133    1
   113    67    68    2
   114    67    66    1
   115    43    46    1
   116    43    44    1
   117    37    36   ar
   118   133   134    1
   119    46    47    1
   120    66    69    1
   121    38    36   ar
   122   140   134   am
   123   140   141    1
   124    44    45    2
   125    36    35    1
   126   134   135    2
   127    34    33    2
   128    48    47   ar
   129    48    50   ar
   130   144   141    1
   131   144   145    1
   132    47    49   ar
   133    71    69    1
   134    69    70    1
   135   141   142    1
   136    33    32    1
   137    35    32    1
   138   145   146    1
   139    32    31    1
   140    50    52   ar
   141   142   143    2
   142    49    51   ar
   143   147   146    2
   144    54    55    1
   145   146   148   am
   146    28    27    2
   147    52    51   ar
   148    52    53    1
   149    31    27   am
   150    27    26    1
   151    55    58    1
   152    55    56    1
   153    58    59    1
   154   149   150    1
   155   155   154    2
   156    13    12    1
   157    56    57    2
   158    30    29    1
   159   154   153    1
   160   154   156   am
   161    29    26    1
   162    26    25    1
   163   153   150    1
   164    12     9    1
   165    11    10    2
   166   150   151    1
   167    59    60    1
   168    60    61    1
   169    17    16    2
   170    25    16   am
   171    61    62    2
   172    16    15    1
   173   151   152    2
   174    10     9    1
   175    10    14   am
   176     9     8    1
   177     7     5    1
   178     8     3   am
   179    62    63    1
   180    62    64    1
   181    14    15    1
   182    15    18    1
   183     5     2    1
   184     5     6    1
   185     3     4    2
   186     3     2    1
   187   157   158    1
   188   167   165    1
   189   166   165    1
   190   161   158    1
   191   161   162    1
   192    18    19    1
   193     2     1    1
   194   165   164    2
   195    19    20    1
   196   158   159    1
   197   162   163    1
   198   164   163    1
   199    20    21    1
   200   159   160    2
   201    21    22    2
   202    23    22    1
   203    22    24    1
