@<TRIPOS>MOLECULE
tmp/3wcbD00.pdb
 92 88 0 0 0
SMALL
GASTEIGER

@<TRIPOS>ATOM
      1  N         -2.1490  -63.6300   -7.5440 N.3    14  VAL14      -0.1231
      2  CA        -1.8000  -65.0450   -7.5220 C.3    14  VAL14       0.1692
      3  C         -2.9770  -65.8630   -7.0090 C.2    14  VAL14       0.2593
      4  O         -3.6590  -66.5430   -7.7760 O.2    14  VAL14      -0.2718
      5  CB        -0.5790  -65.3040   -6.6130 C.3    14  VAL14       0.0266
      6  CG1       -0.2450  -66.7840   -6.5970 C.3    14  VAL14       0.0020
      7  CG2        0.6140  -64.5020   -7.1030 C.3    14  VAL14       0.0020
      8  N         -3.2120  -65.7870   -5.7040 N.am   15  SER15      -0.1938
      9  CA        -4.3020  -66.5180   -5.0790 C.3    15  SER15       0.2055
     10  C         -5.5390  -65.6340   -5.0030 C.2    15  SER15       0.2643
     11  O         -5.6190  -64.7500   -4.1560 O.2    15  SER15      -0.2714
     12  CB        -3.9050  -66.9470   -3.6650 C.3    15  SER15       0.2130
     13  OG        -4.1730  -65.9270   -2.7200 O.3    15  SER15      -0.2179
     14  N         -6.4980  -65.8460   -5.8960 N.am   16  ARG16      -0.1963
     15  CA        -7.7120  -65.0460   -5.8440 C.3    16  ARG16       0.1729
     16  C         -8.6430  -65.7310   -4.8540 C.2    16  ARG16       0.2617
     17  O         -9.6570  -65.1710   -4.4390 O.2    16  ARG16      -0.2715
     18  CB        -8.3670  -64.9470   -7.2230 C.3    16  ARG16       0.0348
     19  CG        -9.6490  -64.1300   -7.2250 C.3    16  ARG16       0.0492
     20  CD        -9.8940  -63.4330   -8.5560 C.3    16  ARG16       0.2205
     21  NE        -8.9890  -62.3040   -8.7620 N.pl3  16  ARG16      -0.0865
     22  CZ        -7.7340  -62.4080   -9.1910 C.cat  16  ARG16       0.5346
     23  NH1       -6.9920  -61.3190   -9.3400 N.pl3  16  ARG16       0.1354
     24  NH2       -7.2250  -63.5960   -9.4880 N.pl3  16  ARG16       0.1354
     25  N         -8.2740  -66.9510   -4.4730 N.am   17  SER17      -0.1936
     26  CA        -9.0460  -67.7350   -3.5190 C.3    17  SER17       0.2055
     27  C         -8.6230  -67.3560   -2.1010 C.2    17  SER17       0.2643
     28  O         -9.4310  -66.8790   -1.3040 O.2    17  SER17      -0.2714
     29  CB        -8.8040  -69.2310   -3.7440 C.3    17  SER17       0.2130
     30  OG        -9.1510  -69.6180   -5.0630 O.3    17  SER17      -0.2179
     31  N         -7.3450  -67.5660   -1.8030 N.am   18  PHE18      -0.1973
     32  CA        -6.7840  -67.2630   -0.4900 C.3    18  PHE18       0.1639
     33  C         -6.8360  -65.7680   -0.1830 C.2    18  PHE18       0.2290
     34  O         -7.1360  -65.3670    0.9420 O.2    18  PHE18      -0.2864
     35  CB        -5.3310  -67.7480   -0.4270 C.3    18  PHE18       0.0560
     36  CG        -4.6860  -67.5820    0.9220 C.ar   18  PHE18      -0.0200
     37  CD1       -5.0840  -68.3650    2.0020 C.ar   18  PHE18      -0.0042
     38  CD2       -3.6740  -66.6450    1.1120 C.ar   18  PHE18      -0.0042
     39  CE1       -4.4810  -68.2190    3.2520 C.ar   18  PHE18      -0.0003
     40  CE2       -3.0650  -66.4900    2.3570 C.ar   18  PHE18      -0.0003
     41  CZ        -3.4690  -67.2800    3.4290 C.ar   18  PHE18      -0.0000
     42  N          2.3790  -66.8480    3.2640 N.3    37  TYR37      -0.1241
     43  CA         1.8480  -67.4290    2.0360 C.3    37  TYR37       0.1605
     44  C          2.7570  -67.1220    0.8500 C.2    37  TYR37       0.2264
     45  O          3.0930  -68.0120    0.0690 O.2    37  TYR37      -0.2867
     46  CB         0.4450  -66.8900    1.7490 C.3    37  TYR37       0.0534
     47  CG        -0.2170  -67.5460    0.5570 C.ar   37  TYR37      -0.0201
     48  CD1       -0.6640  -68.8660    0.6240 C.ar   37  TYR37      -0.0009
     49  CD2       -0.3720  -66.8580   -0.6450 C.ar   37  TYR37      -0.0009
     50  CE1       -1.2500  -69.4840   -0.4780 C.ar   37  TYR37       0.0417
     51  CE2       -0.9550  -67.4680   -1.7540 C.ar   37  TYR37       0.0417
     52  CZ        -1.3910  -68.7800   -1.6630 C.ar   37  TYR37       0.1957
     53  OH        -1.9650  -69.3880   -2.7550 O.3    37  TYR37      -0.2866
     54  N          4.5060  -69.5950   -1.5260 N.3    41  ARG41      -0.1245
     55  CA         4.0890  -69.4870   -2.9190 C.3    41  ARG41       0.1563
     56  C          5.3250  -69.2860   -3.7880 C.2    41  ARG41       0.2260
     57  O          5.3890  -69.7710   -4.9180 O.2    41  ARG41      -0.2867
     58  CB         3.1300  -68.3090   -3.1110 C.3    41  ARG41       0.0307
     59  CG         2.4190  -68.3260   -4.4550 C.3    41  ARG41       0.0489
     60  CD         1.4930  -69.5290   -4.5520 C.3    41  ARG41       0.2205
     61  NE         1.0360  -69.7820   -5.9160 N.pl3  41  ARG41      -0.0865
     62  CZ        -0.2420  -69.8420   -6.2750 C.cat  41  ARG41       0.5346
     63  NH1       -1.1940  -69.6640   -5.3710 N.pl3  41  ARG41       0.1354
     64  NH2       -0.5690  -70.0890   -7.5370 N.pl3  41  ARG41       0.1354
     65  N         -8.4030  -81.1040   -3.3330 N.3   180  ASN180     -0.1240
     66  CA        -7.9550  -80.4910   -4.5780 C.3   180  ASN180      0.1653
     67  C         -7.3750  -81.5490   -5.5060 C.2   180  ASN180      0.2266
     68  O         -7.7570  -81.6400   -6.6720 O.2   180  ASN180     -0.2867
     69  CB        -6.8990  -79.4150   -4.3080 C.3   180  ASN180      0.1155
     70  CG        -7.4260  -78.2810   -3.4550 C.2   180  ASN180      0.2627
     71  OD1       -8.5830  -77.8800   -3.5830 O.2   180  ASN180     -0.2716
     72  ND2       -6.5730  -77.7450   -2.5890 N.am  180  ASN180     -0.0877
     73  N        -10.0960  -83.3640   -7.0140 N.3   183  ARG183     -0.1245
     74  CA       -10.8710  -82.5140   -7.9100 C.3   183  ARG183      0.1563
     75  C        -10.1040  -82.0990   -9.1660 C.2   183  ARG183      0.2260
     76  O        -10.6630  -82.0830  -10.2630 O.2   183  ARG183     -0.2867
     77  CB       -11.3510  -81.2710   -7.1460 C.3   183  ARG183      0.0307
     78  CG       -12.3600  -80.3980   -7.8920 C.3   183  ARG183      0.0489
     79  CD       -11.6960  -79.5370   -8.9560 C.3   183  ARG183      0.2205
     80  NE       -10.8070  -78.5350   -8.3760 N.pl3 183  ARG183     -0.0865
     81  CZ       -11.2210  -77.4650   -7.7040 C.cat 183  ARG183      0.5346
     82  NH1      -12.5170  -77.2490   -7.5270 N.pl3 183  ARG183      0.1354
     83  NH2      -10.3360  -76.6100   -7.2070 N.pl3 183  ARG183      0.1354
     84  N        -13.6860  -79.1820  -14.7640 N.3   280  LYS280     -0.1245
     85  CA       -13.4570  -78.7580  -13.3880 C.3   280  LYS280      0.1561
     86  C        -14.7780  -78.5440  -12.6580 C.2   280  LYS280      0.2260
     87  O        -15.5630  -77.6650  -13.0190 O.2   280  LYS280     -0.2867
     88  CB       -12.6420  -77.4620  -13.3740 C.3   280  LYS280      0.0271
     89  CG       -12.3600  -76.9070  -11.9880 C.3   280  LYS280      0.0035
     90  CD       -11.6010  -75.5940  -12.0790 C.3   280  LYS280      0.0206
     91  CE       -11.3470  -74.9980  -10.7060 C.3   280  LYS280      0.1093
     92  NZ       -10.6560  -73.6820  -10.8010 N.3   280  LYS280     -0.1314
@<TRIPOS>BOND
     1    84    85    1
     2    85    88    1
     3    85    86    1
     4    88    89    1
     5    87    86    2
     6    90    89    1
     7    90    91    1
     8    92    91    1
     9    76    75    2
    10    24    22    1
    11    23    22    1
    12    22    21    2
    13    75    74    1
    14    79    80    1
    15    79    78    1
    16    21    20    1
    17    20    19    1
    18    80    81    2
    19    74    77    1
    20    74    73    1
    21    78    77    1
    22     4     3    2
    23    81    82    1
    24    81    83    1
    25     1     2    1
    26    64    62    1
    27     2     3    1
    28     2     5    1
    29    19    18    1
    30    18    15    1
    31     7     5    1
    32     3     8   am
    33    68    67    2
    34     5     6    1
    35    62    61    2
    36    62    63    1
    37    61    60    1
    38    14    15    1
    39    14    10   am
    40    15    16    1
    41     8     9    1
    42    67    66    1
    43     9    10    1
    44     9    12    1
    45    30    29    1
    46    10    11    2
    47    57    56    2
    48    16    25   am
    49    16    17    2
    50    66    69    1
    51    66    65    1
    52    60    59    1
    53    25    26    1
    54    59    58    1
    55    69    70    1
    56    56    55    1
    57    29    26    1
    58    12    13    1
    59    71    70    2
    60    26    27    1
    61    70    72   am
    62    58    55    1
    63    55    54    1
    64    53    52    1
    65    27    31   am
    66    27    28    2
    67    31    32    1
    68    51    52   ar
    69    51    49   ar
    70    52    50   ar
    71    49    47   ar
    72    32    35    1
    73    32    33    1
    74    50    48   ar
    75    35    36    1
    76    33    34    2
    77    45    44    2
    78    47    48   ar
    79    47    46    1
    80    44    43    1
    81    36    38   ar
    82    36    37   ar
    83    38    40   ar
    84    46    43    1
    85    37    39   ar
    86    43    42    1
    87    40    41   ar
    88    39    41   ar
