@<TRIPOS>MOLECULE
tmp/3wcbB00.pdb
 89 86 0 0 0
SMALL
GASTEIGER

@<TRIPOS>ATOM
      1  N        -21.6950  -45.5250  -43.1560 N.3    14  VAL14      -0.1231
      2  CA       -20.3930  -44.8840  -43.2930 C.3    14  VAL14       0.1692
      3  C        -19.2900  -45.8010  -42.7800 C.2    14  VAL14       0.2593
      4  O        -18.1960  -45.8560  -43.3430 O.2    14  VAL14      -0.2718
      5  CB       -20.3410  -43.5560  -42.5120 C.3    14  VAL14       0.0266
      6  CG1      -19.0270  -42.8480  -42.7800 C.3    14  VAL14       0.0020
      7  CG2      -21.5060  -42.6720  -42.9160 C.3    14  VAL14       0.0020
      8  N        -19.5890  -46.5220  -41.7060 N.am   15  SER15      -0.1938
      9  CA       -18.6290  -47.4400  -41.1140 C.3    15  SER15       0.2055
     10  C        -19.2570  -48.8220  -41.0690 C.2    15  SER15       0.2643
     11  O        -20.1440  -49.0720  -40.2620 O.2    15  SER15      -0.2714
     12  CB       -18.2700  -46.9920  -39.6930 C.3    15  SER15       0.2130
     13  OG       -19.0340  -47.6810  -38.7190 O.3    15  SER15      -0.2179
     14  N        -18.8210  -49.7220  -41.9410 N.am   16  ARG16      -0.1963
     15  CA       -19.3900  -51.0580  -41.9190 C.3    16  ARG16       0.1729
     16  C        -18.5970  -51.9210  -40.9480 C.2    16  ARG16       0.2617
     17  O        -19.0040  -53.0310  -40.6100 O.2    16  ARG16      -0.2715
     18  CB       -19.3910  -51.6810  -43.3170 C.3    16  ARG16       0.0348
     19  CG       -20.2260  -52.9500  -43.3940 C.3    16  ARG16       0.0492
     20  CD       -20.8020  -53.1820  -44.7830 C.3    16  ARG16       0.2205
     21  NE       -21.5780  -52.0370  -45.2540 N.pl3  16  ARG16      -0.0865
     22  CZ       -21.0690  -51.0210  -45.9450 C.cat  16  ARG16       0.5346
     23  NH1      -21.8490  -50.0180  -46.3290 N.pl3  16  ARG16       0.1354
     24  NH2      -19.7830  -51.0150  -46.2690 N.pl3  16  ARG16       0.1354
     25  N        -17.4640  -51.3940  -40.4960 N.am   17  SER17      -0.1936
     26  CA       -16.6160  -52.0990  -39.5440 C.3    17  SER17       0.2055
     27  C        -17.0610  -51.7390  -38.1300 C.2    17  SER17       0.2643
     28  O        -17.6080  -52.5700  -37.4050 O.2    17  SER17      -0.2714
     29  CB       -15.1490  -51.7000  -39.7340 C.3    17  SER17       0.2130
     30  OG       -14.7010  -51.9890  -41.0470 O.3    17  SER17      -0.2179
     31  N        -16.8310  -50.4840  -37.7570 N.am   18  PHE18      -0.1973
     32  CA       -17.1880  -49.9750  -36.4370 C.3    18  PHE18       0.1639
     33  C        -18.6660  -50.1950  -36.1180 C.2    18  PHE18       0.2290
     34  O        -19.0130  -50.6170  -35.0150 O.2    18  PHE18      -0.2864
     35  CB       -16.8740  -48.4780  -36.3570 C.3    18  PHE18       0.0560
     36  CG       -16.8650  -47.9290  -34.9560 C.ar   18  PHE18      -0.0200
     37  CD1      -15.7210  -48.0160  -34.1670 C.ar   18  PHE18      -0.0042
     38  CD2      -18.0010  -47.3250  -34.4240 C.ar   18  PHE18      -0.0042
     39  CE1      -15.7070  -47.5070  -32.8690 C.ar   18  PHE18      -0.0003
     40  CE2      -17.9970  -46.8130  -33.1260 C.ar   18  PHE18      -0.0003
     41  CZ       -16.8470  -46.9040  -32.3480 C.ar   18  PHE18      -0.0000
     42  N        -18.2490  -41.0750  -32.7330 N.3    37  TYR37      -0.1241
     43  CA       -17.7540  -41.5200  -34.0280 C.3    37  TYR37       0.1605
     44  C        -18.1660  -40.5460  -35.1260 C.2    37  TYR37       0.2264
     45  O        -17.3230  -40.0280  -35.8570 O.2    37  TYR37      -0.2867
     46  CB       -18.2980  -42.9090  -34.3680 C.3    37  TYR37       0.0534
     47  CG       -17.7560  -43.4460  -35.6730 C.ar   37  TYR37      -0.0201
     48  CD1      -16.4660  -43.9700  -35.7510 C.ar   37  TYR37      -0.0009
     49  CD2      -18.5080  -43.3740  -36.8440 C.ar   37  TYR37      -0.0009
     50  CE1      -15.9380  -44.4040  -36.9630 C.ar   37  TYR37       0.0417
     51  CE2      -17.9900  -43.8050  -38.0620 C.ar   37  TYR37       0.0417
     52  CZ       -16.7050  -44.3170  -38.1130 C.ar   37  TYR37       0.1957
     53  OH       -16.1840  -44.7300  -39.3170 O.3    37  TYR37      -0.2866
     54  N        -15.9100  -38.6800  -37.6800 N.3    41  ARG41      -0.1245
     55  CA       -16.0110  -39.0370  -39.0880 C.3    41  ARG41       0.1563
     56  C        -16.2720  -37.7880  -39.9170 C.2    41  ARG41       0.2260
     57  O        -15.7860  -37.6680  -41.0410 O.2    41  ARG41      -0.2867
     58  CB       -17.1270  -40.0640  -39.3120 C.3    41  ARG41       0.0307
     59  CG       -17.1310  -40.6680  -40.7150 C.3    41  ARG41       0.0489
     60  CD       -15.7290  -41.1310  -41.1020 C.3    41  ARG41       0.2205
     61  NE       -15.6520  -41.6630  -42.4600 N.pl3  41  ARG41      -0.0865
     62  CZ       -15.9120  -42.9240  -42.7920 C.cat  41  ARG41       0.5346
     63  NH1      -16.2680  -43.7990  -41.8620 N.pl3  41  ARG41       0.1354
     64  NH2      -15.8110  -43.3120  -44.0560 N.pl3  41  ARG41       0.1354
     65  N         -3.9110  -50.3300  -33.9800 N.3   176  LEU176     -0.1231
     66  CA        -4.8900  -50.4760  -35.0510 C.3   176  LEU176      0.1693
     67  C         -4.4790  -49.6370  -36.2520 C.2   176  LEU176      0.2591
     68  O         -4.3390  -50.1480  -37.3630 O.2   176  LEU176     -0.2718
     69  CB        -6.2770  -50.0260  -34.5860 C.3   176  LEU176      0.0284
     70  CG        -6.8710  -50.6830  -33.3400 C.3   176  LEU176      0.0019
     71  CD1       -8.3030  -50.2010  -33.1570 C.3   176  LEU176      0.0001
     72  CD2       -6.8340  -52.1960  -33.4800 C.3   176  LEU176      0.0001
     73  N         -4.2850  -48.3450  -36.0160 N.am  177  GLN177     -0.1979
     74  CA        -3.9020  -47.4200  -37.0730 C.3   177  GLN177      0.1601
     75  C         -2.6340  -47.8650  -37.7930 C.2   177  GLN177      0.2287
     76  O         -2.5590  -47.8010  -39.0190 O.2   177  GLN177     -0.2864
     77  CB        -3.7060  -46.0170  -36.4960 C.3   177  GLN177      0.0394
     78  CG        -3.5650  -44.9320  -37.5480 C.3   177  GLN177      0.0908
     79  CD        -4.7300  -44.9140  -38.5220 C.2   177  GLN177      0.2608
     80  OE1       -5.8910  -44.8260  -38.1200 O.2   177  GLN177     -0.2717
     81  NE2       -4.4240  -44.9980  -39.8110 N.am  177  GLN177     -0.0878
     82  N         -3.3970  -50.9890  -40.0570 N.3   180  ASN180     -0.1240
     83  CA        -4.0840  -50.6000  -41.2830 C.3   180  ASN180      0.1653
     84  C         -3.1440  -49.8620  -42.2260 C.2   180  ASN180      0.2266
     85  O         -3.1260  -50.1300  -43.4260 O.2   180  ASN180     -0.2867
     86  CB        -5.2950  -49.7140  -40.9750 C.3   180  ASN180      0.1155
     87  CG        -6.3790  -50.4520  -40.2140 C.2   180  ASN180      0.2627
     88  OD1       -6.6540  -51.6210  -40.4810 O.2   180  ASN180     -0.2716
     89  ND2       -7.0120  -49.7640  -39.2700 N.am  180  ASN180     -0.0877
@<TRIPOS>BOND
     1    23    22    1
     2    24    22    1
     3    22    21    2
     4    21    20    1
     5    20    19    1
     6    64    62    1
     7    85    84    2
     8    19    18    1
     9     4     3    2
    10    18    15    1
    11     2     1    1
    12     2     3    1
    13     2     5    1
    14     7     5    1
    15    62    61    2
    16    62    63    1
    17     3     8   am
    18     6     5    1
    19    61    60    1
    20    84    83    1
    21    14    15    1
    22    14    10   am
    23    15    16    1
    24     8     9    1
    25    83    86    1
    26    83    82    1
    27     9    10    1
    28     9    12    1
    29    60    59    1
    30    10    11    2
    31    30    29    1
    32    57    56    2
    33    86    87    1
    34    16    17    2
    35    16    25   am
    36    59    58    1
    37    25    26    1
    38    88    87    2
    39    87    89   am
    40    56    55    1
    41    81    79   am
    42    29    26    1
    43    12    13    1
    44    26    27    1
    45    53    52    1
    46    58    55    1
    47    55    54    1
    48    76    75    2
    49    79    80    2
    50    79    78    1
    51    27    31   am
    52    27    28    2
    53    52    51   ar
    54    52    50   ar
    55    51    49   ar
    56    75    74    1
    57    31    32    1
    58    78    77    1
    59    68    67    2
    60    74    77    1
    61    74    73    1
    62    50    48   ar
    63    49    47   ar
    64    32    35    1
    65    32    33    1
    66    35    36    1
    67    67    73   am
    68    67    66    1
    69    33    34    2
    70    45    44    2
    71    48    47   ar
    72    47    46    1
    73    44    43    1
    74    66    69    1
    75    66    65    1
    76    36    38   ar
    77    36    37   ar
    78    69    70    1
    79    38    40   ar
    80    46    43    1
    81    37    39   ar
    82    43    42    1
    83    72    70    1
    84    70    71    1
    85    40    41   ar
    86    39    41   ar
