@<TRIPOS>MOLECULE
tmp/3wcbA00.pdb
 214 203 0 0 0
SMALL
GASTEIGER

@<TRIPOS>ATOM
      1  N          5.4870  -12.5800  -10.5020 N.3    14  VAL14      -0.1231
      2  CA         6.0260  -13.9280  -10.3810 C.3    14  VAL14       0.1692
      3  C          7.4810  -13.9940  -10.8280 C.2    14  VAL14       0.2593
      4  O          8.3230  -14.5960  -10.1610 O.2    14  VAL14      -0.2718
      5  CB         5.2160  -14.9270  -11.2330 C.3    14  VAL14       0.0266
      6  CG1        5.7750  -16.3290  -11.0630 C.3    14  VAL14       0.0020
      7  CG2        3.7490  -14.8820  -10.8370 C.3    14  VAL14       0.0020
      8  N          7.7640  -13.3680  -11.9630 N.am   15  SER15      -0.1938
      9  CA         9.1050  -13.3600  -12.5310 C.3    15  SER15       0.2055
     10  C          9.7270  -11.9740  -12.5740 C.2    15  SER15       0.2643
     11  O          9.3250  -11.1410  -13.3810 O.2    15  SER15      -0.2714
     12  CB         9.0600  -13.9210  -13.9520 C.3    15  SER15       0.2130
     13  OG        10.1050  -13.3810  -14.7410 O.3    15  SER15      -0.2179
     14  N         10.7080  -11.7190  -11.7140 N.am   16  ARG16      -0.1963
     15  CA        11.3610  -10.4180  -11.7280 C.3    16  ARG16       0.1729
     16  C         12.5850  -10.4950  -12.6360 C.2    16  ARG16       0.2617
     17  O         13.1990   -9.4780  -12.9570 O.2    16  ARG16      -0.2715
     18  CB        11.7700   -9.9860  -10.3160 C.3    16  ARG16       0.0348
     19  CG        12.3190   -8.5620  -10.2560 C.3    16  ARG16       0.0492
     20  CD        12.5170   -8.0570   -8.8300 C.3    16  ARG16       0.2205
     21  NE        11.3160   -7.4430   -8.2640 N.pl3  16  ARG16      -0.0865
     22  CZ        10.2180   -8.1040   -7.9060 C.cat  16  ARG16       0.5346
     23  NH1        9.1830   -7.4450   -7.4030 N.pl3  16  ARG16       0.1354
     24  NH2       10.1540   -9.4210   -8.0430 N.pl3  16  ARG16       0.1354
     25  N         12.9290  -11.7110  -13.0560 N.am   17  SER17      -0.1936
     26  CA        14.0690  -11.9190  -13.9440 C.3    17  SER17       0.2055
     27  C         13.6230  -11.9090  -15.4050 C.2    17  SER17       0.2643
     28  O         14.0040  -11.0260  -16.1730 O.2    17  SER17      -0.2714
     29  CB        14.7640  -13.2490  -13.6310 C.3    17  SER17       0.2130
     30  OG        15.4360  -13.1990  -12.3840 O.3    17  SER17      -0.2179
     31  N         12.8090  -12.8910  -15.7800 N.am   18  PHE18      -0.1973
     32  CA        12.3160  -13.0000  -17.1490 C.3    18  PHE18       0.1639
     33  C         11.5340  -11.7580  -17.5710 C.2    18  PHE18       0.2290
     34  O         11.7990  -11.1770  -18.6230 O.2    18  PHE18      -0.2864
     35  CB        11.4170  -14.2340  -17.2890 C.3    18  PHE18       0.0560
     36  CG        11.0760  -14.5780  -18.7120 C.ar   18  PHE18      -0.0200
     37  CD1       12.0070  -15.2090  -19.5320 C.ar   18  PHE18      -0.0042
     38  CD2        9.8270  -14.2620  -19.2390 C.ar   18  PHE18      -0.0042
     39  CE1       11.7000  -15.5210  -20.8560 C.ar   18  PHE18      -0.0003
     40  CE2        9.5100  -14.5690  -20.5610 C.ar   18  PHE18      -0.0003
     41  CZ        10.4490  -15.2000  -21.3710 C.ar   18  PHE18      -0.0000
     42  N          4.7450  -17.8870  -21.2740 N.3    37  TYR37      -0.1241
     43  CA         5.4460  -18.0170  -20.0020 C.3    37  TYR37       0.1605
     44  C          4.4740  -18.3790  -18.8890 C.2    37  TYR37       0.2264
     45  O          4.6760  -19.3530  -18.1670 O.2    37  TYR37      -0.2867
     46  CB         6.1520  -16.7110  -19.6320 C.3    37  TYR37       0.0534
     47  CG         6.9160  -16.8130  -18.3330 C.ar   37  TYR37      -0.0201
     48  CD1        8.1900  -17.3790  -18.2930 C.ar   37  TYR37      -0.0009
     49  CD2        6.3390  -16.4040  -17.1310 C.ar   37  TYR37      -0.0009
     50  CE1        8.8690  -17.5390  -17.0890 C.ar   37  TYR37       0.0417
     51  CE2        7.0080  -16.5610  -15.9210 C.ar   37  TYR37       0.0417
     52  CZ         8.2700  -17.1300  -15.9080 C.ar   37  TYR37       0.1957
     53  OH         8.9240  -17.3060  -14.7120 O.3    37  TYR37      -0.2866
     54  N          4.4430  -21.4620  -16.4680 N.3    41  ARG41      -0.1245
     55  CA         4.6210  -21.1450  -15.0560 C.3    41  ARG41       0.1563
     56  C          3.5070  -21.7690  -14.2260 C.2    41  ARG41       0.2260
     57  O          3.7400  -22.2450  -13.1150 O.2    41  ARG41      -0.2867
     58  CB         4.6220  -19.6320  -14.8450 C.3    41  ARG41       0.0307
     59  CG         4.9420  -19.2220  -13.4210 C.3    41  ARG41       0.0489
     60  CD         6.3790  -19.5590  -13.0680 C.3    41  ARG41       0.2205
     61  NE         6.6860  -19.2320  -11.6800 N.pl3  41  ARG41      -0.0865
     62  CZ         7.8610  -18.7720  -11.2660 C.cat  41  ARG41       0.5346
     63  NH1        8.8430  -18.5800  -12.1370 N.pl3  41  ARG41       0.1354
     64  NH2        8.0530  -18.4960   -9.9830 N.pl3  41  ARG41       0.1354
     65  N         11.7570  -29.4350  -19.6810 N.3   140  VAL140     -0.1231
     66  CA        11.4330  -28.1910  -18.9900 C.3   140  VAL140      0.1692
     67  C         12.1240  -26.9210  -19.4790 C.2   140  VAL140      0.2591
     68  O         11.7130  -25.8180  -19.1190 O.2   140  VAL140     -0.2718
     69  CB        11.7050  -28.3300  -17.4800 C.3   140  VAL140      0.0266
     70  CG1       10.8060  -29.4060  -16.8890 C.3   140  VAL140      0.0020
     71  CG2       13.1680  -28.6740  -17.2480 C.3   140  VAL140      0.0020
     72  N         13.1670  -27.0620  -20.2920 N.am  141  ALA141     -0.1980
     73  CA        13.8850  -25.8940  -20.7950 C.3   141  ALA141      0.1597
     74  C         14.2010  -25.9990  -22.2800 C.2   141  ALA141      0.2287
     75  O         14.0400  -25.0340  -23.0260 O.2   141  ALA141     -0.2864
     76  CB        15.1700  -25.6940  -20.0040 C.3   141  ALA141      0.0319
     77  N         11.3540  -25.0970  -24.4100 N.3   144  VAL144     -0.1231
     78  CA        11.0440  -23.6730  -24.4100 C.3   144  VAL144      0.1692
     79  C         11.8770  -23.0480  -25.5240 C.2   144  VAL144      0.2592
     80  O         11.4950  -22.0390  -26.1200 O.2   144  VAL144     -0.2718
     81  CB        11.4110  -23.0090  -23.0660 C.3   144  VAL144      0.0266
     82  CG1       11.1100  -21.5190  -23.1230 C.3   144  VAL144      0.0020
     83  CG2       10.6340  -23.6610  -21.9350 C.3   144  VAL144      0.0020
     84  N         13.0240  -23.6630  -25.7960 N.am  145  GLY145     -0.1957
     85  CA        13.8880  -23.1770  -26.8520 C.3   145  GLY145      0.1869
     86  C         13.1780  -23.3740  -28.1730 C.2   145  GLY145      0.2309
     87  O         13.1360  -22.4700  -29.0050 O.2   145  GLY145     -0.2863
     88  N          9.9320  -20.8830  -28.5040 N.3   148  LEU148     -0.1231
     89  CA        10.3160  -19.5270  -28.8750 C.3   148  LEU148      0.1693
     90  C         10.8330  -19.4780  -30.3070 C.2   148  LEU148      0.2592
     91  O         10.4710  -18.5840  -31.0720 O.2   148  LEU148     -0.2718
     92  CB        11.3870  -18.9960  -27.9170 C.3   148  LEU148      0.0284
     93  CG        10.9430  -18.7500  -26.4710 C.3   148  LEU148      0.0019
     94  CD1       12.1430  -18.3590  -25.6250 C.3   148  LEU148      0.0001
     95  CD2        9.8820  -17.6550  -26.4340 C.3   148  LEU148      0.0001
     96  N         11.6750  -20.4430  -30.6670 N.am  149  THR149     -0.1953
     97  CA        12.2380  -20.5040  -32.0110 C.3   149  THR149      0.1897
     98  C         11.1320  -20.6180  -33.0540 C.2   149  THR149      0.2313
     99  O         11.2500  -20.0870  -34.1590 O.2   149  THR149     -0.2863
    100  CB        13.1930  -21.7060  -32.1620 C.3   149  THR149      0.1794
    101  OG1       14.2610  -21.5880  -31.2150 O.3   149  THR149     -0.2208
    102  CG2       13.7770  -21.7520  -33.5670 C.3   149  THR149      0.0378
    103  N          9.3260  -17.2510  -33.3750 N.3   152  TYR152     -0.1241
    104  CA        10.0960  -16.3030  -34.1790 C.3   152  TYR152      0.1605
    105  C          9.7140  -16.4720  -35.6470 C.2   152  TYR152      0.2264
    106  O          9.3250  -15.5150  -36.3170 O.2   152  TYR152     -0.2867
    107  CB        11.6100  -16.5400  -34.0240 C.3   152  TYR152      0.0534
    108  CG        12.1560  -16.3620  -32.6180 C.ar  152  TYR152     -0.0201
    109  CD1       11.6510  -15.3800  -31.7800 C.ar  152  TYR152     -0.0009
    110  CD2       13.1850  -17.1720  -32.1310 C.ar  152  TYR152     -0.0009
    111  CE1       12.1370  -15.1990  -30.4890 C.ar  152  TYR152      0.0417
    112  CE2       13.6890  -16.9970  -30.8350 C.ar  152  TYR152      0.0417
    113  CZ        13.1530  -16.0070  -30.0200 C.ar  152  TYR152      0.1957
    114  OH        13.6090  -15.8190  -28.7350 O.3   152  TYR152     -0.2866
    115  N         18.5510  -24.8940  -30.6350 N.3   169  ALA169     -0.1245
    116  CA        17.5140  -24.2130  -29.8720 C.3   169  ALA169      0.1562
    117  C         17.4080  -24.9190  -28.5260 C.2   169  ALA169      0.2260
    118  O         17.1200  -24.2970  -27.5030 O.2   169  ALA169     -0.2867
    119  CB        16.1850  -24.2850  -30.6090 C.3   169  ALA169      0.0290
    120  N         20.2600  -23.9210  -26.2730 N.3   172  MET172     -0.1230
    121  CA        20.0200  -22.6190  -25.6620 C.3   172  MET172      0.1702
    122  C         19.3490  -22.8220  -24.3110 C.2   172  MET172      0.2592
    123  O         19.7260  -22.2030  -23.3150 O.2   172  MET172     -0.2718
    124  CB        19.1130  -21.7730  -26.5570 C.3   172  MET172      0.0401
    125  CG        19.7920  -21.1940  -27.7870 C.3   172  MET172      0.0596
    126  SD        20.8510  -19.7900  -27.3900 S.3   172  MET172     -0.1393
    127  CE        19.6730  -18.4410  -27.5000 C.3   172  MET172      0.0692
    128  N         18.3500  -23.6990  -24.2910 N.am  173  GLY173     -0.1957
    129  CA        17.6270  -23.9780  -23.0640 C.3   173  GLY173      0.1869
    130  C         18.4590  -24.7330  -22.0490 C.2   173  GLY173      0.2309
    131  O         18.5710  -24.3160  -20.8970 O.2   173  GLY173     -0.2863
    132  N         20.8870  -22.6250  -20.0080 N.3   176  LEU176     -0.1231
    133  CA        20.2780  -21.8190  -18.9570 C.3   176  LEU176      0.1693
    134  C         19.8380  -22.6970  -17.7890 C.2   176  LEU176      0.2591
    135  O         20.2460  -22.4820  -16.6470 O.2   176  LEU176     -0.2718
    136  CB        19.0640  -21.0610  -19.5010 C.3   176  LEU176      0.0284
    137  CG        19.2990  -20.0610  -20.6340 C.3   176  LEU176      0.0019
    138  CD1       17.9720  -19.4580  -21.0580 C.3   176  LEU176      0.0001
    139  CD2       20.2520  -18.9710  -20.1740 C.3   176  LEU176      0.0001
    140  N         19.0060  -23.6890  -18.0900 N.am  177  GLN177     -0.1979
    141  CA        18.4840  -24.5970  -17.0760 C.3   177  GLN177      0.1601
    142  C         19.5720  -25.2410  -16.2250 C.2   177  GLN177      0.2287
    143  O         19.4490  -25.3090  -15.0030 O.2   177  GLN177     -0.2864
    144  CB        17.6380  -25.6880  -17.7340 C.3   177  GLN177      0.0394
    145  CG        16.8860  -26.5560  -16.7420 C.3   177  GLN177      0.0908
    146  CD        16.0240  -25.7370  -15.8030 C.2   177  GLN177      0.2608
    147  OE1       15.1540  -24.9840  -16.2390 O.2   177  GLN177     -0.2717
    148  NE2       16.2630  -25.8770  -14.5050 N.am  177  GLN177     -0.0878
    149  N         21.3070  -22.8420  -13.7870 N.3   180  ASN180     -0.1240
    150  CA        20.4530  -22.6070  -12.6270 C.3   180  ASN180      0.1653
    151  C         20.4490  -23.8070  -11.6870 C.2   180  ASN180      0.2266
    152  O         20.4710  -23.6480  -10.4680 O.2   180  ASN180     -0.2867
    153  CB        19.0220  -22.2990  -13.0740 C.3   180  ASN180      0.1155
    154  CG        18.9220  -20.9950  -13.8370 C.2   180  ASN180      0.2627
    155  OD1       19.3530  -19.9490  -13.3540 O.2   180  ASN180     -0.2716
    156  ND2       18.3470  -21.0490  -15.0320 N.am  180  ASN180     -0.0877
    157  N         23.6150  -23.5210   -9.9010 N.3   183  ARG183     -0.1245
    158  CA        23.6120  -22.3710   -9.0080 C.3   183  ARG183      0.1563
    159  C         22.6490  -22.5200   -7.8320 C.2   183  ARG183      0.2260
    160  O         22.9680  -22.1220   -6.7100 O.2   183  ARG183     -0.2867
    161  CB        23.2790  -21.1050   -9.8090 C.3   183  ARG183      0.0307
    162  CG        23.6210  -19.7930   -9.1110 C.3   183  ARG183      0.0489
    163  CD        22.5780  -19.4020   -8.0750 C.3   183  ARG183      0.2205
    164  NE        21.2850  -19.1110   -8.6880 N.pl3 183  ARG183     -0.0865
    165  CZ        21.0750  -18.1310   -9.5620 C.cat 183  ARG183      0.5346
    166  NH1       22.0740  -17.3400   -9.9300 N.pl3 183  ARG183      0.1354
    167  NH2       19.8640  -17.9430  -10.0710 N.pl3 183  ARG183      0.1354
    168  N         23.4750  -20.3340  -32.5570 N.3   243  TYR243     -0.1241
    169  CA        22.0800  -19.9150  -32.5990 C.3   243  TYR243      0.1605
    170  C         21.9630  -18.3950  -32.5810 C.2   243  TYR243      0.2264
    171  O         21.2270  -17.8110  -33.3750 O.2   243  TYR243     -0.2867
    172  CB        21.3170  -20.5230  -31.4180 C.3   243  TYR243      0.0534
    173  CG        19.8400  -20.1920  -31.3890 C.ar  243  TYR243     -0.0201
    174  CD1       19.3900  -18.9520  -30.9380 C.ar  243  TYR243     -0.0009
    175  CD2       18.8910  -21.1210  -31.8130 C.ar  243  TYR243     -0.0009
    176  CE1       18.0330  -18.6460  -30.9090 C.ar  243  TYR243      0.0417
    177  CE2       17.5310  -20.8240  -31.7890 C.ar  243  TYR243      0.0417
    178  CZ        17.1100  -19.5860  -31.3350 C.ar  243  TYR243      0.1957
    179  OH        15.7680  -19.2890  -31.3040 O.3   243  TYR243     -0.2866
    180  N         16.6490  -10.4100  -26.7450 N.3   255  PHE255     -0.1227
    181  CA        15.8290  -11.2550  -25.8870 C.3   255  PHE255      0.1736
    182  C         16.4170  -12.6500  -25.7190 C.2   255  PHE255      0.2596
    183  O         16.2460  -13.2840  -24.6790 O.2   255  PHE255     -0.2718
    184  CB        14.4140  -11.3500  -26.4620 C.3   255  PHE255      0.0547
    185  CG        13.5260  -12.3140  -25.7350 C.ar  255  PHE255     -0.0202
    186  CD1       13.2920  -13.5860  -26.2490 C.ar  255  PHE255     -0.0042
    187  CD2       12.9310  -11.9570  -24.5300 C.ar  255  PHE255     -0.0042
    188  CE1       12.4760  -14.4890  -25.5730 C.ar  255  PHE255     -0.0003
    189  CE2       12.1150  -12.8510  -23.8460 C.ar  255  PHE255     -0.0003
    190  CZ        11.8860  -14.1210  -24.3690 C.ar  255  PHE255     -0.0000
    191  N         17.1160  -13.1210  -26.7440 N.am  256  SER256     -0.1952
    192  CA        17.7190  -14.4450  -26.7060 C.3   256  SER256      0.1924
    193  C         19.1430  -14.4110  -26.1600 C.2   256  SER256      0.2314
    194  O         19.5660  -15.3200  -25.4440 O.2   256  SER256     -0.2863
    195  CB        17.7270  -15.0520  -28.1120 C.3   256  SER256      0.2116
    196  OG        16.4220  -15.0880  -28.6600 O.3   256  SER256     -0.2180
    197  N         21.4960  -15.5590  -22.0910 N.3   260  GLN260     -0.1245
    198  CA        22.6840  -16.3830  -22.2870 C.3   260  GLN260      0.1566
    199  C         23.9200  -15.7610  -21.6470 C.2   260  GLN260      0.2260
    200  O         24.6730  -16.4400  -20.9500 O.2   260  GLN260     -0.2867
    201  CB        22.9330  -16.6080  -23.7810 C.3   260  GLN260      0.0367
    202  CG        21.8450  -17.4110  -24.4730 C.3   260  GLN260      0.0905
    203  CD        21.6340  -18.7730  -23.8370 C.2   260  GLN260      0.2608
    204  OE1       22.5610  -19.5750  -23.7420 O.2   260  GLN260     -0.2717
    205  NE2       20.4090  -19.0390  -23.3970 N.am  260  GLN260     -0.0878
    206  N         23.3620  -18.4290   -2.2100 N.3   280  LYS280     -0.1245
    207  CA        23.0290  -18.2160   -3.6140 C.3   280  LYS280      0.1561
    208  C         23.9670  -17.1960   -4.2490 C.2   280  LYS280      0.2260
    209  O         23.9010  -16.0050   -3.9450 O.2   280  LYS280     -0.2867
    210  CB        21.5830  -17.7320   -3.7520 C.3   280  LYS280      0.0271
    211  CG        21.1890  -17.3910   -5.1810 C.3   280  LYS280      0.0035
    212  CD        19.7370  -16.9530   -5.2810 C.3   280  LYS280      0.0206
    213  CE        19.3700  -16.6090   -6.7190 C.3   280  LYS280      0.1093
    214  NZ        17.9370  -16.2290   -6.8650 N.3   280  LYS280     -0.1314
@<TRIPOS>BOND
     1   106   105    2
     2   105   104    1
     3   104   107    1
     4   104   103    1
     5    99    98    2
     6   107   108    1
     7   102   100    1
     8   171   170    2
     9    98    97    1
    10   108   110   ar
    11   108   109   ar
    12   169   170    1
    13   169   168    1
    14   169   172    1
    15   100    97    1
    16   100   101    1
    17   110   112   ar
    18    97    96    1
    19   175   177   ar
    20   175   173   ar
    21   177   178   ar
    22   109   111   ar
    23   172   173    1
    24   173   174   ar
    25   178   179    1
    26   178   176   ar
    27    91    90    2
    28   174   176   ar
    29   112   113   ar
    30    96    90   am
    31   115   116    1
    32   119   116    1
    33   111   113   ar
    34    90    89    1
    35   113   114    1
    36   116   117    1
    37    87    86    2
    38    89    88    1
    39    89    92    1
    40   196   195    1
    41   117   118    2
    42    86    85    1
    43   195   192    1
    44    92    93    1
    45   125   126    1
    46   125   124    1
    47   127   126    1
    48    85    84    1
    49   180   181    1
    50   191   192    1
    51   191   182   am
    52   192   193    1
    53   124   121    1
    54    93    95    1
    55    93    94    1
    56   184   181    1
    57   184   185    1
    58   120   121    1
    59   186   185   ar
    60   186   188   ar
    61   193   194    2
    62    80    79    2
    63   181   182    1
    64    84    79   am
    65   185   187   ar
    66   182   183    2
    67   121   122    1
    68   188   190   ar
    69    79    78    1
    70   187   189   ar
    71   202   203    1
    72   202   201    1
    73    78    77    1
    74    78    81    1
    75   190   189   ar
    76   122   128   am
    77   122   123    2
    78   128   129    1
    79   203   204    2
    80   203   205   am
    81   201   198    1
    82    82    81    1
    83    81    83    1
    84   129   130    1
    85    75    74    2
    86   198   197    1
    87   198   199    1
    88    74    73    1
    89   130   131    2
    90   199   200    2
    91    41    39   ar
    92    41    40   ar
    93    42    43    1
    94   138   137    1
    95    39    37   ar
    96    73    72    1
    97    73    76    1
    98   137   139    1
    99   137   136    1
   100    40    38   ar
   101    72    67   am
   102   132   133    1
   103    43    46    1
   104    43    44    1
   105    65    66    1
   106    46    47    1
   107    37    36   ar
   108   136   133    1
   109    67    68    2
   110    67    66    1
   111    38    36   ar
   112    66    69    1
   113   133   134    1
   114    44    45    2
   115    36    35    1
   116    34    33    2
   117    47    48   ar
   118    47    49   ar
   119    48    50   ar
   120   140   134   am
   121   140   141    1
   122   134   135    2
   123   144   141    1
   124   144   145    1
   125    33    32    1
   126    69    71    1
   127    69    70    1
   128    35    32    1
   129    32    31    1
   130    49    51   ar
   131    50    52   ar
   132   141   142    1
   133   145   146    1
   134    54    55    1
   135   147   146    2
   136   142   143    2
   137    28    27    2
   138    51    52   ar
   139    52    53    1
   140   146   148   am
   141    31    27   am
   142    27    26    1
   143    55    58    1
   144    55    56    1
   145   156   154   am
   146    58    59    1
   147    13    12    1
   148    56    57    2
   149    12     9    1
   150    26    29    1
   151    26    25    1
   152   154   155    2
   153   154   153    1
   154   149   150    1
   155    29    30    1
   156    59    60    1
   157    11    10    2
   158   153   150    1
   159    60    61    1
   160    25    16   am
   161    17    16    2
   162    16    15    1
   163   150   151    1
   164    10     9    1
   165    10    14   am
   166     9     8    1
   167    63    62    1
   168     8     3   am
   169    15    14    1
   170    15    18    1
   171   151   152    2
   172    61    62    2
   173    62    64    1
   174     5     6    1
   175     5     7    1
   176     5     2    1
   177     3     2    1
   178     3     4    2
   179     1     2    1
   180    18    19    1
   181    19    20    1
   182   167   165    1
   183   166   165    1
   184   157   158    1
   185   161   162    1
   186   161   158    1
   187   165   164    2
   188   162   163    1
   189   158   159    1
   190    20    21    1
   191   164   163    1
   192    21    22    2
   193    24    22    1
   194    22    23    1
   195   159   160    2
   196   214   213    1
   197   213   212    1
   198   212   211    1
   199   211   210    1
   200   208   209    2
   201   208   207    1
   202   210   207    1
   203   207   206    1
