@<TRIPOS>MOLECULE
tmp/3wccC00.pdb
 214 203 0 0 0
SMALL
GASTEIGER

@<TRIPOS>ATOM
      1  N         29.1480   57.7210   43.0890 N.3    19  PHE19      -0.1241
      2  CA        29.6920   57.8500   44.4360 C.3    19  PHE19       0.1605
      3  C         30.3620   59.1650   44.8060 C.2    19  PHE19       0.2264
      4  O         30.4750   59.4850   45.9890 O.2    19  PHE19      -0.2867
      5  CB        30.6420   56.6810   44.7130 C.3    19  PHE19       0.0534
      6  CG        29.9300   55.3860   44.9430 C.ar   19  PHE19      -0.0203
      7  CD1       29.3060   55.1320   46.1630 C.ar   19  PHE19      -0.0042
      8  CD2       29.8200   54.4440   43.9240 C.ar   19  PHE19      -0.0042
      9  CE1       28.5790   53.9640   46.3660 C.ar   19  PHE19      -0.0003
     10  CE2       29.0920   53.2710   44.1190 C.ar   19  PHE19      -0.0003
     11  CZ        28.4690   53.0320   45.3450 C.ar   19  PHE19      -0.0000
     12  N         30.4060   60.7220   48.5640 N.3    23  ILE23      -0.1245
     13  CA        31.6980   60.8400   49.2160 C.3    23  ILE23       0.1561
     14  C         31.9550   62.3140   49.5830 C.2    23  ILE23       0.2260
     15  O         32.3910   62.6120   50.6910 O.2    23  ILE23      -0.2867
     16  CB        32.8230   60.2840   48.2960 C.3    23  ILE23       0.0252
     17  CG1       32.6490   58.7640   48.1650 C.3    23  ILE23       0.0019
     18  CG2       34.2030   60.6540   48.8380 C.3    23  ILE23       0.0019
     19  CD1       33.4960   58.1040   47.0600 C.3    23  ILE23       0.0001
     20  N         38.2460   58.1010   52.5630 N.3    34  VAL34      -0.1245
     21  CA        37.2950   57.4390   51.6730 C.3    34  VAL34       0.1561
     22  C         37.5870   57.7780   50.2110 C.2    34  VAL34       0.2260
     23  O         37.4890   56.9210   49.3400 O.2    34  VAL34      -0.2867
     24  CB        35.8420   57.8570   51.9940 C.3    34  VAL34       0.0252
     25  CG1       34.8790   57.1810   51.0360 C.3    34  VAL34       0.0019
     26  CG2       35.5060   57.5020   53.4180 C.3    34  VAL34       0.0019
     27  N         40.7410   56.0410   49.2490 N.3    37  PHE37      -0.1227
     28  CA        40.4140   54.6170   49.2500 C.3    37  PHE37       0.1736
     29  C         39.7080   54.2250   47.9510 C.2    37  PHE37       0.2595
     30  O         39.9850   53.1720   47.3750 O.2    37  PHE37      -0.2718
     31  CB        39.5160   54.3020   50.4520 C.3    37  PHE37       0.0547
     32  CG        39.1110   52.8520   50.5700 C.ar   37  PHE37      -0.0202
     33  CD1       40.0170   51.8270   50.3050 C.ar   37  PHE37      -0.0042
     34  CD2       37.8320   52.5160   51.0110 C.ar   37  PHE37      -0.0042
     35  CE1       39.6620   50.4830   50.4790 C.ar   37  PHE37      -0.0003
     36  CE2       37.4600   51.1810   51.1910 C.ar   37  PHE37      -0.0003
     37  CZ        38.3810   50.1540   50.9240 C.ar   37  PHE37      -0.0000
     38  N         38.7960   55.0770   47.4910 N.am   38  TYR38      -0.1976
     39  CA        38.0550   54.8020   46.2630 C.3    38  TYR38       0.1639
     40  C         38.9960   54.8150   45.0680 C.2    38  TYR38       0.2290
     41  O         38.9660   53.9180   44.2260 O.2    38  TYR38      -0.2864
     42  CB        36.9580   55.8520   46.0350 C.3    38  TYR38       0.0560
     43  CG        36.1230   55.5830   44.7990 C.ar   38  TYR38      -0.0198
     44  CD1       34.9800   54.7950   44.8710 C.ar   38  TYR38      -0.0009
     45  CD2       36.5110   56.0600   43.5480 C.ar   38  TYR38      -0.0009
     46  CE1       34.2440   54.4810   43.7400 C.ar   38  TYR38       0.0417
     47  CE2       35.7820   55.7490   42.4040 C.ar   38  TYR38       0.0417
     48  CZ        34.6520   54.9590   42.5110 C.ar   38  TYR38       0.1957
     49  OH        33.9300   54.6300   41.3900 O.3    38  TYR38      -0.2866
     50  N         41.2290   51.6800   44.7810 N.3    41  LEU41      -0.1231
     51  CA        40.5070   50.5250   44.2790 C.3    41  LEU41       0.1693
     52  C         40.1110   50.6820   42.8100 C.2    41  LEU41       0.2591
     53  O         40.1300   49.7110   42.0490 O.2    41  LEU41      -0.2718
     54  CB        39.2680   50.2530   45.1420 C.3    41  LEU41       0.0284
     55  CG        39.5620   50.0200   46.6320 C.3    41  LEU41       0.0019
     56  CD1       38.2990   49.5590   47.3450 C.3    41  LEU41       0.0001
     57  CD2       40.6710   48.9770   46.7900 C.3    41  LEU41       0.0001
     58  N         39.7600   51.9020   42.4110 N.am   42  ARG42      -0.1980
     59  CA        39.3630   52.1630   41.0340 C.3    42  ARG42       0.1597
     60  C         40.5700   51.9960   40.1130 C.2    42  ARG42       0.2287
     61  O         40.4320   51.5560   38.9670 O.2    42  ARG42      -0.2864
     62  CB        38.7760   53.5770   40.8970 C.3    42  ARG42       0.0334
     63  CG        38.1720   53.8720   39.5320 C.3    42  ARG42       0.0492
     64  CD        37.1020   52.8530   39.1540 C.3    42  ARG42       0.2205
     65  NE        36.5460   53.1060   37.8260 N.pl3  42  ARG42      -0.0865
     66  CZ        35.6490   54.0500   37.5550 C.cat  42  ARG42       0.5346
     67  NH1       35.1960   54.8340   38.5250 N.pl3  42  ARG42       0.1354
     68  NH2       35.2040   54.2140   36.3150 N.pl3  42  ARG42       0.1354
     69  N         41.1440   48.3370   39.7940 N.3    45  ASP45      -0.1239
     70  CA        40.0950   47.8170   38.9290 C.3    45  ASP45       0.1674
     71  C         40.3790   48.0970   37.4600 C.2    45  ASP45       0.2266
     72  O         40.1230   47.2560   36.6030 O.2    45  ASP45      -0.2867
     73  CB        38.7510   48.4410   39.3040 C.3    45  ASP45       0.1410
     74  CG        37.6010   47.9080   38.4640 C.2    45  ASP45       0.3668
     75  OD1       37.2080   46.7320   38.6380 O.co2  45  ASP45      -0.2456
     76  OD2       37.0910   48.6770   37.6260 O.co2  45  ASP45      -0.2456
     77  N         41.8300   42.3610   47.7490 N.3   116  MET116     -0.1245
     78  CA        41.0290   42.4780   46.5280 C.3   116  MET116      0.1570
     79  C         41.8380   42.1030   45.2880 C.2   116  MET116      0.2261
     80  O         41.3580   41.3810   44.4110 O.2   116  MET116     -0.2867
     81  CB        40.4960   43.9040   46.3840 C.3   116  MET116      0.0387
     82  CG        39.6300   44.1160   45.1520 C.3   116  MET116      0.0595
     83  SD        38.9600   45.7870   45.0660 S.3   116  MET116     -0.1393
     84  CE        38.0130   45.8370   46.6290 C.3   116  MET116      0.0692
     85  N         40.9040   39.1780   42.5950 N.3   120  MET120     -0.1245
     86  CA        40.6670   39.4060   41.1750 C.3   120  MET120      0.1570
     87  C         41.4950   38.3890   40.3980 C.2   120  MET120      0.2261
     88  O         41.0710   37.8640   39.3650 O.2   120  MET120     -0.2867
     89  CB        41.0830   40.8270   40.7820 C.3   120  MET120      0.0387
     90  CG        40.1990   41.9180   41.3640 C.3   120  MET120      0.0595
     91  SD        40.8360   43.5800   41.0560 S.3   120  MET120     -0.1393
     92  CE        39.4730   44.6130   41.6810 C.3   120  MET120      0.0692
     93  N         35.3600   42.0670   45.2010 N.3   141  VAL141     -0.1231
     94  CA        35.2420   43.3910   44.6030 C.3   141  VAL141      0.1692
     95  C         34.3170   44.3820   45.3230 C.2   141  VAL141      0.2591
     96  O         34.4810   45.5970   45.1730 O.2   141  VAL141     -0.2718
     97  CB        34.7860   43.2760   43.1160 C.3   141  VAL141      0.0266
     98  CG1       35.6820   42.2840   42.3770 C.3   141  VAL141      0.0020
     99  CG2       33.3340   42.8170   43.0330 C.3   141  VAL141      0.0020
    100  N         33.3680   43.8820   46.1160 N.am  142  ALA142     -0.1980
    101  CA        32.4280   44.7780   46.7900 C.3   142  ALA142      0.1597
    102  C         32.2860   44.5690   48.2890 C.2   142  ALA142      0.2287
    103  O         32.3040   45.5410   49.0600 O.2   142  ALA142     -0.2864
    104  CB        31.0460   44.6820   46.1240 C.3   142  ALA142      0.0319
    105  N         34.9470   46.0320   50.2380 N.3   145  VAL145     -0.1231
    106  CA        34.9010   47.4890   50.3360 C.3   145  VAL145      0.1692
    107  C         33.9980   47.8060   51.5350 C.2   145  VAL145      0.2592
    108  O         34.2500   48.7460   52.2890 O.2   145  VAL145     -0.2718
    109  CB        34.3310   48.1400   49.0530 C.3   145  VAL145      0.0266
    110  CG1       34.3790   49.6570   49.1830 C.3   145  VAL145      0.0020
    111  CG2       35.1370   47.6870   47.8280 C.3   145  VAL145      0.0020
    112  N         32.9560   46.9980   51.7110 N.am  146  GLY146     -0.1957
    113  CA        32.0730   47.1700   52.8450 C.3   146  GLY146      0.1869
    114  C         32.8930   46.9340   54.1010 C.2   146  GLY146      0.2309
    115  O         32.7110   47.6230   55.1080 O.2   146  GLY146     -0.2863
    116  N         35.3160   50.1490   54.4810 N.3   149  LEU149     -0.1245
    117  CA        34.5840   51.3480   54.8640 C.3   149  LEU149      0.1561
    118  C         34.2130   51.2530   56.3360 C.2   149  LEU149      0.2260
    119  O         34.3610   52.2180   57.0830 O.2   149  LEU149     -0.2867
    120  CB        33.3320   51.5030   53.9960 C.3   149  LEU149      0.0270
    121  CG        33.6150   51.9550   52.5610 C.3   149  LEU149      0.0019
    122  CD1       32.3120   52.0330   51.8110 C.3   149  LEU149      0.0001
    123  CD2       34.3070   53.3190   52.5590 C.3   149  LEU149      0.0001
    124  N         35.2200   53.6150   59.4130 N.3   153  TYR153     -0.1241
    125  CA        34.3110   54.3190   60.3250 C.3   153  TYR153      0.1605
    126  C         34.8430   54.2490   61.7680 C.2   153  TYR153      0.2264
    127  O         34.8110   55.2410   62.5110 O.2   153  TYR153     -0.2867
    128  CB        32.9010   53.7070   60.3040 C.3   153  TYR153      0.0534
    129  CG        32.2260   53.6400   58.9570 C.ar  153  TYR153     -0.0201
    130  CD1       32.5070   54.5710   57.9580 C.ar  153  TYR153     -0.0009
    131  CD2       31.2520   52.6730   58.6990 C.ar  153  TYR153     -0.0009
    132  CE1       31.8380   54.5390   56.7410 C.ar  153  TYR153      0.0417
    133  CE2       30.5750   52.6360   57.4920 C.ar  153  TYR153      0.0417
    134  CZ        30.8740   53.5680   56.5150 C.ar  153  TYR153      0.1957
    135  OH        30.2230   53.5170   55.3070 O.3   153  TYR153     -0.2866
    136  N         28.5350   43.9070   56.9620 N.3   170  ALA170     -0.1245
    137  CA        29.2710   44.8450   56.1290 C.3   170  ALA170      0.1562
    138  C         29.3950   44.2100   54.7440 C.2   170  ALA170      0.2260
    139  O         29.1310   44.8540   53.7370 O.2   170  ALA170     -0.2867
    140  CB        30.6610   45.1080   56.7130 C.3   170  ALA170      0.0290
    141  N         26.3830   44.5040   52.7780 N.3   173  MET173     -0.1230
    142  CA        26.2270   45.8260   52.1820 C.3   173  MET173      0.1702
    143  C         26.8900   45.8300   50.7980 C.2   173  MET173      0.2592
    144  O         26.2790   46.2360   49.8120 O.2   173  MET173     -0.2718
    145  CB        26.8530   46.9000   53.0920 C.3   173  MET173      0.0401
    146  CG        26.1760   47.0620   54.4490 C.3   173  MET173      0.0596
    147  SD        24.7930   48.2330   54.4190 S.3   173  MET173     -0.1393
    148  CE        23.8810   47.4700   53.2790 C.3   173  MET173      0.0692
    149  N         28.1310   45.3510   50.7250 N.am  174  GLY174     -0.1957
    150  CA        28.8290   45.3150   49.4510 C.3   174  GLY174      0.1869
    151  C         28.1290   44.4410   48.4270 C.2   174  GLY174      0.2309
    152  O         27.9170   44.8450   47.2750 O.2   174  GLY174     -0.2863
    153  N         24.9040   45.9120   46.7380 N.3   177  LEU177     -0.1231
    154  CA        25.2100   46.8830   45.6980 C.3   177  LEU177      0.1693
    155  C         25.6960   46.1910   44.4310 C.2   177  LEU177      0.2591
    156  O         25.0840   46.3100   43.3590 O.2   177  LEU177     -0.2718
    157  CB        26.2860   47.8670   46.1700 C.3   177  LEU177      0.0284
    158  CG        25.9320   48.7840   47.3370 C.3   177  LEU177      0.0019
    159  CD1       27.0880   49.7360   47.5910 C.3   177  LEU177      0.0001
    160  CD2       24.6650   49.5670   47.0080 C.3   177  LEU177      0.0001
    161  N         26.7950   45.4620   44.5730 N.am  178  GLN178     -0.1979
    162  CA        27.4160   44.7620   43.4620 C.3   178  GLN178      0.1601
    163  C         26.4590   43.8470   42.7080 C.2   178  GLN178      0.2287
    164  O         26.4660   43.8320   41.4810 O.2   178  GLN178     -0.2864
    165  CB        28.6160   43.9540   43.9670 C.3   178  GLN178      0.0394
    166  CG        29.5140   43.4370   42.8750 C.3   178  GLN178      0.0908
    167  CD        30.0190   44.5430   41.9790 C.2   178  GLN178      0.2608
    168  OE1       30.4340   45.6000   42.4500 O.2   178  GLN178     -0.2717
    169  NE2       29.9960   44.3000   40.6760 N.am  178  GLN178     -0.0878
    170  N         22.5750   46.4870   59.3840 N.3   244  TYR244     -0.1241
    171  CA        23.7790   47.3080   59.3930 C.3   244  TYR244      0.1605
    172  C         23.4210   48.7980   59.5380 C.2   244  TYR244      0.2264
    173  O         23.9640   49.4970   60.3950 O.2   244  TYR244     -0.2867
    174  CB        24.5910   47.0580   58.1080 C.3   244  TYR244      0.0534
    175  CG        25.9310   47.7620   58.0570 C.ar  244  TYR244     -0.0201
    176  CD1       26.0270   49.0970   57.6650 C.ar  244  TYR244     -0.0009
    177  CD2       27.1060   47.0970   58.4120 C.ar  244  TYR244     -0.0009
    178  CE1       27.2590   49.7520   57.6270 C.ar  244  TYR244      0.0417
    179  CE2       28.3410   47.7370   58.3770 C.ar  244  TYR244      0.0417
    180  CZ        28.4100   49.0720   57.9820 C.ar  244  TYR244      0.1957
    181  OH        29.6190   49.7300   57.9590 O.3   244  TYR244     -0.2866
    182  N         25.9590   58.4970   54.1630 N.3   256  PHE256     -0.1227
    183  CA        26.8870   57.9630   53.1690 C.3   256  PHE256      0.1736
    184  C         26.6770   56.4660   52.9810 C.2   256  PHE256      0.2596
    185  O         26.8100   55.9410   51.8750 O.2   256  PHE256     -0.2718
    186  CB        28.3380   58.2320   53.5920 C.3   256  PHE256      0.0547
    187  CG        29.3570   57.4650   52.7900 C.ar  256  PHE256     -0.0202
    188  CD1       29.8500   56.2410   53.2520 C.ar  256  PHE256     -0.0042
    189  CD2       29.7970   57.9390   51.5560 C.ar  256  PHE256     -0.0042
    190  CE1       30.7630   55.4970   52.5010 C.ar  256  PHE256     -0.0003
    191  CE2       30.7130   57.1970   50.7950 C.ar  256  PHE256     -0.0003
    192  CZ        31.1960   55.9680   51.2730 C.ar  256  PHE256     -0.0000
    193  N         26.3370   55.7780   54.0640 N.am  257  SER257     -0.1952
    194  CA        26.1410   54.3370   53.9880 C.3   257  SER257      0.1924
    195  C         24.7840   53.9670   53.4170 C.2   257  SER257      0.2314
    196  O         24.6890   53.0440   52.6220 O.2   257  SER257     -0.2863
    197  CB        26.3080   53.6950   55.3780 C.3   257  SER257      0.2116
    198  OG        27.5810   54.0030   55.9340 O.3   257  SER257     -0.2180
    199  N         23.4190   54.7740   48.9810 N.3   260  PRO260     -0.2102
    200  CA        23.7020   53.8080   47.9160 C.3   260  PRO260      0.1504
    201  C         22.7980   52.5770   48.0360 C.2   260  PRO260      0.2575
    202  O         22.3660   52.0100   47.0310 O.2   260  PRO260     -0.2718
    203  CB        25.1750   53.4620   48.1450 C.3   260  PRO260      0.0282
    204  CG        25.7240   54.6570   48.8020 C.3   260  PRO260      0.0208
    205  CD        24.6270   55.0340   49.7800 C.3   260  PRO260      0.0893
    206  N         22.5120   52.1630   49.2690 N.am  261  GLN261     -0.1980
    207  CA        21.6630   50.9960   49.4670 C.3   261  GLN261      0.1601
    208  C         20.2620   51.3110   48.9510 C.2   261  GLN261      0.2287
    209  O         19.6750   50.5210   48.2100 O.2   261  GLN261     -0.2864
    210  CB        21.6420   50.6060   50.9520 C.3   261  GLN261      0.0394
    211  CG        23.0320   50.2600   51.5080 C.3   261  GLN261      0.0908
    212  CD        23.6800   49.0760   50.7890 C.2   261  GLN261      0.2608
    213  OE1       22.9990   48.1520   50.3740 O.2   261  GLN261     -0.2717
    214  NE2       25.0010   49.0980   50.6610 N.am  261  GLN261     -0.0878
@<TRIPOS>BOND
     1    68    66    1
     2    72    71    2
     3    71    70    1
     4    66    65    2
     5    66    67    1
     6    76    74   ar
     7    65    64    1
     8    74    75   ar
     9    74    73    1
    10    70    73    1
    11    70    69    1
    12    61    60    2
    13    64    63    1
    14    88    87    2
    15    63    62    1
    16    60    59    1
    17    87    86    1
    18   169   167   am
    19    89    86    1
    20    89    90    1
    21    62    59    1
    22    59    58    1
    23    91    90    1
    24    91    92    1
    25    86    85    1
    26    49    48    1
    27   164   163    2
    28   167   168    2
    29   167   166    1
    30    53    52    2
    31    98    97    1
    32    47    48   ar
    33    47    45   ar
    34    58    52   am
    35    48    46   ar
    36   163   162    1
    37    52    51    1
    38   166   165    1
    39    99    97    1
    40     1     2    1
    41    97    94    1
    42   156   155    2
    43   162   165    1
    44   162   161    1
    45    45    43   ar
    46    46    44   ar
    47     8    10   ar
    48     8     6   ar
    49    10    11   ar
    50    41    40    2
    51    51    50    1
    52    51    54    1
    53    80    79    2
    54   155   161   am
    55   155   154    1
    56     2     5    1
    57     2     3    1
    58    94    93    1
    59    94    95    1
    60     5     6    1
    61    43    44   ar
    62    43    42    1
    63     3     4    2
    64     6     7   ar
    65    83    82    1
    66    83    84    1
    67    40    39    1
    68    54    55    1
    69    82    81    1
    70    96    95    2
    71    79    78    1
    72    95   100   am
    73    11     9   ar
    74   154   157    1
    75   154   153    1
    76    42    39    1
    77   100   101    1
    78   104   101    1
    79     7     9   ar
    80   157   158    1
    81    39    38    1
    82    81    78    1
    83    78    77    1
    84    55    57    1
    85    55    56    1
    86   101   102    1
    87   160   158    1
    88   202   201    2
    89    19    17    1
    90   152   151    2
    91   158   159    1
    92    30    29    2
    93    38    29   am
    94   111   109    1
    95   200   201    1
    96   200   203    1
    97   200   199    1
    98    29    28    1
    99   201   206   am
   100   203   204    1
   101    17    16    1
   102   209   208    2
   103   102   103    2
   104    16    18    1
   105    16    13    1
   106   151   150    1
   107    12    13    1
   108   204   205    1
   109   208   207    1
   110   199   205    1
   111   109   110    1
   112   109   106    1
   113    13    14    1
   114    27    28    1
   115    28    31    1
   116   206   207    1
   117    23    22    2
   118   150   149    1
   119   207   210    1
   120    14    15    2
   121   144   143    2
   122    22    21    1
   123   105   106    1
   124    33    35   ar
   125    33    32   ar
   126   106   107    1
   127   213   212    2
   128    31    32    1
   129    35    37   ar
   130    32    34   ar
   131   214   212   am
   132   149   143   am
   133   212   211    1
   134   191   192   ar
   135   191   189   ar
   136   143   142    1
   137    37    36   ar
   138   210   211    1
   139    34    36   ar
   140    25    24    1
   141   192   190   ar
   142   107   112   am
   143   107   108    2
   144   189   187   ar
   145    21    24    1
   146    21    20    1
   147   112   113    1
   148   122   121    1
   149   185   184    2
   150    24    26    1
   151   142   141    1
   152   142   145    1
   153   190   188   ar
   154   123   121    1
   155   121   120    1
   156   196   195    2
   157   187   188   ar
   158   187   186    1
   159   113   114    1
   160   184   183    1
   161   184   193   am
   162   145   146    1
   163   183   186    1
   164   183   182    1
   165   148   147    1
   166   195   194    1
   167   139   138    2
   168   194   193    1
   169   194   197    1
   170   120   117    1
   171   114   115    2
   172   147   146    1
   173   116   117    1
   174   138   137    1
   175   117   118    1
   176   135   134    1
   177   197   198    1
   178   137   140    1
   179   137   136    1
   180   118   119    2
   181   134   132   ar
   182   134   133   ar
   183   132   130   ar
   184   133   131   ar
   185   178   176   ar
   186   178   180   ar
   187   176   175   ar
   188   130   129   ar
   189   181   180    1
   190   180   179   ar
   191   175   174    1
   192   175   177   ar
   193   174   171    1
   194   179   177   ar
   195   131   129   ar
   196   129   128    1
   197   170   171    1
   198   171   172    1
   199   124   125    1
   200   172   173    2
   201   128   125    1
   202   125   126    1
   203   126   127    2
