@<TRIPOS>MOLECULE
tmp/3wcdE00.pdb
 180 171 0 0 0
SMALL
GASTEIGER

@<TRIPOS>ATOM
      1  N         16.1330  -19.7410  -45.9700 N.3    16  SER16      -0.1217
      2  CA        16.7620  -21.0550  -45.9290 C.3    16  SER16       0.1889
      3  C         15.7070  -22.1570  -46.0390 C.2    16  SER16       0.2288
      4  O         14.6800  -22.0980  -45.3790 O.2    16  SER16      -0.2866
      5  CB        17.5330  -21.2050  -44.6130 C.3    16  SER16       0.2089
      6  OG        18.3330  -20.0610  -44.3470 O.3    16  SER16      -0.2183
      7  N         17.5340  -25.9140  -44.4910 N.3    19  PHE19      -0.1241
      8  CA        17.9070  -25.7160  -43.1030 C.3    19  PHE19       0.1605
      9  C         16.7430  -25.3850  -42.1810 C.2    19  PHE19       0.2264
     10  O         16.7520  -25.7700  -41.0140 O.2    19  PHE19      -0.2867
     11  CB        18.9850  -24.6310  -43.0040 C.3    19  PHE19       0.0534
     12  CG        20.3100  -25.0310  -43.6110 C.ar   19  PHE19      -0.0203
     13  CD1       20.6020  -24.7460  -44.9440 C.ar   19  PHE19      -0.0042
     14  CD2       21.2650  -25.7090  -42.8480 C.ar   19  PHE19      -0.0042
     15  CE1       21.8300  -25.1310  -45.5080 C.ar   19  PHE19      -0.0003
     16  CE2       22.4930  -26.0990  -43.4010 C.ar   19  PHE19      -0.0003
     17  CZ        22.7750  -25.8090  -44.7320 C.ar   19  PHE19      -0.0000
     18  N         21.2920  -17.6530  -38.8830 N.3    38  TYR38      -0.1241
     19  CA        21.0440  -17.8200  -40.3000 C.3    38  TYR38       0.1605
     20  C         20.3580  -16.6100  -40.9180 C.2    38  TYR38       0.2264
     21  O         20.4610  -16.3900  -42.1250 O.2    38  TYR38      -0.2867
     22  CB        20.2200  -19.0830  -40.5510 C.3    38  TYR38       0.0534
     23  CG        21.0720  -20.2690  -40.9390 C.ar   38  TYR38      -0.0201
     24  CD1       20.9420  -20.8610  -42.1930 C.ar   38  TYR38      -0.0009
     25  CD2       22.0380  -20.7740  -40.0690 C.ar   38  TYR38      -0.0009
     26  CE1       21.7530  -21.9220  -42.5710 C.ar   38  TYR38       0.0417
     27  CE2       22.8540  -21.8380  -40.4390 C.ar   38  TYR38       0.0417
     28  CZ        22.7040  -22.4030  -41.6910 C.ar   38  TYR38       0.1957
     29  OH        23.5050  -23.4530  -42.0670 O.3    38  TYR38      -0.2866
     30  N         23.1220  -13.7420  -41.2940 N.3    41  LEU41      -0.1231
     31  CA        24.0140  -14.2410  -42.3360 C.3    41  LEU41       0.1693
     32  C         23.3580  -14.0400  -43.6940 C.2    41  LEU41       0.2591
     33  O         24.0170  -13.6530  -44.6540 O.2    41  LEU41      -0.2718
     34  CB        24.3390  -15.7260  -42.1200 C.3    41  LEU41       0.0284
     35  CG        25.3640  -16.0490  -41.0270 C.3    41  LEU41       0.0019
     36  CD1       25.5770  -17.5480  -40.9310 C.3    41  LEU41       0.0001
     37  CD2       26.6740  -15.3550  -41.3420 C.3    41  LEU41       0.0001
     38  N         22.0580  -14.2970  -43.7780 N.am   42  ARG42      -0.1980
     39  CA        21.3540  -14.1020  -45.0340 C.3    42  ARG42       0.1597
     40  C         21.3180  -12.6060  -45.3540 C.2    42  ARG42       0.2287
     41  O         21.4890  -12.2010  -46.5030 O.2    42  ARG42      -0.2864
     42  CB        19.9360  -14.6710  -44.9490 C.3    42  ARG42       0.0334
     43  CG        19.0620  -14.3530  -46.1600 C.3    42  ARG42       0.0492
     44  CD        19.6910  -14.7840  -47.4890 C.3    42  ARG42       0.2205
     45  NE        19.7840  -16.2370  -47.6450 N.pl3  42  ARG42      -0.0865
     46  CZ        20.9000  -16.9540  -47.4970 C.cat  42  ARG42       0.5346
     47  NH1       22.0540  -16.3680  -47.1820 N.pl3  42  ARG42       0.1354
     48  NH2       20.8630  -18.2700  -47.6750 N.pl3  42  ARG42       0.1354
     49  N         24.5830  -11.6400  -46.5490 N.3    45  ASP45      -0.1239
     50  CA        24.7460  -12.2620  -47.8550 C.3    45  ASP45       0.1674
     51  C         23.9980  -11.4780  -48.9240 C.2    45  ASP45       0.2266
     52  O         24.4840  -11.3270  -50.0460 O.2    45  ASP45      -0.2867
     53  CB        24.2380  -13.7080  -47.8150 C.3    45  ASP45       0.1410
     54  CG        24.9960  -14.6210  -48.7630 C.2    45  ASP45       0.3668
     55  OD1       24.8680  -14.4470  -49.9960 O.co2  45  ASP45      -0.2456
     56  OD2       25.7280  -15.5080  -48.2640 O.co2  45  ASP45      -0.2456
     57  N         32.8380  -16.9690  -46.4680 N.3   140  VAL140     -0.1231
     58  CA        31.4000  -17.1030  -46.6770 C.3   140  VAL140      0.1692
     59  C         30.8000  -18.4480  -46.2750 C.2   140  VAL140      0.2591
     60  O         29.5790  -18.6380  -46.3850 O.2   140  VAL140     -0.2718
     61  CB        31.0470  -16.8450  -48.1490 C.3   140  VAL140      0.0266
     62  CG1       31.6400  -15.5190  -48.5980 C.3   140  VAL140      0.0020
     63  CG2       31.5680  -17.9800  -49.0080 C.3   140  VAL140      0.0020
     64  N         31.6380  -19.3740  -45.8080 N.am  141  ALA141     -0.1980
     65  CA        31.1430  -20.6890  -45.4180 C.3   141  ALA141      0.1597
     66  C         31.9610  -21.3330  -44.3100 C.2   141  ALA141      0.2287
     67  O         31.4070  -21.9000  -43.3740 O.2   141  ALA141     -0.2864
     68  CB        31.1030  -21.6030  -46.6270 C.3   141  ALA141      0.0319
     69  N         31.0720  -19.8990  -41.2020 N.3   144  VAL144     -0.1231
     70  CA        29.7270  -20.2850  -40.7700 C.3   144  VAL144      0.1692
     71  C         29.8010  -21.6850  -40.1910 C.2   144  VAL144      0.2592
     72  O         28.9320  -22.1040  -39.4330 O.2   144  VAL144     -0.2718
     73  CB        28.7050  -20.3030  -41.9210 C.3   144  VAL144      0.0266
     74  CG1       27.3140  -20.6000  -41.3710 C.3   144  VAL144      0.0020
     75  CG2       28.7050  -18.9770  -42.6370 C.3   144  VAL144      0.0020
     76  N         30.8420  -22.4150  -40.5680 N.am  145  GLY145     -0.1957
     77  CA        31.0180  -23.7490  -40.0370 C.3   145  GLY145      0.1869
     78  C         31.5240  -23.5420  -38.6280 C.2   145  GLY145      0.2309
     79  O         31.0880  -24.2090  -37.6900 O.2   145  GLY145     -0.2863
     80  N         28.6060  -21.7600  -36.1190 N.3   148  LEU148     -0.1245
     81  CA        27.7080  -22.7610  -35.5720 C.3   148  LEU148      0.1561
     82  C         28.4140  -23.6180  -34.5350 C.2   148  LEU148      0.2260
     83  O         27.9000  -23.8200  -33.4350 O.2   148  LEU148     -0.2867
     84  CB        27.1870  -23.6610  -36.6890 C.3   148  LEU148      0.0270
     85  CG        26.4730  -22.9760  -37.8470 C.3   148  LEU148      0.0019
     86  CD1       26.3030  -23.9740  -38.9920 C.3   148  LEU148      0.0001
     87  CD2       25.1340  -22.4350  -37.3760 C.3   148  LEU148      0.0001
     88  N         27.4050  -24.4020  -30.8050 N.3   152  PHE152     -0.1241
     89  CA        27.1200  -25.7520  -30.3050 C.3   152  PHE152      0.1605
     90  C         27.8440  -25.9990  -28.9850 C.2   152  PHE152      0.2264
     91  O         27.2870  -26.6060  -28.0680 O.2   152  PHE152     -0.2867
     92  CB        27.5610  -26.8410  -31.2990 C.3   152  PHE152      0.0534
     93  CG        26.8320  -26.8170  -32.6160 C.ar  152  PHE152     -0.0203
     94  CD1       25.4980  -26.4310  -32.6930 C.ar  152  PHE152     -0.0042
     95  CD2       27.4810  -27.2080  -33.7820 C.ar  152  PHE152     -0.0042
     96  CE1       24.8220  -26.4330  -33.9120 C.ar  152  PHE152     -0.0003
     97  CE2       26.8130  -27.2130  -35.0050 C.ar  152  PHE152     -0.0003
     98  CZ        25.4800  -26.8250  -35.0690 C.ar  152  PHE152     -0.0000
     99  N         34.0060  -28.1830  -43.0230 N.3   172  MET172     -0.1230
    100  CA        32.5760  -28.4200  -43.1090 C.3   172  MET172      0.1702
    101  C         31.9340  -27.3780  -44.0040 C.2   172  MET172      0.2592
    102  O         31.1390  -27.7030  -44.8800 O.2   172  MET172     -0.2718
    103  CB        31.9380  -28.3720  -41.7220 C.3   172  MET172      0.0401
    104  CG        32.3180  -29.5390  -40.8220 C.3   172  MET172      0.0596
    105  SD        31.7170  -31.1230  -41.4290 S.3   172  MET172     -0.1393
    106  CE        30.1240  -31.1600  -40.7250 C.3   172  MET172      0.0692
    107  N         32.2850  -26.1200  -43.7900 N.am  173  GLY173     -0.1957
    108  CA        31.7080  -25.0680  -44.5990 C.3   173  GLY173      0.1869
    109  C         32.3040  -25.0290  -45.9880 C.2   173  GLY173      0.2309
    110  O         31.6460  -24.6100  -46.9420 O.2   173  GLY173     -0.2863
    111  N         30.5560  -27.6130  -48.5140 N.3   176  LEU176     -0.1231
    112  CA        29.2870  -27.1860  -49.0730 C.3   176  LEU176      0.1693
    113  C         29.4630  -26.0790  -50.1130 C.2   176  LEU176      0.2591
    114  O         29.0030  -26.2080  -51.2510 O.2   176  LEU176     -0.2718
    115  CB        28.3510  -26.7000  -47.9670 C.3   176  LEU176      0.0284
    116  CG        28.0100  -27.6790  -46.8450 C.3   176  LEU176      0.0019
    117  CD1       26.6460  -27.3100  -46.2640 C.3   176  LEU176      0.0001
    118  CD2       27.9720  -29.1000  -47.3830 C.3   176  LEU176      0.0001
    119  N         30.1240  -24.9930  -49.7180 N.am  177  GLN177     -0.1979
    120  CA        30.3470  -23.8640  -50.6110 C.3   177  GLN177      0.1601
    121  C         30.9370  -24.3070  -51.9440 C.2   177  GLN177      0.2287
    122  O         30.5250  -23.8490  -53.0100 O.2   177  GLN177     -0.2864
    123  CB        31.2770  -22.8520  -49.9530 C.3   177  GLN177      0.0394
    124  CG        31.2180  -21.4850  -50.5960 C.3   177  GLN177      0.0908
    125  CD        29.7910  -21.0570  -50.8850 C.2   177  GLN177      0.2608
    126  OE1       28.8590  -21.5040  -50.2260 O.2   177  GLN177     -0.2717
    127  NE2       29.6170  -20.1840  -51.8650 N.am  177  GLN177     -0.0878
    128  N         28.3210  -26.3380  -53.8660 N.3   180  ASN180     -0.1240
    129  CA        27.3420  -25.4340  -54.4680 C.3   180  ASN180      0.1653
    130  C         27.9530  -24.6110  -55.6060 C.2   180  ASN180      0.2266
    131  O         27.3440  -24.4520  -56.6620 O.2   180  ASN180     -0.2867
    132  CB        26.7560  -24.4800  -53.4220 C.3   180  ASN180      0.1155
    133  CG        25.8890  -25.1900  -52.4050 C.2   180  ASN180      0.2627
    134  OD1       25.0580  -26.0360  -52.7500 O.2   180  ASN180     -0.2716
    135  ND2       26.0640  -24.8360  -51.1390 N.am  180  ASN180     -0.0877
    136  N         34.6420  -34.5700  -38.2780 N.3   241  TYR241     -0.1241
    137  CA        33.8000  -33.6310  -37.5630 C.3   241  TYR241      0.1605
    138  C         32.5290  -34.2890  -37.0310 C.2   241  TYR241      0.2264
    139  O         32.1970  -34.1460  -35.8520 O.2   241  TYR241     -0.2867
    140  CB        33.4530  -32.4590  -38.4760 C.3   241  TYR241      0.0534
    141  CG        32.6270  -31.3950  -37.8100 C.ar  241  TYR241     -0.0201
    142  CD1       31.2400  -31.4630  -37.8110 C.ar  241  TYR241     -0.0009
    143  CD2       33.2340  -30.3200  -37.1620 C.ar  241  TYR241     -0.0009
    144  CE1       30.4740  -30.4820  -37.1840 C.ar  241  TYR241      0.0417
    145  CE2       32.4760  -29.3330  -36.5260 C.ar  241  TYR241      0.0417
    146  CZ        31.0990  -29.4210  -36.5420 C.ar  241  TYR241      0.1957
    147  OH        30.3500  -28.4590  -35.9080 O.3   241  TYR241     -0.2866
    148  N         21.3720  -31.8340  -38.0960 N.3   253  PHE253     -0.1227
    149  CA        21.6580  -30.5390  -38.6980 C.3   253  PHE253      0.1736
    150  C         22.9510  -30.5540  -39.5170 C.2   253  PHE253      0.2595
    151  O         23.0560  -29.8890  -40.5520 O.2   253  PHE253     -0.2718
    152  CB        21.7550  -29.4700  -37.6080 C.3   253  PHE253      0.0547
    153  CG        21.9730  -28.0910  -38.1420 C.ar  253  PHE253     -0.0202
    154  CD1       20.9570  -27.4260  -38.8090 C.ar  253  PHE253     -0.0042
    155  CD2       23.2010  -27.4630  -37.9930 C.ar  253  PHE253     -0.0042
    156  CE1       21.1550  -26.1550  -39.3220 C.ar  253  PHE253     -0.0003
    157  CE2       23.4120  -26.1910  -38.5030 C.ar  253  PHE253     -0.0003
    158  CZ        22.3860  -25.5330  -39.1690 C.ar  253  PHE253     -0.0000
    159  N         23.9290  -31.3260  -39.0480 N.am  254  CYS254     -0.1970
    160  CA        25.2170  -31.4020  -39.7080 C.3   254  CYS254      0.1712
    161  C         25.3770  -32.5130  -40.7410 C.2   254  CYS254      0.2296
    162  O         25.8760  -32.2720  -41.8380 O.2   254  CYS254     -0.2864
    163  CB        26.3220  -31.4970  -38.6550 C.3   254  CYS254      0.0983
    164  SG        26.4080  -30.0240  -37.5790 S.3   254  CYS254     -0.0798
    165  N         23.0030  -31.8430  -44.6260 N.3   257  PRO257     -0.2102
    166  CA        23.5930  -31.0460  -45.7050 C.3   257  PRO257      0.1504
    167  C         24.8850  -31.6010  -46.3120 C.2   257  PRO257      0.2575
    168  O         25.1160  -31.4540  -47.5150 O.2   257  PRO257     -0.2718
    169  CB        23.7860  -29.6830  -45.0510 C.3   257  PRO257      0.0282
    170  CG        22.6320  -29.6150  -44.1180 C.3   257  PRO257      0.0208
    171  CD        22.6850  -30.9800  -43.4760 C.3   257  PRO257      0.0893
    172  N         25.7170  -32.2390  -45.4880 N.am  258  GLN258     -0.1980
    173  CA        26.9720  -32.8010  -45.9700 C.3   258  GLN258      0.1601
    174  C         26.7080  -34.0070  -46.8650 C.2   258  GLN258      0.2287
    175  O         27.3030  -34.1250  -47.9430 O.2   258  GLN258     -0.2864
    176  CB        27.8650  -33.2180  -44.8010 C.3   258  GLN258      0.0394
    177  CG        28.3350  -32.0860  -43.9200 C.3   258  GLN258      0.0908
    178  CD        29.1150  -31.0400  -44.6780 C.2   258  GLN258      0.2608
    179  OE1       30.0090  -31.3620  -45.4510 O.2   258  GLN258     -0.2717
    180  NE2       28.7910  -29.7720  -44.4490 N.am  258  GLN258     -0.0878
@<TRIPOS>BOND
     1   131   130    2
     2   130   129    1
     3   129   128    1
     4   129   132    1
     5   132   133    1
     6   122   121    2
     7   134   133    2
     8   133   135   am
     9   121   120    1
    10   127   125   am
    11   114   113    2
    12   125   124    1
    13   125   126    2
    14   120   123    1
    15   120   119    1
    16   124   123    1
    17   113   119   am
    18   113   112    1
    19    52    51    2
    20    55    54   ar
    21   112   111    1
    22   112   115    1
    23    63    61    1
    24    51    50    1
    25    54    56   ar
    26    54    53    1
    27    62    61    1
    28    61    58    1
    29   115   116    1
    30   175   174    2
    31    50    53    1
    32    50    49    1
    33    48    46    1
    34    45    46    2
    35    45    44    1
    36   168   167    2
    37    46    47    1
    38    44    43    1
    39   118   116    1
    40   110   109    2
    41   174   173    1
    42   116   117    1
    43    58    57    1
    44    58    59    1
    45    68    65    1
    46    41    40    2
    47    60    59    2
    48   167   166    1
    49   167   172   am
    50    59    64   am
    51    43    42    1
    52     3     2    1
    53     3     4    2
    54   109   108    1
    55     1     2    1
    56   173   172    1
    57   173   176    1
    58     2     5    1
    59    64    65    1
    60   166   169    1
    61   166   165    1
    62    15    13   ar
    63    15    17   ar
    64   179   178    2
    65    65    66    1
    66    40    39    1
    67   169   170    1
    68    39    42    1
    69    39    38    1
    70    13    12   ar
    71   102   101    2
    72   176   177    1
    73    17    16   ar
    74   178   180   am
    75   178   177    1
    76    33    32    2
    77   165   171    1
    78     5     6    1
    79   108   107    1
    80     7     8    1
    81    66    67    2
    82   170   171    1
    83   101   107   am
    84   101   100    1
    85    38    32   am
    86    32    31    1
    87    12    11    1
    88    12    14   ar
    89    16    14   ar
    90   100    99    1
    91   100   103    1
    92     8    11    1
    93     8     9    1
    94    75    73    1
    95    26    24   ar
    96    26    28   ar
    97    31    34    1
    98    31    30    1
    99    24    23   ar
   100     9    10    2
   101    21    20    2
   102    34    35    1
   103    29    28    1
   104    73    74    1
   105    73    70    1
   106   162   161    2
   107   103   104    1
   108    28    27   ar
   109   105   104    1
   110   105   106    1
   111    37    35    1
   112    69    70    1
   113    35    36    1
   114    23    22    1
   115    23    25   ar
   116    20    19    1
   117    70    71    1
   118   161   160    1
   119    76    71   am
   120    76    77    1
   121   151   150    2
   122    22    19    1
   123    27    25   ar
   124    19    18    1
   125    71    72    2
   126    77    78    1
   127   160   159    1
   128   160   163    1
   129   150   159   am
   130   150   149    1
   131   156   158   ar
   132   156   154   ar
   133   158   157   ar
   134    86    85    1
   135   154   153   ar
   136   149   148    1
   137   149   152    1
   138   163   164    1
   139    78    79    2
   140   157   155   ar
   141   140   141    1
   142   140   137    1
   143   136   137    1
   144   153   155   ar
   145   153   152    1
   146    85    87    1
   147    85    84    1
   148   142   141   ar
   149   142   144   ar
   150   141   143   ar
   151   137   138    1
   152   144   146   ar
   153   143   145   ar
   154   138   139    2
   155    84    81    1
   156   146   145   ar
   157   146   147    1
   158    80    81    1
   159    81    82    1
   160    98    97   ar
   161    98    96   ar
   162    97    95   ar
   163    82    83    2
   164    96    94   ar
   165    95    93   ar
   166    94    93   ar
   167    93    92    1
   168    92    89    1
   169    88    89    1
   170    89    90    1
   171    90    91    2
