@<TRIPOS>MOLECULE
tmp/3wceD00.pdb
 209 198 0 0 0
SMALL
GASTEIGER

@<TRIPOS>ATOM
      1  N         59.8300   13.3120   11.2380 N.3    18  PHE18      -0.1241
      2  CA        60.3010   13.8380    9.9640 C.3    18  PHE18       0.1605
      3  C         61.7370   13.3930    9.7130 C.2    18  PHE18       0.2264
      4  O         62.1570   13.2340    8.5670 O.2    18  PHE18      -0.2867
      5  CB        60.2290   15.3670    9.9590 C.3    18  PHE18       0.0534
      6  CG        60.5150   15.9800    8.6170 C.ar   18  PHE18      -0.0203
      7  CD1       59.6370   15.7960    7.5540 C.ar   18  PHE18      -0.0042
      8  CD2       61.6690   16.7290    8.4100 C.ar   18  PHE18      -0.0042
      9  CE1       59.9040   16.3470    6.3030 C.ar   18  PHE18      -0.0003
     10  CE2       61.9450   17.2850    7.1620 C.ar   18  PHE18      -0.0003
     11  CZ        61.0610   17.0930    6.1070 C.ar   18  PHE18      -0.0000
     12  N         66.8320   19.1160    1.7800 N.3    33  VAL33      -0.1245
     13  CA        65.5910   19.1660    2.5400 C.3    33  VAL33       0.1561
     14  C         65.9000   19.3530    4.0200 C.2    33  VAL33       0.2260
     15  O         65.1950   20.0760    4.7240 O.2    33  VAL33      -0.2867
     16  CB        64.7740   17.8690    2.3550 C.3    33  VAL33       0.0252
     17  CG1       63.5140   17.9180    3.2040 C.3    33  VAL33       0.0019
     18  CG2       64.4160   17.6880    0.8880 C.3    33  VAL33       0.0019
     19  N         66.9610   22.8050    4.6950 N.3    36  PHE36      -0.1227
     20  CA        65.7500   23.5730    4.4390 C.3    36  PHE36       0.1736
     21  C         64.8450   23.5650    5.6680 C.2    36  PHE36       0.2595
     22  O         64.2700   24.5920    6.0340 O.2    36  PHE36      -0.2718
     23  CB        65.0150   22.9920    3.2250 C.3    36  PHE36       0.0547
     24  CG        63.7510   23.7240    2.8650 C.ar   36  PHE36      -0.0202
     25  CD1       63.6700   25.1090    2.9860 C.ar   36  PHE36      -0.0042
     26  CD2       62.6500   23.0310    2.3750 C.ar   36  PHE36      -0.0042
     27  CE1       62.5130   25.7920    2.6230 C.ar   36  PHE36      -0.0003
     28  CE2       61.4860   23.7040    2.0080 C.ar   36  PHE36      -0.0003
     29  CZ        61.4190   25.0880    2.1320 C.ar   36  PHE36      -0.0000
     30  N         64.7290   22.4040    6.3050 N.am   37  TYR37      -0.1976
     31  CA        63.9010   22.2660    7.4970 C.3    37  TYR37       0.1639
     32  C         64.4930   23.0700    8.6500 C.2    37  TYR37       0.2290
     33  O         63.8210   23.9110    9.2460 O.2    37  TYR37      -0.2864
     34  CB        63.8050   20.7980    7.9180 C.3    37  TYR37       0.0560
     35  CG        63.0010   20.5880    9.1830 C.ar   37  TYR37      -0.0198
     36  CD1       61.6180   20.4200    9.1340 C.ar   37  TYR37      -0.0009
     37  CD2       63.6180   20.5970   10.4330 C.ar   37  TYR37      -0.0009
     38  CE1       60.8700   20.2670   10.2990 C.ar   37  TYR37       0.0417
     39  CE2       62.8800   20.4480   11.6040 C.ar   37  TYR37       0.0417
     40  CZ        61.5070   20.2840   11.5310 C.ar   37  TYR37       0.1957
     41  OH        60.7720   20.1460   12.6860 O.3    37  TYR37      -0.2866
     42  N         64.0500   26.7970    8.6000 N.3    40  LEU40      -0.1231
     43  CA        62.6660   27.1380    8.9080 C.3    40  LEU40       0.1693
     44  C         62.3420   26.9980   10.3930 C.2    40  LEU40       0.2591
     45  O         61.6560   27.8470   10.9630 O.2    40  LEU40      -0.2718
     46  CB        61.7160   26.2720    8.0780 C.3    40  LEU40       0.0284
     47  CG        61.8170   26.4720    6.5640 C.3    40  LEU40       0.0019
     48  CD1       60.8670   25.5230    5.8580 C.3    40  LEU40       0.0001
     49  CD2       61.4900   27.9160    6.2110 C.3    40  LEU40       0.0001
     50  N         62.8220   25.9270   11.0190 N.am   41  ARG41      -0.1980
     51  CA        62.5780   25.7280   12.4420 C.3    41  ARG41       0.1597
     52  C         63.3520   26.7900   13.2070 C.2    41  ARG41       0.2287
     53  O         62.8570   27.3550   14.1830 O.2    41  ARG41      -0.2864
     54  CB        63.0140   24.3210   12.8760 C.3    41  ARG41       0.0334
     55  CG        63.2530   24.1440   14.3800 C.3    41  ARG41       0.0492
     56  CD        62.1500   24.7450   15.2510 C.3    41  ARG41       0.2205
     57  NE        60.8410   24.1330   15.0400 N.pl3  41  ARG41      -0.0865
     58  CZ        59.7400   24.4930   15.6930 C.cat  41  ARG41       0.5346
     59  NH1       59.7890   25.4630   16.5980 N.pl3  41  ARG41       0.1354
     60  NH2       58.5880   23.8850   15.4430 N.pl3  41  ARG41       0.1354
     61  N         61.0110   29.6040   12.9770 N.3    44  ASP44      -0.1239
     62  CA        59.8420   29.4670   13.8390 C.3    44  ASP44       0.1674
     63  C         60.2300   29.6460   15.3020 C.2    44  ASP44       0.2266
     64  O         59.4490   30.1570   16.1030 O.2    44  ASP44      -0.2867
     65  CB        59.1980   28.0920   13.6410 C.3    44  ASP44       0.1410
     66  CG        57.9920   27.8790   14.5350 C.2    44  ASP44       0.3668
     67  OD1       57.0390   28.6820   14.4520 O.co2  44  ASP44      -0.2456
     68  OD2       57.9960   26.9090   15.3210 O.co2  44  ASP44      -0.2456
     69  N         58.1180   33.4550    4.0390 N.3   115  MET115     -0.1245
     70  CA        57.5680   32.8930    5.2660 C.3   115  MET115      0.1570
     71  C         57.7770   33.8340    6.4480 C.2   115  MET115      0.2261
     72  O         56.8490   34.0960    7.2140 O.2   115  MET115     -0.2867
     73  CB        58.2230   31.5430    5.5670 C.3   115  MET115      0.0387
     74  CG        57.6280   30.8230    6.7670 C.3   115  MET115      0.0595
     75  SD        58.5080   29.3140    7.2170 S.3   115  MET115     -0.1393
     76  CE        57.6350   28.1070    6.2290 C.3   115  MET115      0.0692
     77  N         55.0030   35.7700    8.7930 N.3   119  MET119     -0.1245
     78  CA        54.9740   35.6320   10.2430 C.3   119  MET119      0.1570
     79  C         54.8790   37.0050   10.8910 C.2   119  MET119      0.2261
     80  O         54.2290   37.1730   11.9230 O.2   119  MET119     -0.2867
     81  CB        56.2330   34.9160   10.7360 C.3   119  MET119      0.0387
     82  CG        56.1530   33.4010   10.6570 C.3   119  MET119      0.0595
     83  SD        57.6650   32.5920   11.2070 S.3   119  MET119     -0.1393
     84  CE        57.9940   31.5340    9.8320 C.3   119  MET119      0.0692
     85  N         53.4880   29.3850    6.8070 N.3   140  VAL140     -0.1231
     86  CA        54.2000   28.3760    7.5810 C.3   140  VAL140      0.1692
     87  C         54.2190   26.9820    6.9570 C.2   140  VAL140      0.2591
     88  O         55.2460   26.3040    6.9780 O.2   140  VAL140     -0.2718
     89  CB        53.6140   28.2680    9.0090 C.3   140  VAL140      0.0266
     90  CG1       53.6730   29.6250    9.6950 C.3   140  VAL140      0.0020
     91  CG2       52.1810   27.7640    8.9540 C.3   140  VAL140      0.0020
     92  N         53.0890   26.5540    6.4030 N.am  141  ALA141     -0.1980
     93  CA        52.9950   25.2300    5.8000 C.3   141  ALA141      0.1597
     94  C         52.9370   25.2640    4.2770 C.2   141  ALA141      0.2287
     95  O         53.7930   24.6890    3.6030 O.2   141  ALA141     -0.2864
     96  CB        51.7760   24.5020    6.3470 C.3   141  ALA141      0.0319
     97  N         56.0570   25.6260    2.3480 N.3   144  VAL144     -0.1231
     98  CA        56.9570   24.4820    2.4080 C.3   144  VAL144      0.1692
     99  C         56.6000   23.5910    1.2250 C.2   144  VAL144      0.2592
    100  O         57.4510   22.8900    0.6770 O.2   144  VAL144     -0.2718
    101  CB        56.7800   23.6830    3.7150 C.3   144  VAL144      0.0266
    102  CG1       57.7850   22.5420    3.7640 C.3   144  VAL144      0.0020
    103  CG2       56.9580   24.6000    4.9140 C.3   144  VAL144      0.0020
    104  N         55.3280   23.6330    0.8390 N.am  145  GLY145     -0.1957
    105  CA        54.8660   22.8490   -0.2900 C.3   145  GLY145      0.1869
    106  C         55.4770   23.4010   -1.5620 C.2   145  GLY145      0.2309
    107  O         56.0170   22.6540   -2.3770 O.2   145  GLY145     -0.2863
    108  N         59.4950   22.5310   -1.3760 N.3   148  LEU148     -0.1231
    109  CA        59.7750   21.1340   -1.6830 C.3   148  LEU148      0.1693
    110  C         59.4820   20.8390   -3.1480 C.2   148  LEU148      0.2592
    111  O         60.2900   20.2150   -3.8340 O.2   148  LEU148     -0.2718
    112  CB        58.9430   20.2120   -0.7860 C.3   148  LEU148      0.0284
    113  CG        59.3070   20.2150    0.7020 C.3   148  LEU148      0.0019
    114  CD1       58.3790   19.2810    1.4600 C.3   148  LEU148      0.0001
    115  CD2       60.7560   19.7810    0.8770 C.3   148  LEU148      0.0001
    116  N         58.3280   21.2980   -3.6240 N.am  149  THR149     -0.1953
    117  CA        57.9440   21.0870   -5.0140 C.3   149  THR149      0.1897
    118  C         59.0250   21.6460   -5.9310 C.2   149  THR149      0.2313
    119  O         59.4280   21.0000   -6.8970 O.2   149  THR149     -0.2863
    120  CB        56.6080   21.7840   -5.3430 C.3   149  THR149      0.1794
    121  OG1       55.5580   21.2050   -4.5580 O.3   149  THR149     -0.2208
    122  CG2       56.2750   21.6260   -6.8190 C.3   149  THR149      0.0378
    123  N         62.1350   19.6130   -5.8220 N.3   152  TYR152     -0.1241
    124  CA        61.9100   18.3790   -6.5680 C.3   152  TYR152      0.1605
    125  C         62.2430   18.6170   -8.0350 C.2   152  TYR152      0.2264
    126  O         63.0010   17.8650   -8.6470 O.2   152  TYR152     -0.2867
    127  CB        60.4480   17.9230   -6.4760 C.3   152  TYR152      0.0534
    128  CG        59.9510   17.5700   -5.0900 C.ar  152  TYR152     -0.0201
    129  CD1       60.8250   17.1270   -4.0970 C.ar  152  TYR152     -0.0009
    130  CD2       58.5910   17.6420   -4.7860 C.ar  152  TYR152     -0.0009
    131  CE1       60.3540   16.7640   -2.8340 C.ar  152  TYR152      0.0417
    132  CE2       58.1110   17.2800   -3.5300 C.ar  152  TYR152      0.0417
    133  CZ        58.9960   16.8430   -2.5590 C.ar  152  TYR152      0.1957
    134  OH        58.5230   16.4870   -1.3170 O.3   152  TYR152     -0.2866
    135  N         48.8910   20.4860    0.2260 N.3   172  MET172     -0.1230
    136  CA        49.6500   19.4820    0.9590 C.3   172  MET172      0.1702
    137  C         50.0710   20.0850    2.2950 C.2   172  MET172      0.2592
    138  O         49.9400   19.4570    3.3460 O.2   172  MET172     -0.2718
    139  CB        50.8970   19.0780    0.1680 C.3   172  MET172      0.0401
    140  CG        50.6150   18.3340   -1.1260 C.3   172  MET172      0.0596
    141  SD        50.1380   16.6200   -0.8580 S.3   172  MET172     -0.1393
    142  CE        51.7410   15.8140   -0.9320 C.3   172  MET172      0.0692
    143  N         50.5710   21.3170    2.2350 N.am  173  GLY173     -0.1957
    144  CA        51.0200   22.0050    3.4310 C.3   173  GLY173      0.1869
    145  C         49.9160   22.3520    4.4100 C.2   173  GLY173      0.2309
    146  O         50.0470   22.1040    5.6080 O.2   173  GLY173     -0.2863
    147  N         48.5040   19.2020    6.2500 N.3   176  LEU176     -0.1231
    148  CA        49.4030   18.7680    7.3120 C.3   176  LEU176      0.1693
    149  C         49.3380   19.6940    8.5190 C.2   176  LEU176      0.2591
    150  O         49.1910   19.2400    9.6530 O.2   176  LEU176     -0.2718
    151  CB        50.8460   18.7120    6.8020 C.3   176  LEU176      0.0284
    152  CG        51.2060   17.6290    5.7850 C.3   176  LEU176      0.0019
    153  CD1       52.6600   17.7870    5.3690 C.3   176  LEU176      0.0001
    154  CD2       50.9730   16.2550    6.3930 C.3   176  LEU176      0.0001
    155  N         49.4460   20.9940    8.2670 N.am  177  GLN177     -0.1979
    156  CA        49.4190   21.9880    9.3330 C.3   177  GLN177      0.1601
    157  C         48.0870   22.0230   10.0730 C.2   177  GLN177      0.2287
    158  O         48.0450   21.8860   11.2960 O.2   177  GLN177     -0.2864
    159  CB        49.7220   23.3750    8.7620 C.3   177  GLN177      0.0394
    160  CG        50.0100   24.4270    9.8190 C.3   177  GLN177      0.0908
    161  CD        51.2460   24.1040   10.6370 C.2   177  GLN177      0.2608
    162  OE1       52.3520   24.0070   10.1020 O.2   177  GLN177     -0.2717
    163  NE2       51.0650   23.9330   11.9410 N.am  177  GLN177     -0.0878
    164  N         47.4670   19.3340   12.4340 N.3   180  ASN180     -0.1240
    165  CA        48.2470   19.4630   13.6600 C.3   180  ASN180      0.1653
    166  C         47.6240   20.4880   14.6010 C.2   180  ASN180      0.2266
    167  O         47.6620   20.3270   15.8200 O.2   180  ASN180     -0.2867
    168  CB        49.6890   19.8710   13.3400 C.3   180  ASN180      0.1155
    169  CG        50.4950   18.7390   12.7280 C.2   180  ASN180      0.2627
    170  OD1       50.6020   17.6550   13.3050 O.2   180  ASN180     -0.2716
    171  ND2       51.0730   18.9860   11.5580 N.am  180  ASN180     -0.0877
    172  N         47.9750   15.8110   -6.1980 N.3   243  TYR243     -0.1241
    173  CA        49.4090   16.0690   -6.1680 C.3   243  TYR243      0.1605
    174  C         50.2060   14.7690   -6.1030 C.2   243  TYR243      0.2264
    175  O         51.0840   14.5320   -6.9310 O.2   243  TYR243     -0.2867
    176  CB        49.7600   16.9610   -4.9720 C.3   243  TYR243      0.0534
    177  CG        51.2230   17.3420   -4.8890 C.ar  243  TYR243     -0.0201
    178  CD1       52.1930   16.3990   -4.5470 C.ar  243  TYR243     -0.0009
    179  CD2       51.6400   18.6430   -5.1630 C.ar  243  TYR243     -0.0009
    180  CE1       53.5400   16.7420   -4.4810 C.ar  243  TYR243      0.0417
    181  CE2       52.9860   18.9970   -5.1010 C.ar  243  TYR243      0.0417
    182  CZ        53.9300   18.0410   -4.7590 C.ar  243  TYR243      0.1957
    183  OH        55.2610   18.3800   -4.6980 O.3   243  TYR243     -0.2866
    184  N         58.2520   10.2690    0.5560 N.3   255  PHE255     -0.1227
    185  CA        58.4840   11.4230    1.4170 C.3   255  PHE255      0.1736
    186  C         57.3080   12.3950    1.4180 C.2   255  PHE255      0.2596
    187  O         57.1090   13.1350    2.3810 O.2   255  PHE255     -0.2718
    188  CB        59.7690   12.1360    0.9740 C.3   255  PHE255      0.0547
    189  CG        59.9920   13.4750    1.6250 C.ar  255  PHE255     -0.0202
    190  CD1       59.3870   14.6220    1.1170 C.ar  255  PHE255     -0.0042
    191  CD2       60.8190   13.5920    2.7370 C.ar  255  PHE255     -0.0042
    192  CE1       59.6070   15.8650    1.7040 C.ar  255  PHE255     -0.0003
    193  CE2       61.0450   14.8310    3.3320 C.ar  255  PHE255     -0.0003
    194  CZ        60.4380   15.9690    2.8140 C.ar  255  PHE255     -0.0000
    195  N         56.5260   12.3850    0.3450 N.am  256  SER256     -0.1952
    196  CA        55.3820   13.2830    0.2320 C.3   256  SER256      0.1924
    197  C         54.0430   12.6060    0.5140 C.2   256  SER256      0.2314
    198  O         53.0300   13.2800    0.6920 O.2   256  SER256     -0.2863
    199  CB        55.3500   13.9080   -1.1650 C.3   256  SER256      0.2116
    200  OG        56.5380   14.6320   -1.4270 O.3   256  SER256     -0.2180
    201  N         51.1340   12.8950    4.6090 N.3   260  GLN260     -0.1245
    202  CA        49.7280   13.0600    4.2670 C.3   260  GLN260      0.1566
    203  C         48.8820   11.9300    4.8410 C.2   260  GLN260      0.2260
    204  O         47.8500   12.1750    5.4680 O.2   260  GLN260     -0.2867
    205  CB        49.5600   13.1140    2.7460 C.3   260  GLN260      0.0367
    206  CG        50.3460   14.2300    2.0700 C.3   260  GLN260      0.0905
    207  CD        50.1090   15.5850    2.7110 C.2   260  GLN260      0.2608
    208  OE1       48.9690   16.0190    2.8760 O.2   260  GLN260     -0.2717
    209  NE2       51.1920   16.2640    3.0720 N.am  260  GLN260     -0.0878
@<TRIPOS>BOND
     1   126   125    2
     2   125   124    1
     3   175   174    2
     4   119   118    2
     5   122   120    1
     6   124   127    1
     7   124   123    1
     8   127   128    1
     9   172   173    1
    10   173   174    1
    11   173   176    1
    12   118   117    1
    13   120   117    1
    14   120   121    1
    15   179   181   ar
    16   179   177   ar
    17   181   182   ar
    18   128   130   ar
    19   128   129   ar
    20   117   116    1
    21   176   177    1
    22   177   178   ar
    23   130   132   ar
    24   182   183    1
    25   182   180   ar
    26   178   180   ar
    27   129   131   ar
    28   111   110    2
    29   116   110   am
    30   132   133   ar
    31   110   109    1
    32   131   133   ar
    33   133   134    1
    34   107   106    2
    35   109   108    1
    36   109   112    1
    37   106   105    1
    38   200   199    1
    39   199   196    1
    40   140   141    1
    41   140   139    1
    42   142   141    1
    43   112   113    1
    44   105   104    1
    45   139   136    1
    46   135   136    1
    47   196   195    1
    48   196   197    1
    49   195   186   am
    50   197   198    2
    51   184   185    1
    52   100    99    2
    53   113   115    1
    54   113   114    1
    55   104    99   am
    56    18    16    1
    57   136   137    1
    58   188   185    1
    59   188   189    1
    60   190   189   ar
    61   190   192   ar
    62    99    98    1
    63   185   186    1
    64   186   187    2
    65   189   191   ar
    66   192   194   ar
    67    12    13    1
    68    28    29   ar
    69    28    26   ar
    70   206   207    1
    71   206   205    1
    72    29    27   ar
    73   143   137   am
    74   143   144    1
    75   137   138    2
    76    97    98    1
    77    16    13    1
    78    16    17    1
    79    26    24   ar
    80    98   101    1
    81    13    14    1
    82    27    25   ar
    83   207   208    2
    84   207   209   am
    85   191   193   ar
    86   205   202    1
    87   194   193   ar
    88    24    25   ar
    89    24    23    1
    90    23    20    1
    91   144   145    1
    92    95    94    2
    93   101   102    1
    94   101   103    1
    95    14    15    2
    96    69    70    1
    97   202   201    1
    98   202   203    1
    99    94    93    1
   100   145   146    2
   101    20    19    1
   102    20    21    1
   103   203   204    2
   104    70    73    1
   105    70    71    1
   106   153   152    1
   107    73    74    1
   108    21    22    2
   109    21    30   am
   110   152   154    1
   111   152   151    1
   112    93    96    1
   113    93    92    1
   114    48    47    1
   115    11     9   ar
   116    11    10   ar
   117    49    47    1
   118    76    75    1
   119   147   148    1
   120     9     7   ar
   121    30    31    1
   122    92    87   am
   123    71    72    2
   124    47    46    1
   125    74    75    1
   126   151   148    1
   127    85    86    1
   128    87    88    2
   129    87    86    1
   130    10     8   ar
   131   148   149    1
   132    31    34    1
   133    31    32    1
   134     7     6   ar
   135    86    89    1
   136    34    35    1
   137    46    43    1
   138   155   149   am
   139   155   156    1
   140     8     6   ar
   141   149   150    2
   142     4     3    2
   143    42    43    1
   144     6     5    1
   145    32    33    2
   146   159   156    1
   147   159   160    1
   148    77    78    1
   149    43    44    1
   150    91    89    1
   151    89    90    1
   152    36    35   ar
   153    36    38   ar
   154    35    37   ar
   155   156   157    1
   156     3     2    1
   157   160   161    1
   158    84    83    1
   159     5     2    1
   160     2     1    1
   161   157   158    2
   162   162   161    2
   163    78    81    1
   164    78    79    1
   165    38    40   ar
   166    44    45    2
   167    44    50   am
   168    37    39   ar
   169   161   163   am
   170    82    81    1
   171    82    83    1
   172    79    80    2
   173    50    51    1
   174    40    39   ar
   175    40    41    1
   176   171   169   am
   177   164   165    1
   178    51    54    1
   179    51    52    1
   180   169   170    2
   181   169   168    1
   182    54    55    1
   183    61    62    1
   184    52    53    2
   185   168   165    1
   186    65    62    1
   187    65    66    1
   188   165   166    1
   189    62    63    1
   190    55    56    1
   191    67    66   ar
   192    66    68   ar
   193   166   167    2
   194    57    56    1
   195    57    58    2
   196    63    64    2
   197    60    58    1
   198    58    59    1
