@<TRIPOS>MOLECULE
tmp/3wcfA00.pdb
 196 186 0 0 0
SMALL
GASTEIGER

@<TRIPOS>ATOM
      1  N        -22.4600   42.8310  -51.2350 N.3    18  SER18      -0.1202
      2  CA       -22.0460   41.7300  -50.3740 C.3    18  SER18       0.2020
      3  C        -21.8110   41.9220  -48.8670 C.2    18  SER18       0.2618
      4  O        -21.1920   41.0630  -48.2310 O.2    18  SER18      -0.2717
      5  CB       -20.7990   41.0970  -50.9930 C.3    18  SER18       0.2103
      6  OG       -19.9280   42.0970  -51.5010 O.3    18  SER18      -0.2182
      7  N        -22.2850   43.0160  -48.2820 N.am   19  PHE19      -0.1975
      8  CA       -22.0920   43.2120  -46.8450 C.3    19  PHE19       0.1639
      9  C        -23.3420   43.7150  -46.1300 C.2    19  PHE19       0.2290
     10  O        -23.5040   43.4960  -44.9320 O.2    19  PHE19      -0.2864
     11  CB       -20.9550   44.2070  -46.5610 C.3    19  PHE19       0.0560
     12  CG       -19.5740   43.6200  -46.6650 C.ar   19  PHE19      -0.0200
     13  CD1      -18.8940   43.6110  -47.8760 C.ar   19  PHE19      -0.0042
     14  CD2      -18.9430   43.0920  -45.5370 C.ar   19  PHE19      -0.0042
     15  CE1      -17.6020   43.0880  -47.9680 C.ar   19  PHE19      -0.0003
     16  CE2      -17.6480   42.5630  -45.6150 C.ar   19  PHE19      -0.0003
     17  CZ       -16.9770   42.5620  -46.8320 C.ar   19  PHE19      -0.0000
     18  N        -19.0770   51.6880  -42.7240 N.3    38  TYR38      -0.1241
     19  CA       -19.0390   51.2640  -44.1100 C.3    38  TYR38       0.1605
     20  C        -19.2380   52.4480  -45.0420 C.2    38  TYR38       0.2264
     21  O        -18.5070   52.5980  -46.0170 O.2    38  TYR38      -0.2867
     22  CB       -20.1080   50.2000  -44.3860 C.3    38  TYR38       0.0534
     23  CG       -20.0070   49.6200  -45.7790 C.ar   38  TYR38      -0.0201
     24  CD1      -20.5620   50.2870  -46.8860 C.ar   38  TYR38      -0.0009
     25  CD2      -19.2830   48.4490  -46.0070 C.ar   38  TYR38      -0.0009
     26  CE1      -20.3880   49.7990  -48.1920 C.ar   38  TYR38       0.0417
     27  CE2      -19.1030   47.9580  -47.2930 C.ar   38  TYR38       0.0417
     28  CZ       -19.6530   48.6360  -48.3830 C.ar   38  TYR38       0.1957
     29  OH       -19.4390   48.1500  -49.6550 O.3    38  TYR38      -0.2866
     30  N        -16.2400   54.9540  -45.1470 N.3    41  LEU41      -0.1231
     31  CA       -15.1270   54.2870  -45.8190 C.3    41  LEU41       0.1693
     32  C        -15.4380   54.2750  -47.3140 C.2    41  LEU41       0.2591
     33  O        -14.5580   54.4480  -48.1550 O.2    41  LEU41      -0.2718
     34  CB       -14.9750   52.8500  -45.3080 C.3    41  LEU41       0.0284
     35  CG       -14.4020   52.6860  -43.8930 C.3    41  LEU41       0.0019
     36  CD1      -14.4970   51.2360  -43.4210 C.3    41  LEU41       0.0001
     37  CD2      -12.9550   53.1530  -43.8990 C.3    41  LEU41       0.0001
     38  N        -16.7040   54.0650  -47.6360 N.am   42  ARG42      -0.1980
     39  CA       -17.1470   54.0530  -49.0190 C.3    42  ARG42       0.1597
     40  C        -16.8380   55.4230  -49.6440 C.2    42  ARG42       0.2287
     41  O        -16.3500   55.5120  -50.7690 O.2    42  ARG42      -0.2864
     42  CB       -18.6510   53.7660  -49.0520 C.3    42  ARG42       0.0334
     43  CG       -19.2980   53.7740  -50.4180 C.3    42  ARG42       0.0492
     44  CD       -18.8040   52.6380  -51.2770 C.3    42  ARG42       0.2205
     45  NE       -17.6370   53.0460  -52.0420 N.pl3  42  ARG42      -0.0865
     46  CZ       -17.0840   52.3160  -53.0020 C.cat  42  ARG42       0.5346
     47  NH1      -17.5980   51.1320  -53.3070 N.pl3  42  ARG42       0.1354
     48  NH2      -16.0280   52.7760  -53.6640 N.pl3  42  ARG42       0.1354
     49  N        -13.0620   55.9150  -50.1000 N.3    45  ASP45      -0.1239
     50  CA       -12.5890   55.0880  -51.2020 C.3    45  ASP45       0.1674
     51  C        -12.9680   55.6790  -52.5620 C.2    45  ASP45       0.2266
     52  O        -12.2030   55.5800  -53.5200 O.2    45  ASP45      -0.2867
     53  CB       -13.1670   53.6820  -51.0820 C.3    45  ASP45       0.1410
     54  CG       -12.5940   52.7240  -52.1130 C.2    45  ASP45       0.3668
     55  OD1      -13.1420   51.6170  -52.2590 O.co2  45  ASP45      -0.2456
     56  OD2      -11.5900   53.0630  -52.7720 O.co2  45  ASP45      -0.2456
     57  N         -6.1530   55.8480  -42.7170 N.3   115  MET115     -0.1245
     58  CA        -6.3950   55.3820  -44.0790 C.3   115  MET115      0.1570
     59  C         -6.0970   56.5010  -45.0710 C.2   115  MET115      0.2261
     60  O         -5.4760   56.2710  -46.1090 O.2   115  MET115     -0.2867
     61  CB        -7.8440   54.9100  -44.2520 C.3   115  MET115      0.0387
     62  CG        -8.1260   54.2880  -45.6210 C.3   115  MET115      0.0595
     63  SD        -9.7210   53.4480  -45.7030 S.3   115  MET115     -0.1393
     64  CE        -9.6130   52.3920  -44.2180 C.3   115  MET115      0.0692
     65  N         -3.6280   56.1510  -48.2220 N.3   119  MET119     -0.1245
     66  CA        -4.0680   56.2620  -49.6120 C.3   119  MET119      0.1570
     67  C         -3.3250   57.3720  -50.3400 C.2   119  MET119      0.2261
     68  O         -2.9760   57.2300  -51.5100 O.2   119  MET119     -0.2867
     69  CB        -5.5710   56.5430  -49.6900 C.3   119  MET119      0.0387
     70  CG        -6.4420   55.5300  -48.9820 C.3   119  MET119      0.0595
     71  SD        -8.1840   55.9480  -49.1030 S.3   119  MET119     -0.1393
     72  CE        -8.9410   54.3160  -49.2430 C.3   119  MET119      0.0692
     73  N         -5.8880   50.0920  -47.1690 N.3   140  VAL140     -0.1231
     74  CA        -7.2560   50.0890  -47.6750 C.3   140  VAL140      0.1692
     75  C         -8.1520   48.9700  -47.1550 C.2   140  VAL140      0.2591
     76  O         -9.3630   49.0020  -47.3760 O.2   140  VAL140     -0.2718
     77  CB        -7.2760   50.0380  -49.2280 C.3   140  VAL140      0.0266
     78  CG1       -6.3870   51.1390  -49.7970 C.3   140  VAL140      0.0020
     79  CG2       -6.8130   48.6730  -49.7200 C.3   140  VAL140      0.0020
     80  N         -7.5780   47.9820  -46.4710 N.am  141  ALA141     -0.1980
     81  CA        -8.3830   46.8690  -45.9650 C.3   141  ALA141      0.1597
     82  C         -7.9800   46.4090  -44.5660 C.2   141  ALA141      0.2287
     83  O         -8.8360   46.1370  -43.7230 O.2   141  ALA141     -0.2864
     84  CB        -8.3120   45.7000  -46.9380 C.3   141  ALA141      0.0319
     85  N         -9.3740   48.3700  -41.9200 N.3   144  VAL144     -0.1231
     86  CA       -10.8130   48.1550  -41.8190 C.3   144  VAL144      0.1692
     87  C        -11.0410   47.0040  -40.8450 C.2   144  VAL144      0.2592
     88  O        -11.9450   47.0550  -40.0030 O.2   144  VAL144     -0.2718
     89  CB       -11.4360   47.7580  -43.1750 C.3   144  VAL144      0.0266
     90  CG1      -12.9270   47.4830  -42.9980 C.3   144  VAL144      0.0020
     91  CG2      -11.2130   48.8540  -44.2010 C.3   144  VAL144      0.0020
     92  N        -10.2200   45.9670  -40.9730 N.am  145  GLY145     -0.1957
     93  CA       -10.3450   44.8150  -40.0970 C.3   145  GLY145      0.1869
     94  C        -10.0430   45.2070  -38.6640 C.2   145  GLY145      0.2309
     95  O        -10.7030   44.7480  -37.7290 O.2   145  GLY145     -0.2863
     96  N        -12.9840   47.4630  -37.3800 N.3   148  LEU148     -0.1245
     97  CA       -14.1400   46.6210  -37.0970 C.3   148  LEU148      0.1561
     98  C        -13.9360   45.8310  -35.8090 C.2   148  LEU148      0.2260
     99  O        -14.8460   45.7150  -34.9920 O.2   148  LEU148     -0.2867
    100  CB       -14.3880   45.6540  -38.2640 C.3   148  LEU148      0.0270
    101  CG       -15.0090   46.2510  -39.5360 C.3   148  LEU148      0.0019
    102  CD1      -14.8960   45.2690  -40.6870 C.3   148  LEU148      0.0001
    103  CD2      -16.4710   46.5920  -39.2780 C.3   148  LEU148      0.0001
    104  N        -16.3080   45.9070  -32.4620 N.3   152  PHE152     -0.1241
    105  CA       -16.8670   44.7020  -31.8570 C.3   152  PHE152      0.1605
    106  C        -16.5850   44.7030  -30.3540 C.2   152  PHE152      0.2264
    107  O        -17.4870   44.4800  -29.5510 O.2   152  PHE152     -0.2867
    108  CB       -16.2610   43.4310  -32.4790 C.3   152  PHE152      0.0534
    109  CG       -16.5370   43.2670  -33.9550 C.ar  152  PHE152     -0.0203
    110  CD1      -17.7080   43.7490  -34.5230 C.ar  152  PHE152     -0.0042
    111  CD2      -15.6310   42.5930  -34.7700 C.ar  152  PHE152     -0.0042
    112  CE1      -17.9740   43.5640  -35.8820 C.ar  152  PHE152     -0.0003
    113  CE2      -15.8880   42.4020  -36.1280 C.ar  152  PHE152     -0.0003
    114  CZ       -17.0590   42.8870  -36.6840 C.ar  152  PHE152     -0.0000
    115  N         -7.0920   39.6300  -41.7030 N.3   172  MET172     -0.1230
    116  CA        -8.4400   39.4400  -42.2390 C.3   172  MET172      0.1702
    117  C         -8.6620   40.3650  -43.4420 C.2   172  MET172      0.2592
    118  O         -9.2030   39.9470  -44.4630 O.2   172  MET172     -0.2718
    119  CB        -9.4910   39.7350  -41.1650 C.3   172  MET172      0.0401
    120  CG        -9.5880   38.7070  -40.0300 C.3   172  MET172      0.0596
    121  SD       -10.4360   37.1740  -40.4920 S.3   172  MET172     -0.1393
    122  CE       -12.1350   37.7040  -40.4770 C.3   172  MET172      0.0692
    123  N         -8.2380   41.6210  -43.3080 N.am  173  GLY173     -0.1957
    124  CA        -8.3910   42.5890  -44.3810 C.3   173  GLY173      0.1869
    125  C         -7.4490   42.3130  -45.5400 C.2   173  GLY173      0.2309
    126  O         -7.8440   42.3880  -46.7060 O.2   173  GLY173     -0.2863
    127  N         -8.8640   39.4430  -47.8560 N.3   176  LEU176     -0.1231
    128  CA        -9.9570   39.8270  -48.7380 C.3   176  LEU176      0.1693
    129  C         -9.4870   40.7480  -49.8600 C.2   176  LEU176      0.2591
    130  O         -9.8960   40.5890  -51.0130 O.2   176  LEU176     -0.2718
    131  CB       -11.0730   40.5250  -47.9510 C.3   176  LEU176      0.0284
    132  CG       -11.9080   39.6980  -46.9680 C.3   176  LEU176      0.0019
    133  CD1      -13.0110   40.5720  -46.3790 C.3   176  LEU176      0.0001
    134  CD2      -12.5210   38.5010  -47.6850 C.3   176  LEU176      0.0001
    135  N         -8.6270   41.7020  -49.5160 N.am  177  GLN177     -0.1979
    136  CA        -8.1210   42.6680  -50.4850 C.3   177  GLN177      0.1601
    137  C         -7.2610   42.0180  -51.5650 C.2   177  GLN177      0.2287
    138  O         -7.4230   42.3150  -52.7530 O.2   177  GLN177     -0.2864
    139  CB        -7.3240   43.7620  -49.7720 C.3   177  GLN177      0.0394
    140  CG        -7.0330   45.0020  -50.6210 C.3   177  GLN177      0.0908
    141  CD        -8.3010   45.6700  -51.1540 C.2   177  GLN177      0.2608
    142  OE1       -9.2620   45.8750  -50.4200 O.2   177  GLN177     -0.2717
    143  NE2       -8.2920   46.0240  -52.4350 N.am  177  GLN177     -0.0878
    144  N         -9.4010   40.1330  -53.9450 N.3   180  ASN180     -0.1240
    145  CA       -10.1280   41.0170  -54.8410 C.3   180  ASN180      0.1653
    146  C         -9.1990   41.5720  -55.9210 C.2   180  ASN180      0.2266
    147  O         -9.5760   41.6520  -57.0910 O.2   180  ASN180     -0.2867
    148  CB       -10.7670   42.1650  -54.0560 C.3   180  ASN180      0.1155
    149  CG       -12.0510   41.7480  -53.3400 C.2   180  ASN180      0.2627
    150  OD1      -12.4950   40.6060  -53.4520 O.2   180  ASN180     -0.2716
    151  ND2      -12.6540   42.6840  -52.6090 N.am  180  ASN180     -0.0877
    152  N         -8.3660   34.1490  -36.0300 N.3   241  TYR241     -0.1241
    153  CA        -9.2160   35.2950  -35.7470 C.3   241  TYR241      0.1605
    154  C        -10.6600   34.8970  -35.5440 C.2   241  TYR241      0.2264
    155  O        -11.3050   35.3470  -34.5970 O.2   241  TYR241     -0.2867
    156  CB        -9.1120   36.3330  -36.8770 C.3   241  TYR241      0.0534
    157  CG        -9.9820   37.5560  -36.6630 C.ar  241  TYR241     -0.0201
    158  CD1      -11.3620   37.4920  -36.8400 C.ar  241  TYR241     -0.0009
    159  CD2       -9.4360   38.7580  -36.2150 C.ar  241  TYR241     -0.0009
    160  CE1      -12.1810   38.5910  -36.5700 C.ar  241  TYR241      0.0417
    161  CE2      -10.2480   39.8670  -35.9410 C.ar  241  TYR241      0.0417
    162  CZ       -11.6200   39.7690  -36.1210 C.ar  241  TYR241      0.1957
    163  OH       -12.4430   40.8380  -35.8480 O.3   241  TYR241     -0.2866
    164  N        -20.8540   37.7110  -39.8520 N.3   253  PHE253     -0.1227
    165  CA       -20.3430   38.8870  -40.5550 C.3   253  PHE253      0.1736
    166  C        -18.9000   38.7130  -41.0360 C.2   253  PHE253      0.2595
    167  O        -18.5750   39.0090  -42.1910 O.2   253  PHE253     -0.2718
    168  CB       -20.4380   40.1210  -39.6450 C.3   253  PHE253      0.0547
    169  CG       -19.7520   41.3390  -40.2010 C.ar  253  PHE253     -0.0202
    170  CD1      -20.3390   42.0900  -41.2190 C.ar  253  PHE253     -0.0042
    171  CD2      -18.4950   41.7070  -39.7400 C.ar  253  PHE253     -0.0042
    172  CE1      -19.6790   43.1880  -41.7740 C.ar  253  PHE253     -0.0003
    173  CE2      -17.8250   42.8010  -40.2860 C.ar  253  PHE253     -0.0003
    174  CZ       -18.4210   43.5440  -41.3090 C.ar  253  PHE253     -0.0000
    175  N        -18.0450   38.2350  -40.1360 N.am  254  CYS254     -0.1970
    176  CA       -16.6280   38.0220  -40.4220 C.3   254  CYS254      0.1712
    177  C        -16.3090   36.7580  -41.2290 C.2   254  CYS254      0.2296
    178  O        -15.4330   36.7730  -42.0960 O.2   254  CYS254     -0.2864
    179  CB       -15.8350   37.9510  -39.1100 C.3   254  CYS254      0.0983
    180  SG       -15.8800   39.4230  -38.0840 S.3   254  CYS254     -0.0798
    181  N        -17.6110   36.3730  -45.5670 N.3   257  PRO257     -0.2102
    182  CA       -16.7400   37.0070  -46.5590 C.3   257  PRO257      0.1504
    183  C        -15.3880   36.3110  -46.7170 C.2   257  PRO257      0.2575
    184  O        -14.8420   36.2570  -47.8240 O.2   257  PRO257     -0.2718
    185  CB       -16.6050   38.4350  -46.0340 C.3   257  PRO257      0.0282
    186  CG       -17.9270   38.6580  -45.3390 C.3   257  PRO257      0.0208
    187  CD       -18.0780   37.3620  -44.5790 C.3   257  PRO257      0.0893
    188  N        -14.8440   35.7830  -45.6220 N.am  258  GLN258     -0.1980
    189  CA       -13.5520   35.0940  -45.6890 C.3   258  GLN258      0.1601
    190  C        -13.7000   33.8020  -46.4930 C.2   258  GLN258      0.2287
    191  O        -12.8300   33.4460  -47.2900 O.2   258  GLN258     -0.2864
    192  CB       -13.0450   34.7410  -44.2820 C.3   258  GLN258      0.0394
    193  CG       -12.7140   35.9230  -43.3910 C.3   258  GLN258      0.0908
    194  CD       -11.5640   36.7540  -43.9180 C.2   258  GLN258      0.2608
    195  OE1      -10.5700   36.2200  -44.4170 O.2   258  GLN258     -0.2717
    196  NE2      -11.6840   38.0690  -43.7980 N.am  258  GLN258     -0.0878
@<TRIPOS>BOND
     1   147   146    2
     2   146   145    1
     3   145   148    1
     4   145   144    1
     5   148   149    1
     6    48    46    1
     7    52    51    2
     8   150   149    2
     9   149   151   am
    10    47    46    1
    11    46    45    2
    12    56    54   ar
    13   138   137    2
    14    51    50    1
    15   143   141   am
    16    55    54   ar
    17    54    53    1
    18    45    44    1
    19   137   136    1
    20    68    67    2
    21     6     5    1
    22    44    43    1
    23     1     2    1
    24    50    53    1
    25    50    49    1
    26   141   140    1
    27   141   142    2
    28   130   129    2
    29     5     2    1
    30    41    40    2
    31   140   139    1
    32   136   139    1
    33   136   135    1
    34    43    42    1
    35     2     3    1
    36    67    66    1
    37   129   135   am
    38   129   128    1
    39    78    77    1
    40    79    77    1
    41    69    66    1
    42    69    70    1
    43    29    28    1
    44    40    39    1
    45    66    65    1
    46    72    71    1
    47    77    74    1
    48    71    70    1
    49    42    39    1
    50    39    38    1
    51     3     7   am
    52     3     4    2
    53   128   131    1
    54   128   127    1
    55    28    26   ar
    56    28    27   ar
    57     7     8    1
    58    26    24   ar
    59    33    32    2
    60    15    13   ar
    61    15    17   ar
    62   131   132    1
    63    13    12   ar
    64   184   183    2
    65   134   132    1
    66    74    73    1
    67    74    75    1
    68    38    32   am
    69    76    75    2
    70    32    31    1
    71    27    25   ar
    72   191   190    2
    73    75    80   am
    74   132   133    1
    75    84    81    1
    76    24    23   ar
    77     8    11    1
    78     8     9    1
    79    17    16   ar
    80   183   182    1
    81   183   188   am
    82   126   125    2
    83    12    11    1
    84    12    14   ar
    85   182   185    1
    86   182   181    1
    87   190   189    1
    88    80    81    1
    89     9    10    2
    90    60    59    2
    91   185   186    1
    92    21    20    2
    93    25    23   ar
    94    81    82    1
    95    31    34    1
    96    31    30    1
    97    23    22    1
    98    63    62    1
    99    63    64    1
   100   189   188    1
   101   189   192    1
   102    62    61    1
   103    16    14   ar
   104   181   187    1
   105   125   124    1
   106   186   187    1
   107    34    35    1
   108    59    58    1
   109    20    19    1
   110    82    83    2
   111   118   117    2
   112   195   194    2
   113    22    19    1
   114   124   123    1
   115   192   193    1
   116    61    58    1
   117    91    89    1
   118    19    18    1
   119    58    57    1
   120   194   196   am
   121   194   193    1
   122    37    35    1
   123    35    36    1
   124   117   123   am
   125   117   116    1
   126    89    90    1
   127    89    86    1
   128   116   115    1
   129   116   119    1
   130   167   166    2
   131   178   177    2
   132    85    86    1
   133    86    87    1
   134   172   174   ar
   135   172   170   ar
   136   174   173   ar
   137   177   176    1
   138   170   169   ar
   139   119   120    1
   140   166   165    1
   141   166   175   am
   142    92    87   am
   143    92    93    1
   144    87    88    2
   145   102   101    1
   146   165   164    1
   147   165   168    1
   148   121   122    1
   149   121   120    1
   150   176   175    1
   151   176   179    1
   152   173   171   ar
   153   169   171   ar
   154   169   168    1
   155    93    94    1
   156   101   103    1
   157   101   100    1
   158   179   180    1
   159    94    95    2
   160   100    97    1
   161    96    97    1
   162    97    98    1
   163   156   157    1
   164   156   153    1
   165   158   157   ar
   166   158   160   ar
   167   114   113   ar
   168   114   112   ar
   169   157   159   ar
   170   160   162   ar
   171   159   161   ar
   172   113   111   ar
   173   162   161   ar
   174   162   163    1
   175   152   153    1
   176   112   110   ar
   177    98    99    2
   178   153   154    1
   179   154   155    2
   180   111   109   ar
   181   110   109   ar
   182   109   108    1
   183   108   105    1
   184   104   105    1
   185   105   106    1
   186   106   107    2
