@<TRIPOS>MOLECULE
tmp/3wchA01.pdb
 112 106 0 0 0
SMALL
GASTEIGER

@<TRIPOS>ATOM
      1  N        -24.9510   43.2600  -52.6130 N.3    18  SER18      -0.1202
      2  CA       -24.7170   41.9460  -52.0280 C.3    18  SER18       0.2020
      3  C        -24.5110   41.7690  -50.5250 C.2    18  SER18       0.2618
      4  O        -24.5160   40.6340  -50.0460 O.2    18  SER18      -0.2717
      5  CB       -23.5350   41.2910  -52.7530 C.3    18  SER18       0.2103
      6  OG       -22.3550   42.0590  -52.6000 O.3    18  SER18      -0.2182
      7  N        -24.3430   42.8470  -49.7700 N.am   19  PHE19      -0.1975
      8  CA       -24.1040   42.6740  -48.3440 C.3    19  PHE19       0.1639
      9  C        -25.0120   43.4540  -47.3950 C.2    19  PHE19       0.2290
     10  O        -24.8620   43.3630  -46.1820 O.2    19  PHE19      -0.2864
     11  CB       -22.6450   43.0150  -48.0400 C.3    19  PHE19       0.0560
     12  CG       -22.0210   42.1260  -47.0140 C.ar   19  PHE19      -0.0200
     13  CD1      -21.2250   42.6580  -46.0020 C.ar   19  PHE19      -0.0042
     14  CD2      -22.2390   40.7500  -47.0520 C.ar   19  PHE19      -0.0042
     15  CE1      -20.6550   41.8280  -45.0320 C.ar   19  PHE19      -0.0003
     16  CE2      -21.6780   39.9120  -46.0920 C.ar   19  PHE19      -0.0003
     17  CZ       -20.8820   40.4520  -45.0740 C.ar   19  PHE19      -0.0000
     18  N        -25.6500   42.8760  -43.1500 N.3    23  ILE23      -0.1245
     19  CA       -25.4290   43.9770  -42.2290 C.3    23  ILE23       0.1561
     20  C        -26.7180   44.2370  -41.4500 C.2    23  ILE23       0.2260
     21  O        -26.6900   44.4040  -40.2340 O.2    23  ILE23      -0.2867
     22  CB       -25.0020   45.2600  -42.9770 C.3    23  ILE23       0.0252
     23  CG1      -23.5760   45.0870  -43.5350 C.3    23  ILE23       0.0019
     24  CG2      -25.1430   46.4740  -42.0500 C.3    23  ILE23       0.0019
     25  CD1      -23.0860   46.2520  -44.3890 C.3    23  ILE23       0.0001
     26  N        -22.5120   49.5030  -38.0180 N.3    34  VAL34      -0.1245
     27  CA       -21.9180   48.9890  -39.2500 C.3    34  VAL34       0.1561
     28  C        -22.5430   49.6060  -40.5080 C.2    34  VAL34       0.2260
     29  O        -21.8750   49.7610  -41.5290 O.2    34  VAL34      -0.2867
     30  CB       -22.0200   47.4460  -39.3020 C.3    34  VAL34       0.0252
     31  CG1      -21.4200   46.9170  -40.5940 C.3    34  VAL34       0.0019
     32  CG2      -21.2770   46.8540  -38.1100 C.3    34  VAL34       0.0019
     33  N        -20.8410   52.9400  -40.7340 N.3    37  PHE37      -0.1227
     34  CA       -19.4390   52.7220  -41.0630 C.3    37  PHE37       0.1736
     35  C        -19.2970   52.3730  -42.5420 C.2    37  PHE37       0.2595
     36  O        -18.3310   52.7700  -43.1920 O.2    37  PHE37      -0.2718
     37  CB       -18.8730   51.6060  -40.1910 C.3    37  PHE37       0.0547
     38  CG       -17.3810   51.4880  -40.2400 C.ar   37  PHE37      -0.0202
     39  CD1      -16.5880   52.5950  -40.5030 C.ar   37  PHE37      -0.0042
     40  CD2      -16.7640   50.2730  -39.9590 C.ar   37  PHE37      -0.0042
     41  CE1      -15.2070   52.5010  -40.4830 C.ar   37  PHE37      -0.0003
     42  CE2      -15.3750   50.1690  -39.9350 C.ar   37  PHE37      -0.0003
     43  CZ       -14.5980   51.2850  -40.1980 C.ar   37  PHE37      -0.0000
     44  N        -20.2660   51.6440  -43.0800 N.am   38  TYR38      -0.1976
     45  CA       -20.2130   51.2580  -44.4860 C.3    38  TYR38       0.1639
     46  C        -20.4090   52.4800  -45.3810 C.2    38  TYR38       0.2290
     47  O        -19.6360   52.7260  -46.3110 O.2    38  TYR38      -0.2864
     48  CB       -21.2810   50.2000  -44.7840 C.3    38  TYR38       0.0560
     49  CG       -21.1860   49.6340  -46.1740 C.ar   38  TYR38      -0.0198
     50  CD1      -21.8100   50.2660  -47.2550 C.ar   38  TYR38      -0.0009
     51  CD2      -20.4250   48.4930  -46.4230 C.ar   38  TYR38      -0.0009
     52  CE1      -21.6730   49.7730  -48.5510 C.ar   38  TYR38       0.0417
     53  CE2      -20.2820   47.9950  -47.7090 C.ar   38  TYR38       0.0417
     54  CZ       -20.9100   48.6400  -48.7700 C.ar   38  TYR38       0.1957
     55  OH       -20.7720   48.1470  -50.0510 O.3    38  TYR38      -0.2866
     56  N        -17.3620   54.5890  -45.2330 N.3    41  LEU41      -0.1245
     57  CA       -16.2630   53.9850  -45.9800 C.3    41  LEU41       0.1561
     58  C        -16.5450   54.0380  -47.4730 C.2    41  LEU41       0.2260
     59  O        -15.6290   54.1240  -48.2800 O.2    41  LEU41      -0.2867
     60  CB       -16.0510   52.5280  -45.5490 C.3    41  LEU41       0.0270
     61  CG       -15.4700   52.3040  -44.1450 C.3    41  LEU41       0.0019
     62  CD1      -15.2680   50.8160  -43.8880 C.3    41  LEU41       0.0001
     63  CD2      -14.1360   53.0490  -44.0170 C.3    41  LEU41       0.0001
     64  N        -10.3210   48.3060  -42.0710 N.3   144  VAL144     -0.1245
     65  CA       -11.7500   48.0630  -42.0130 C.3   144  VAL144      0.1561
     66  C        -11.9740   46.8790  -41.0700 C.2   144  VAL144      0.2260
     67  O        -12.7910   46.9500  -40.1510 O.2   144  VAL144     -0.2867
     68  CB       -12.3090   47.7110  -43.4000 C.3   144  VAL144      0.0252
     69  CG1      -13.8080   47.4600  -43.3030 C.3   144  VAL144      0.0019
     70  CG2      -12.0240   48.8410  -44.3730 C.3   144  VAL144      0.0019
     71  N        -14.1480   47.1150  -37.7150 N.3   148  LEU148     -0.1245
     72  CA       -15.2970   46.2770  -37.3930 C.3   148  LEU148      0.1561
     73  C        -15.0600   45.4970  -36.0940 C.2   148  LEU148      0.2260
     74  O        -15.9260   45.4410  -35.2280 O.2   148  LEU148     -0.2867
     75  CB       -15.5790   45.3140  -38.5450 C.3   148  LEU148      0.0270
     76  CG       -15.9880   46.0010  -39.8560 C.3   148  LEU148      0.0019
     77  CD1      -15.8840   45.0110  -40.9900 C.3   148  LEU148      0.0001
     78  CD2      -17.3960   46.5650  -39.7550 C.3   148  LEU148      0.0001
     79  N         -9.2500   39.5010  -48.2930 N.3   176  LEU176     -0.1245
     80  CA       -10.3390   39.9750  -49.1290 C.3   176  LEU176      0.1561
     81  C         -9.8720   40.8900  -50.2510 C.2   176  LEU176      0.2260
     82  O        -10.2900   40.7310  -51.3980 O.2   176  LEU176     -0.2867
     83  CB       -11.3740   40.7180  -48.2850 C.3   176  LEU176      0.0270
     84  CG       -12.7870   40.1300  -48.2750 C.3   176  LEU176      0.0019
     85  CD1      -12.7220   38.7130  -47.7230 C.3   176  LEU176      0.0001
     86  CD2      -13.7180   40.9900  -47.4330 C.3   176  LEU176      0.0001
     87  N        -21.7840   37.5310  -40.7020 N.3   253  PHE253     -0.1241
     88  CA       -21.2800   38.7440  -41.3370 C.3   253  PHE253      0.1605
     89  C        -19.7960   38.6270  -41.6860 C.2   253  PHE253      0.2264
     90  O        -19.3640   39.1120  -42.7280 O.2   253  PHE253     -0.2867
     91  CB       -21.5140   39.9630  -40.4170 C.3   253  PHE253      0.0534
     92  CG       -20.7900   41.2180  -40.8610 C.ar  253  PHE253     -0.0203
     93  CD1      -21.3560   42.0770  -41.8110 C.ar  253  PHE253     -0.0042
     94  CD2      -19.5250   41.5250  -40.3560 C.ar  253  PHE253     -0.0042
     95  CE1      -20.6720   43.2270  -42.2570 C.ar  253  PHE253     -0.0003
     96  CE2      -18.8360   42.6690  -40.7960 C.ar  253  PHE253     -0.0003
     97  CZ       -19.4130   43.5220  -41.7520 C.ar  253  PHE253     -0.0000
     98  N        -18.1280   36.6690  -46.4850 N.3   257  PRO257     -0.2116
     99  CA       -17.1950   37.3100  -47.4200 C.3   257  PRO257      0.1372
    100  C        -15.9290   36.4820  -47.6250 C.2   257  PRO257      0.2244
    101  O        -15.4250   36.3730  -48.7500 O.2   257  PRO257     -0.2868
    102  CB       -16.8940   38.6460  -46.7490 C.3   257  PRO257      0.0268
    103  CG       -18.1710   38.9390  -46.0120 C.3   257  PRO257      0.0207
    104  CD       -18.5240   37.6020  -45.4150 C.3   257  PRO257      0.0892
    105  N        -16.6830   33.3870  -49.7010 N.3   260  MET260     -0.1245
    106  CA       -16.8520   33.8250  -51.0750 C.3   260  MET260      0.1570
    107  C        -15.4850   34.1070  -51.6910 C.2   260  MET260      0.2261
    108  O        -15.2440   33.7810  -52.8540 O.2   260  MET260     -0.2867
    109  CB       -17.7340   35.0770  -51.1200 C.3   260  MET260      0.0387
    110  CG       -18.9510   34.9270  -52.0210 C.3   260  MET260      0.0595
    111  SD       -20.2630   36.1100  -51.6270 S.3   260  MET260     -0.1393
    112  CE       -19.8500   37.5070  -52.7470 C.3   260  MET260      0.0692
@<TRIPOS>BOND
     1   108   107    2
     2     5     6    1
     3     5     2    1
     4   112   111    1
     5     1     2    1
     6     2     3    1
     7   110   111    1
     8   110   109    1
     9   107   106    1
    10    82    81    2
    11   109   106    1
    12   106   105    1
    13     3     4    2
    14     3     7   am
    15    81    80    1
    16    55    54    1
    17     7     8    1
    18    80    79    1
    19    80    83    1
    20    54    52   ar
    21    54    53   ar
    22   101   100    2
    23    52    50   ar
    24     8    11    1
    25     8     9    1
    26    83    84    1
    27    59    58    2
    28    84    85    1
    29    84    86    1
    30    11    12    1
    31    53    51   ar
    32   100    99    1
    33    58    57    1
    34    99   102    1
    35    99    98    1
    36     9    10    2
    37    50    49   ar
    38    14    12   ar
    39    14    16   ar
    40    12    13   ar
    41   102   103    1
    42    98   104    1
    43    51    49   ar
    44    47    46    2
    45    49    48    1
    46    16    17   ar
    47   103   104    1
    48    13    15   ar
    49    57    60    1
    50    57    56    1
    51    60    61    1
    52    46    45    1
    53    17    15   ar
    54    48    45    1
    55    45    44    1
    56    25    23    1
    57    70    68    1
    58    61    63    1
    59    61    62    1
    60    23    22    1
    61    68    69    1
    62    68    65    1
    63    36    35    2
    64    18    19    1
    65    44    35   am
    66    22    19    1
    67    22    24    1
    68    90    89    2
    69    35    34    1
    70    95    93   ar
    71    95    97   ar
    72    19    20    1
    73    64    65    1
    74    65    66    1
    75    93    92   ar
    76    97    96   ar
    77    89    88    1
    78    29    28    2
    79    20    21    2
    80    88    87    1
    81    88    91    1
    82    66    67    2
    83    34    33    1
    84    34    37    1
    85    77    76    1
    86    92    91    1
    87    92    94   ar
    88    96    94   ar
    89    31    30    1
    90    28    27    1
    91    39    41   ar
    92    39    38   ar
    93    41    43   ar
    94    38    37    1
    95    38    40   ar
    96    43    42   ar
    97    40    42   ar
    98    76    78    1
    99    76    75    1
   100    30    27    1
   101    30    32    1
   102    27    26    1
   103    75    72    1
   104    71    72    1
   105    72    73    1
   106    73    74    2
