@<TRIPOS>MOLECULE
tmp/3wchF01.pdb
 155 147 0 0 0
SMALL
GASTEIGER

@<TRIPOS>ATOM
      1  N        -35.4950   19.5840    9.5600 N.3    15  THR15      -0.1203
      2  CA       -34.8310   18.3080    9.2870 C.3    15  THR15       0.1994
      3  C        -33.4470   18.4350    8.6390 C.2    15  THR15       0.2619
      4  O        -32.5970   17.5550    8.7860 O.2    15  THR15      -0.2717
      5  CB       -35.7360   17.4110    8.4020 C.3    15  THR15       0.1784
      6  OG1      -36.1760   18.1500    7.2540 O.3    15  THR15      -0.2211
      7  CG2      -36.9540   16.9500    9.1910 C.3    15  THR15       0.0376
      8  N        -33.2290   19.5350    7.9270 N.am   16  SER16      -0.1937
      9  CA       -31.9530   19.7910    7.2630 C.3    16  SER16       0.2055
     10  C        -31.3630   21.1000    7.7690 C.2    16  SER16       0.2643
     11  O        -31.3450   22.1100    7.0610 O.2    16  SER16      -0.2714
     12  CB       -32.1480   19.8790    5.7500 C.3    16  SER16       0.2130
     13  OG       -30.9570   20.3150    5.1260 O.3    16  SER16      -0.2179
     14  N        -30.8740   21.0720    9.0010 N.am   17  ARG17      -0.1963
     15  CA       -30.3010   22.2530    9.6270 C.3    17  ARG17       0.1729
     16  C        -29.2690   23.0030    8.7930 C.2    17  ARG17       0.2617
     17  O        -29.2120   24.2270    8.8250 O.2    17  ARG17      -0.2715
     18  CB       -29.6950   21.8700   10.9800 C.3    17  ARG17       0.0348
     19  CG       -30.7370   21.6260   12.0620 C.3    17  ARG17       0.0492
     20  CD       -30.0970   21.1440   13.3500 C.3    17  ARG17       0.2205
     21  NE       -29.8820   19.6990   13.3630 N.pl3  17  ARG17      -0.0865
     22  CZ       -29.0830   19.0690   14.2200 C.cat  17  ARG17       0.5346
     23  NH1      -28.9520   17.7500   14.1640 N.pl3  17  ARG17       0.1354
     24  NH2      -28.3990   19.7600   15.1240 N.pl3  17  ARG17       0.1354
     25  N        -28.4590   22.2830    8.0340 N.am   18  SER18      -0.1936
     26  CA       -27.4350   22.9430    7.2410 C.3    18  SER18       0.2055
     27  C        -27.7860   23.1460    5.7690 C.2    18  SER18       0.2643
     28  O        -27.8570   24.2790    5.2860 O.2    18  SER18      -0.2714
     29  CB       -26.1230   22.1590    7.3530 C.3    18  SER18       0.2130
     30  OG       -26.3000   20.8100    6.9470 O.3    18  SER18      -0.2179
     31  N        -28.0110   22.0410    5.0660 N.am   19  PHE19      -0.1973
     32  CA       -28.3130   22.0620    3.6380 C.3    19  PHE19       0.1639
     33  C        -29.5770   22.7920    3.1600 C.2    19  PHE19       0.2290
     34  O        -29.7030   23.0920    1.9730 O.2    19  PHE19      -0.2864
     35  CB       -28.3400   20.6240    3.1150 C.3    19  PHE19       0.0560
     36  CG       -27.6920   20.4600    1.7760 C.ar   19  PHE19      -0.0200
     37  CD1      -26.3590   20.8190    1.5950 C.ar   19  PHE19      -0.0042
     38  CD2      -28.4080   19.9560    0.6920 C.ar   19  PHE19      -0.0042
     39  CE1      -25.7490   20.6800    0.3540 C.ar   19  PHE19      -0.0003
     40  CE2      -27.8060   19.8130   -0.5530 C.ar   19  PHE19      -0.0003
     41  CZ       -26.4760   20.1760   -0.7230 C.ar   19  PHE19      -0.0000
     42  N        -30.6380   24.0250   -0.9250 N.3    23  ILE23      -0.1245
     43  CA       -31.8120   23.5440   -1.6480 C.3    23  ILE23       0.1561
     44  C        -32.6710   24.7380   -2.0430 C.2    23  ILE23       0.2260
     45  O        -33.2100   24.7850   -3.1380 O.2    23  ILE23      -0.2867
     46  CB       -32.6610   22.5870   -0.7800 C.3    23  ILE23       0.0252
     47  CG1      -31.8790   21.3050   -0.4980 C.3    23  ILE23       0.0019
     48  CG2      -33.9760   22.2740   -1.4770 C.3    23  ILE23       0.0019
     49  CD1      -32.6410   20.3050    0.3640 C.3    23  ILE23       0.0001
     50  N        -37.0790   19.6410   -5.1720 N.3    34  VAL34      -0.1245
     51  CA       -36.0900   19.0630   -4.2610 C.3    34  VAL34       0.1561
     52  C        -36.5180   19.2110   -2.8050 C.2    34  VAL34       0.2260
     53  O        -36.2730   18.3290   -1.9820 O.2    34  VAL34      -0.2867
     54  CB       -34.7000   19.7260   -4.4540 C.3    34  VAL34       0.0252
     55  CG1      -33.6940   19.1710   -3.4520 C.3    34  VAL34       0.0019
     56  CG2      -34.2130   19.4840   -5.8730 C.3    34  VAL34       0.0019
     57  N        -39.1970   16.5690   -2.2960 N.3    37  PHE37      -0.1227
     58  CA       -38.4960   15.3040   -2.4670 C.3    37  PHE37       0.1736
     59  C        -37.6640   14.9890   -1.2230 C.2    37  PHE37       0.2595
     60  O        -37.5820   13.8380   -0.7910 O.2    37  PHE37      -0.2718
     61  CB       -37.6040   15.3790   -3.7150 C.3    37  PHE37       0.0547
     62  CG       -36.9810   14.0680   -4.1100 C.ar   37  PHE37      -0.0202
     63  CD1      -37.4510   12.8620   -3.5930 C.ar   37  PHE37      -0.0042
     64  CD2      -35.9430   14.0400   -5.0350 C.ar   37  PHE37      -0.0042
     65  CE1      -36.9000   11.6540   -3.9900 C.ar   37  PHE37      -0.0003
     66  CE2      -35.3820   12.8350   -5.4420 C.ar   37  PHE37      -0.0003
     67  CZ       -35.8630   11.6380   -4.9170 C.ar   37  PHE37      -0.0000
     68  N        -37.0520   16.0130   -0.6410 N.am   38  TYR38      -0.1976
     69  CA       -36.2430   15.8130    0.5490 C.3    38  TYR38       0.1639
     70  C        -37.1510   15.4050    1.6980 C.2    38  TYR38       0.2290
     71  O        -36.8390   14.4870    2.4550 O.2    38  TYR38      -0.2864
     72  CB       -35.4890   17.0970    0.9090 C.3    38  TYR38       0.0560
     73  CG       -34.5920   16.9380    2.1100 C.ar   38  TYR38      -0.0198
     74  CD1      -35.0840   17.0990    3.4070 C.ar   38  TYR38      -0.0009
     75  CD2      -33.2610   16.5510    1.9510 C.ar   38  TYR38      -0.0009
     76  CE1      -34.2610   16.8690    4.5190 C.ar   38  TYR38       0.0417
     77  CE2      -32.4400   16.3200    3.0450 C.ar   38  TYR38       0.0417
     78  CZ       -32.9390   16.4770    4.3210 C.ar   38  TYR38       0.1957
     79  OH       -32.1030   16.2200    5.3810 O.3    38  TYR38      -0.2866
     80  N        -38.5750   11.8570    1.5080 N.3    41  LEU41      -0.1245
     81  CA       -37.4780   10.9260    1.7450 C.3    41  LEU41       0.1561
     82  C        -37.1390   10.8580    3.2200 C.2    41  LEU41       0.2260
     83  O        -36.7020    9.8220    3.7170 O.2    41  LEU41      -0.2867
     84  CB       -36.2420   11.3380    0.9490 C.3    41  LEU41       0.0270
     85  CG       -36.2590   11.0020   -0.5420 C.3    41  LEU41       0.0019
     86  CD1      -35.0560   11.6290   -1.2220 C.3    41  LEU41       0.0001
     87  CD2      -36.2560    9.4890   -0.7170 C.3    41  LEU41       0.0001
     88  N        -31.5360    8.0790   -4.7300 N.3   144  VAL144     -0.1245
     89  CA       -31.7390    9.4940   -4.4550 C.3   144  VAL144      0.1561
     90  C        -31.0030   10.3100   -5.5210 C.2   144  VAL144      0.2260
     91  O        -31.5570   11.2630   -6.0830 O.2   144  VAL144     -0.2867
     92  CB       -31.1870    9.9040   -3.0610 C.3   144  VAL144      0.0252
     93  CG1      -31.5260   11.3600   -2.7930 C.3   144  VAL144      0.0019
     94  CG2      -31.7580    9.0050   -1.9640 C.3   144  VAL144      0.0019
     95  N        -32.6160   12.8130   -8.2290 N.3   148  LEU148     -0.1245
     96  CA       -32.2330   14.2060   -8.3710 C.3   148  LEU148      0.1561
     97  C        -31.7780   14.4920   -9.7970 C.2   148  LEU148      0.2260
     98  O        -32.1620   15.4990  -10.3830 O.2   148  LEU148     -0.2867
     99  CB       -31.1210   14.5370   -7.3750 C.3   148  LEU148      0.0270
    100  CG       -31.5790   14.4610   -5.9130 C.3   148  LEU148      0.0019
    101  CD1      -30.3910   14.2090   -5.0040 C.3   148  LEU148      0.0001
    102  CD2      -32.3140   15.7470   -5.5310 C.3   148  LEU148      0.0001
    103  N        -21.4690    9.0770   -0.8200 N.3   176  LEU176     -0.1245
    104  CA       -22.0080    9.7880    0.3320 C.3   176  LEU176      0.1561
    105  C        -22.4050    8.8750    1.4910 C.2   176  LEU176      0.2260
    106  O        -22.0820    9.1590    2.6460 O.2   176  LEU176     -0.2867
    107  CB       -23.2100   10.6270   -0.1010 C.3   176  LEU176      0.0270
    108  CG       -23.3060   12.0410    0.4730 C.3   176  LEU176      0.0019
    109  CD1      -21.9980   12.7810    0.2390 C.3   176  LEU176      0.0001
    110  CD2      -24.4570   12.7840   -0.1920 C.3   176  LEU176      0.0001
    111  N        -20.6980    8.2060    5.2570 N.3   180  ASN180     -0.1240
    112  CA       -21.4940    8.3730    6.4690 C.3   180  ASN180      0.1653
    113  C        -21.5030    7.1100    7.3220 C.2   180  ASN180      0.2266
    114  O        -21.3140    7.1760    8.5360 O.2   180  ASN180     -0.2867
    115  CB       -22.9290    8.7780    6.1190 C.3   180  ASN180      0.1155
    116  CG       -23.0440   10.2460    5.7650 C.2   180  ASN180      0.2627
    117  OD1      -22.4950   11.0980    6.4600 O.2   180  ASN180     -0.2716
    118  ND2      -23.7670   10.5520    4.6900 N.am  180  ASN180     -0.0877
    119  N        -18.1820    6.5770    9.0300 N.3   183  ARG183     -0.1245
    120  CA       -17.9480    7.5110   10.1250 C.3   183  ARG183      0.1563
    121  C        -18.9290    7.3990   11.2880 C.2   183  ARG183      0.2260
    122  O        -18.6400    7.8600   12.3910 O.2   183  ARG183     -0.2867
    123  CB       -17.9530    8.9500    9.6150 C.3   183  ARG183      0.0307
    124  CG       -17.5000    9.9510   10.6630 C.3   183  ARG183      0.0489
    125  CD       -18.2140   11.2630   10.4890 C.3   183  ARG183      0.2205
    126  NE       -19.6420   11.0340   10.3190 N.pl3 183  ARG183     -0.0865
    127  CZ       -20.5540   11.9960   10.2660 C.cat 183  ARG183      0.5346
    128  NH1      -21.8320   11.6870   10.1010 N.pl3 183  ARG183      0.1354
    129  NH2      -20.1890   13.2650   10.3890 N.pl3 183  ARG183      0.1354
    130  N        -25.3480   22.6110   -5.1970 N.3   253  PHE253     -0.1241
    131  CA       -26.1520   21.5960   -4.5370 C.3   253  PHE253      0.1605
    132  C        -25.5110   20.2100   -4.5610 C.2   253  PHE253      0.2264
    133  O        -25.6120   19.4550   -3.5990 O.2   253  PHE253     -0.2867
    134  CB       -27.5360   21.5370   -5.1980 C.3   253  PHE253      0.0534
    135  CG       -28.3930   20.4100   -4.7080 C.ar  253  PHE253     -0.0203
    136  CD1      -29.1250   20.5310   -3.5430 C.ar  253  PHE253     -0.0042
    137  CD2      -28.4170   19.2000   -5.3830 C.ar  253  PHE253     -0.0042
    138  CE1      -29.8640   19.4630   -3.0520 C.ar  253  PHE253     -0.0003
    139  CE2      -29.1530   18.1270   -4.8950 C.ar  253  PHE253     -0.0003
    140  CZ       -29.8750   18.2600   -3.7270 C.ar  253  PHE253     -0.0000
    141  N        -21.9430   18.5940   -0.7830 N.3   257  PRO257     -0.2116
    142  CA       -21.9660   17.3400   -0.0210 C.3   257  PRO257      0.1372
    143  C        -20.7860   16.4250   -0.3590 C.2   257  PRO257      0.2244
    144  O        -20.2250   15.7740    0.5220 O.2   257  PRO257     -0.2868
    145  CB       -23.3000   16.7130   -0.4260 C.3   257  PRO257      0.0268
    146  CG       -24.1610   17.9000   -0.6810 C.3   257  PRO257      0.0207
    147  CD       -23.2400   18.8350   -1.4380 C.3   257  PRO257      0.0892
    148  N        -17.6340   17.7360    1.2200 N.3   260  MET260     -0.1245
    149  CA       -17.7270   17.4790    2.6440 C.3   260  MET260      0.1570
    150  C        -17.3890   16.0280    2.9560 C.2   260  MET260      0.2261
    151  O        -16.6970   15.7470    3.9340 O.2   260  MET260     -0.2867
    152  CB       -19.1300   17.8020    3.1510 C.3   260  MET260      0.0387
    153  CG       -19.1820   18.9750    4.1060 C.3   260  MET260      0.0595
    154  SD       -20.2900   20.2660    3.5040 S.3   260  MET260     -0.1393
    155  CE       -21.9710   19.5380    3.8530 C.3   260  MET260      0.0692
@<TRIPOS>BOND
     1    98    97    2
     2    97    96    1
     3    96    95    1
     4    96    99    1
     5    99   100    1
     6    91    90    2
     7   100   102    1
     8   100   101    1
     9    56    54    1
    10    90    89    1
    11    66    64   ar
    12    66    67   ar
    13   137   139   ar
    14   137   135   ar
    15   134   135    1
    16   134   131    1
    17   130   131    1
    18    50    51    1
    19    64    62   ar
    20    67    65   ar
    21   139   140   ar
    22    88    89    1
    23   135   136   ar
    24   132   131    1
    25   132   133    2
    26    89    92    1
    27    54    51    1
    28    54    55    1
    29    51    52    1
    30    62    61    1
    31    62    63   ar
    32    65    63   ar
    33   140   138   ar
    34    61    58    1
    35   136   138   ar
    36    45    44    2
    37    92    93    1
    38    92    94    1
    39    52    53    2
    40    58    57    1
    41    58    59    1
    42    44    43    1
    43    43    42    1
    44    43    46    1
    45    48    46    1
    46   147   141    1
    47   147   146    1
    48    59    60    2
    49    59    68   am
    50    86    85    1
    51   103   104    1
    52   141   142    1
    53    46    47    1
    54    41    40   ar
    55    41    39   ar
    56    87    85    1
    57   146   145    1
    58    68    69    1
    59    40    38   ar
    60    85    84    1
    61    47    49    1
    62   145   142    1
    63   143   142    1
    64   143   144    2
    65   110   108    1
    66   107   104    1
    67   107   108    1
    68   109   108    1
    69   104   105    1
    70    39    37   ar
    71    69    72    1
    72    69    70    1
    73    38    36   ar
    74    72    73    1
    75    84    81    1
    76   148   149    1
    77   105   106    2
    78    80    81    1
    79    37    36   ar
    80    70    71    2
    81    81    82    1
    82    36    35    1
    83    75    73   ar
    84    75    77   ar
    85    34    33    2
    86    73    74   ar
    87   149   150    1
    88   149   152    1
    89   150   151    2
    90    77    78   ar
    91    35    32    1
    92   152   153    1
    93    33    32    1
    94    82    83    2
    95    74    76   ar
    96   154   155    1
    97   154   153    1
    98    32    31    1
    99    78    76   ar
   100    78    79    1
   101   118   116   am
   102    31    27   am
   103    13    12    1
   104   111   112    1
   105    28    27    2
   106    12     9    1
   107   116   115    1
   108   116   117    2
   109    27    26    1
   110   115   112    1
   111   112   113    1
   112    30    29    1
   113    11    10    2
   114    26    29    1
   115    26    25    1
   116     6     5    1
   117     9    10    1
   118     9     8    1
   119   113   114    2
   120    10    14   am
   121     8     3   am
   122    25    16   am
   123     5     7    1
   124     5     2    1
   125     3     4    2
   126     3     2    1
   127    16    17    2
   128    16    15    1
   129    14    15    1
   130   119   120    1
   131     2     1    1
   132   123   120    1
   133   123   124    1
   134    15    18    1
   135   128   127    1
   136   120   121    1
   137   127   126    2
   138   127   129    1
   139   126   125    1
   140   125   124    1
   141    18    19    1
   142   121   122    2
   143    19    20    1
   144    20    21    1
   145    21    22    2
   146    23    22    1
   147    22    24    1
