@<TRIPOS>MOLECULE
tmp/3wchA02.pdb
 120 114 0 0 0
SMALL
GASTEIGER

@<TRIPOS>ATOM
      1  N        -25.7500   51.1140  -52.3690 N.3    15  THR15      -0.1203
      2  CA       -24.3020   50.9620  -52.5150 C.3    15  THR15       0.1994
      3  C        -23.7480   49.5920  -52.1760 C.2    15  THR15       0.2619
      4  O        -22.5550   49.3520  -52.3550 O.2    15  THR15      -0.2717
      5  CB       -23.5410   51.9960  -51.6410 C.3    15  THR15       0.1784
      6  OG1      -23.9730   51.8860  -50.2750 O.3    15  THR15      -0.2211
      7  CG2      -23.8030   53.4130  -52.1330 C.3    15  THR15       0.0376
      8  N        -24.6020   48.7000  -51.6830 N.am   16  SER16      -0.1937
      9  CA       -24.1670   47.3510  -51.3200 C.3    16  SER16       0.2055
     10  C        -25.1890   46.2890  -51.7060 C.2    16  SER16       0.2643
     11  O        -25.8340   45.6880  -50.8510 O.2    16  SER16      -0.2714
     12  CB       -23.9000   47.2650  -49.8150 C.3    16  SER16       0.2130
     13  OG       -23.3990   45.9850  -49.4790 O.3    16  SER16      -0.2179
     14  N        -25.3350   46.0620  -53.0020 N.am   17  ARG17      -0.1963
     15  CA       -26.2780   45.0730  -53.5060 C.3    17  ARG17       0.1729
     16  C        -26.1770   43.7320  -52.7960 C.2    17  ARG17       0.2617
     17  O        -27.1840   43.1410  -52.4140 O.2    17  ARG17      -0.2715
     18  CB       -26.0370   44.8310  -54.9970 C.3    17  ARG17       0.0348
     19  CG       -26.9300   45.6100  -55.9520 C.3    17  ARG17       0.0492
     20  CD       -26.5980   45.2310  -57.3920 C.3    17  ARG17       0.2205
     21  NE       -26.3230   43.7970  -57.4910 N.pl3  17  ARG17      -0.0865
     22  CZ       -25.1920   43.2710  -57.9590 C.cat  17  ARG17       0.5346
     23  NH1      -24.2110   44.0570  -58.3880 N.pl3  17  ARG17       0.1354
     24  NH2      -25.0330   41.9530  -57.9730 N.pl3  17  ARG17       0.1354
     25  N        -24.9510   43.2600  -52.6130 N.am   18  SER18      -0.1936
     26  CA       -24.7170   41.9460  -52.0280 C.3    18  SER18       0.2055
     27  C        -24.5110   41.7690  -50.5250 C.2    18  SER18       0.2643
     28  O        -24.5160   40.6340  -50.0460 O.2    18  SER18      -0.2714
     29  CB       -23.5350   41.2910  -52.7530 C.3    18  SER18       0.2130
     30  OG       -22.3550   42.0590  -52.6000 O.3    18  SER18      -0.2179
     31  N        -24.3430   42.8470  -49.7700 N.am   19  PHE19      -0.1973
     32  CA       -24.1040   42.6740  -48.3440 C.3    19  PHE19       0.1639
     33  C        -25.0120   43.4540  -47.3950 C.2    19  PHE19       0.2290
     34  O        -24.8620   43.3630  -46.1820 O.2    19  PHE19      -0.2864
     35  CB       -22.6450   43.0150  -48.0400 C.3    19  PHE19       0.0560
     36  CG       -22.0210   42.1260  -47.0140 C.ar   19  PHE19      -0.0200
     37  CD1      -21.2250   42.6580  -46.0020 C.ar   19  PHE19      -0.0042
     38  CD2      -22.2390   40.7500  -47.0520 C.ar   19  PHE19      -0.0042
     39  CE1      -20.6550   41.8280  -45.0320 C.ar   19  PHE19      -0.0003
     40  CE2      -21.6780   39.9120  -46.0920 C.ar   19  PHE19      -0.0003
     41  CZ       -20.8820   40.4520  -45.0740 C.ar   19  PHE19      -0.0000
     42  N        -20.2660   51.6440  -43.0800 N.3    38  TYR38      -0.1241
     43  CA       -20.2130   51.2580  -44.4860 C.3    38  TYR38       0.1605
     44  C        -20.4090   52.4800  -45.3810 C.2    38  TYR38       0.2264
     45  O        -19.6360   52.7260  -46.3110 O.2    38  TYR38      -0.2867
     46  CB       -21.2810   50.2000  -44.7840 C.3    38  TYR38       0.0534
     47  CG       -21.1860   49.6340  -46.1740 C.ar   38  TYR38      -0.0201
     48  CD1      -21.8100   50.2660  -47.2550 C.ar   38  TYR38      -0.0009
     49  CD2      -20.4250   48.4930  -46.4230 C.ar   38  TYR38      -0.0009
     50  CE1      -21.6730   49.7730  -48.5510 C.ar   38  TYR38       0.0417
     51  CE2      -20.2820   47.9950  -47.7090 C.ar   38  TYR38       0.0417
     52  CZ       -20.9100   48.6400  -48.7700 C.ar   38  TYR38       0.1957
     53  OH       -20.7720   48.1470  -50.0510 O.3    38  TYR38      -0.2866
     54  N        -17.8210   53.9800  -47.8330 N.3    42  ARG42      -0.1245
     55  CA       -18.2200   54.0270  -49.2290 C.3    42  ARG42       0.1563
     56  C        -17.8910   55.4060  -49.7920 C.2    42  ARG42       0.2260
     57  O        -17.3790   55.5380  -50.9080 O.2    42  ARG42      -0.2867
     58  CB       -19.7230   53.7550  -49.3360 C.3    42  ARG42       0.0307
     59  CG       -20.3010   53.8250  -50.7430 C.3    42  ARG42       0.0489
     60  CD       -19.7060   52.7630  -51.6510 C.3    42  ARG42       0.2205
     61  NE       -18.5700   53.2690  -52.4120 N.pl3  42  ARG42      -0.0865
     62  CZ       -17.8090   52.5140  -53.2000 C.cat  42  ARG42       0.5346
     63  NH1      -18.0680   51.2210  -53.3180 N.pl3  42  ARG42       0.1354
     64  NH2      -16.7970   53.0470  -53.8740 N.pl3  42  ARG42       0.1354
     65  N        -20.1960   56.3600  -59.6910 N.3    82  LYS82      -0.1245
     66  CA       -21.4980   55.7080  -59.5510 C.3    82  LYS82       0.1561
     67  C        -22.1530   55.8550  -58.1830 C.2    82  LYS82       0.2260
     68  O        -23.3730   55.9200  -58.0920 O.2    82  LYS82      -0.2867
     69  CB       -21.3810   54.2260  -59.8910 C.3    82  LYS82       0.0271
     70  CG       -20.4660   53.4570  -58.9650 C.3    82  LYS82       0.0035
     71  CD       -20.5390   51.9710  -59.2560 C.3    82  LYS82       0.0206
     72  CE       -19.3930   51.2020  -58.6000 C.3    82  LYS82       0.1093
     73  NZ       -19.3320   51.3430  -57.1120 N.3    82  LYS82      -0.1314
     74  N         -9.2500   39.5010  -48.2930 N.3   176  LEU176     -0.1245
     75  CA       -10.3390   39.9750  -49.1290 C.3   176  LEU176      0.1561
     76  C         -9.8720   40.8900  -50.2510 C.2   176  LEU176      0.2260
     77  O        -10.2900   40.7310  -51.3980 O.2   176  LEU176     -0.2867
     78  CB       -11.3740   40.7180  -48.2850 C.3   176  LEU176      0.0270
     79  CG       -12.7870   40.1300  -48.2750 C.3   176  LEU176      0.0019
     80  CD1      -12.7220   38.7130  -47.7230 C.3   176  LEU176      0.0001
     81  CD2      -13.7180   40.9900  -47.4330 C.3   176  LEU176      0.0001
     82  N         -9.7840   40.2740  -54.5180 N.3   180  ASN180     -0.1240
     83  CA       -10.4240   41.1750  -55.4620 C.3   180  ASN180      0.1653
     84  C         -9.4210   41.8190  -56.4110 C.2   180  ASN180      0.2266
     85  O         -9.6710   41.8990  -57.6130 O.2   180  ASN180     -0.2867
     86  CB       -11.2190   42.2420  -54.7200 C.3   180  ASN180      0.1155
     87  CG       -12.3550   41.6530  -53.9090 C.2   180  ASN180      0.2627
     88  OD1      -12.8310   40.5470  -54.1850 O.2   180  ASN180     -0.2716
     89  ND2      -12.8060   42.3950  -52.9090 N.am  180  ASN180     -0.0877
     90  N         -8.6090   39.1630  -58.9180 N.3   183  ARG183     -0.1245
     91  CA        -9.7480   38.9100  -59.7930 C.3   183  ARG183      0.1563
     92  C        -10.0360   40.0250  -60.7840 C.2   183  ARG183      0.2260
     93  O        -10.3470   39.7640  -61.9480 O.2   183  ARG183     -0.2867
     94  CB       -11.0120   38.6750  -58.9660 C.3   183  ARG183      0.0307
     95  CG       -12.2810   38.5810  -59.8090 C.3   183  ARG183      0.0489
     96  CD       -13.5370   38.7000  -58.9590 C.3   183  ARG183      0.2205
     97  NE       -13.7370   40.0660  -58.4850 N.pl3 183  ARG183     -0.0865
     98  CZ       -14.4290   40.3970  -57.3970 C.cat 183  ARG183      0.5346
     99  NH1      -15.0000   39.4610  -56.6450 N.pl3 183  ARG183      0.1354
    100  NH2      -14.5440   41.6740  -57.0570 N.pl3 183  ARG183      0.1354
    101  N        -18.1280   36.6690  -46.4850 N.3   257  PRO257     -0.2116
    102  CA       -17.1950   37.3100  -47.4200 C.3   257  PRO257      0.1372
    103  C        -15.9290   36.4820  -47.6250 C.2   257  PRO257      0.2244
    104  O        -15.4250   36.3730  -48.7500 O.2   257  PRO257     -0.2868
    105  CB       -16.8940   38.6460  -46.7490 C.3   257  PRO257      0.0268
    106  CG       -18.1710   38.9390  -46.0120 C.3   257  PRO257      0.0207
    107  CD       -18.5240   37.6020  -45.4150 C.3   257  PRO257      0.0892
    108  N        -16.6830   33.3870  -49.7010 N.3   260  MET260     -0.1230
    109  CA       -16.8520   33.8250  -51.0750 C.3   260  MET260      0.1702
    110  C        -15.4850   34.1070  -51.6910 C.2   260  MET260      0.2592
    111  O        -15.2440   33.7810  -52.8540 O.2   260  MET260     -0.2718
    112  CB       -17.7340   35.0770  -51.1200 C.3   260  MET260      0.0401
    113  CG       -18.9510   34.9270  -52.0210 C.3   260  MET260      0.0596
    114  SD       -20.2630   36.1100  -51.6270 S.3   260  MET260     -0.1393
    115  CE       -19.8500   37.5070  -52.7470 C.3   260  MET260      0.0692
    116  N        -14.5890   34.6950  -50.9020 N.am  261  ALA261     -0.1980
    117  CA       -13.2360   35.0220  -51.3670 C.3   261  ALA261      0.1597
    118  C        -12.4250   33.7800  -51.7170 C.2   261  ALA261      0.2287
    119  O        -11.6890   33.7860  -52.7030 O.2   261  ALA261     -0.2864
    120  CB       -12.4970   35.8350  -50.3100 C.3   261  ALA261      0.0319
@<TRIPOS>BOND
     1    93    92    2
     2    92    91    1
     3    69    66    1
     4    69    70    1
     5    95    94    1
     6    95    96    1
     7    91    94    1
     8    91    90    1
     9    65    66    1
    10    66    67    1
    11    71    70    1
    12    71    72    1
    13    96    97    1
    14    72    73    1
    15    97    98    2
    16    23    22    1
    17    67    68    2
    18    24    22    1
    19    22    21    2
    20    85    84    2
    21    21    20    1
    22    98   100    1
    23    98    99    1
    24    20    19    1
    25    84    83    1
    26    19    18    1
    27    83    86    1
    28    83    82    1
    29    18    15    1
    30    86    87    1
    31    88    87    2
    32    87    89   am
    33    64    62    1
    34    15    14    1
    35    15    16    1
    36    63    62    1
    37    62    61    2
    38    14    10   am
    39   111   110    2
    40    16    25   am
    41    16    17    2
    42    29    30    1
    43    29    26    1
    44   115   114    1
    45   119   118    2
    46    25    26    1
    47     2     1    1
    48     2     3    1
    49     2     5    1
    50    61    60    1
    51     4     3    2
    52     3     8   am
    53     7     5    1
    54    26    27    1
    55   113   114    1
    56   113   112    1
    57   118   117    1
    58    10     9    1
    59    10    11    2
    60   110   109    1
    61   110   116   am
    62     8     9    1
    63    60    59    1
    64     5     6    1
    65    77    76    2
    66   117   116    1
    67   117   120    1
    68     9    12    1
    69   112   109    1
    70   109   108    1
    71    57    56    2
    72    59    58    1
    73    27    28    2
    74    27    31   am
    75    76    75    1
    76    53    52    1
    77    12    13    1
    78    56    55    1
    79    31    32    1
    80    58    55    1
    81    55    54    1
    82    75    74    1
    83    75    78    1
    84    52    50   ar
    85    52    51   ar
    86   104   103    2
    87    50    48   ar
    88    32    35    1
    89    32    33    1
    90    78    79    1
    91    79    80    1
    92    79    81    1
    93    35    36    1
    94    51    49   ar
    95   103   102    1
    96   102   105    1
    97   102   101    1
    98    33    34    2
    99    48    47   ar
   100    38    36   ar
   101    38    40   ar
   102    36    37   ar
   103   105   106    1
   104   101   107    1
   105    49    47   ar
   106    45    44    2
   107    47    46    1
   108    40    41   ar
   109   106   107    1
   110    37    39   ar
   111    44    43    1
   112    41    39   ar
   113    46    43    1
   114    43    42    1
