@<TRIPOS>MOLECULE
tmp/3wchB01.pdb
 118 111 0 0 0
SMALL
GASTEIGER

@<TRIPOS>ATOM
      1  N         -9.0050   10.0260  -48.9550 N.3    16  SER16      -0.1217
      2  CA       -10.3530   10.4090  -48.5360 C.3    16  SER16       0.1889
      3  C        -10.8260   11.6450  -49.2840 C.2    16  SER16       0.2288
      4  O        -11.2970   12.6090  -48.6810 O.2    16  SER16      -0.2866
      5  CB       -10.3610   10.6740  -47.0260 C.3    16  SER16       0.2089
      6  OG       -11.6550   10.9720  -46.5510 O.3    16  SER16      -0.2183
      7  N        -13.3900   12.9750  -50.6880 N.3    18  SER18      -0.1202
      8  CA       -14.5330   13.6920  -50.1340 C.3    18  SER18       0.2020
      9  C        -14.3600   14.1320  -48.6650 C.2    18  SER18       0.2618
     10  O        -14.1900   15.3220  -48.3660 O.2    18  SER18      -0.2717
     11  CB       -15.7950   12.8200  -50.2880 C.3    18  SER18       0.2103
     12  OG       -15.4940   11.4410  -50.1120 O.3    18  SER18      -0.2182
     13  N        -14.3610   13.1580  -47.7650 N.am   19  PHE19      -0.1975
     14  CA       -14.2670   13.3830  -46.3290 C.3    19  PHE19       0.1639
     15  C        -13.0600   14.0380  -45.6200 C.2    19  PHE19       0.2290
     16  O        -13.1890   14.4150  -44.4590 O.2    19  PHE19      -0.2864
     17  CB       -14.5780   12.0520  -45.6450 C.3    19  PHE19       0.0560
     18  CG       -15.5190   12.1830  -44.5050 C.ar   19  PHE19      -0.0200
     19  CD1      -16.7070   12.8960  -44.6590 C.ar   19  PHE19      -0.0042
     20  CD2      -15.2060   11.6450  -43.2630 C.ar   19  PHE19      -0.0042
     21  CE1      -17.5670   13.0780  -43.5900 C.ar   19  PHE19      -0.0003
     22  CE2      -16.0580   11.8200  -42.1890 C.ar   19  PHE19      -0.0003
     23  CZ       -17.2440   12.5420  -42.3510 C.ar   19  PHE19      -0.0000
     24  N        -12.9710   15.8210  -41.6260 N.3    23  ILE23      -0.1245
     25  CA       -12.0630   15.3110  -40.6010 C.3    23  ILE23       0.1561
     26  C        -11.1500   16.4340  -40.1000 C.2    23  ILE23       0.2260
     27  O        -10.9920   16.6430  -38.8950 O.2    23  ILE23      -0.2867
     28  CB       -11.1840   14.1460  -41.1580 C.3    23  ILE23       0.0252
     29  CG1      -12.0390   12.8910  -41.3710 C.3    23  ILE23       0.0019
     30  CG2      -10.0390   13.8500  -40.2080 C.3    23  ILE23       0.0019
     31  CD1      -11.2740   11.6840  -41.9550 C.3    23  ILE23       0.0001
     32  N         -8.1940   11.2560  -35.3490 N.3    34  VAL34      -0.1245
     33  CA        -9.0230   10.6230  -36.3610 C.3    34  VAL34       0.1561
     34  C         -8.2840   10.5050  -37.6910 C.2    34  VAL34       0.2260
     35  O         -8.4480    9.5240  -38.4160 O.2    34  VAL34      -0.2867
     36  CB       -10.3450   11.4070  -36.5550 C.3    34  VAL34       0.0252
     37  CG1      -11.1000   10.8850  -37.7810 C.3    34  VAL34       0.0019
     38  CG2      -11.2020   11.2790  -35.3100 C.3    34  VAL34       0.0019
     39  N         -6.0710    7.5650  -37.3380 N.3    37  PHE37      -0.1227
     40  CA        -6.9140    6.3870  -37.2340 C.3    37  PHE37       0.1736
     41  C         -7.4290    6.0190  -38.6190 C.2    37  PHE37       0.2595
     42  O         -7.4500    4.8510  -39.0020 O.2    37  PHE37      -0.2718
     43  CB        -8.0710    6.6770  -36.2720 C.3    37  PHE37       0.0547
     44  CG        -8.9200    5.4770  -35.9400 C.ar   37  PHE37      -0.0202
     45  CD1       -8.4140    4.1830  -36.0410 C.ar   37  PHE37      -0.0042
     46  CD2      -10.2180    5.6470  -35.4780 C.ar   37  PHE37      -0.0042
     47  CE1       -9.1890    3.0720  -35.6850 C.ar   37  PHE37      -0.0003
     48  CE2      -10.9940    4.5480  -35.1210 C.ar   37  PHE37      -0.0003
     49  CZ       -10.4730    3.2560  -35.2270 C.ar   37  PHE37      -0.0000
     50  N         -7.8210    7.0300  -39.3820 N.am   38  TYR38      -0.1976
     51  CA        -8.3280    6.7880  -40.7180 C.3    38  TYR38       0.1639
     52  C         -7.2510    6.1480  -41.5910 C.2    38  TYR38       0.2290
     53  O         -7.5250    5.1900  -42.3220 O.2    38  TYR38      -0.2864
     54  CB        -8.8150    8.0970  -41.3400 C.3    38  TYR38       0.0560
     55  CG        -9.3410    7.9250  -42.7410 C.ar   38  TYR38      -0.0198
     56  CD1       -8.4730    7.7900  -43.8260 C.ar   38  TYR38      -0.0009
     57  CD2      -10.7080    7.8470  -42.9780 C.ar   38  TYR38      -0.0009
     58  CE1       -8.9610    7.5800  -45.1150 C.ar   38  TYR38       0.0417
     59  CE2      -11.2030    7.6390  -44.2530 C.ar   38  TYR38       0.0417
     60  CZ       -10.3300    7.5080  -45.3190 C.ar   38  TYR38       0.1957
     61  OH       -10.8310    7.3330  -46.5880 O.3    38  TYR38      -0.2866
     62  N         -6.3460    2.5660  -40.6840 N.3    41  LEU41      -0.1245
     63  CA        -7.4630    1.7260  -41.1190 C.3    41  LEU41       0.1561
     64  C         -7.3820    1.5260  -42.6200 C.2    41  LEU41       0.2260
     65  O         -7.6510    0.4380  -43.1290 O.2    41  LEU41      -0.2867
     66  CB        -8.8090    2.3620  -40.7760 C.3    41  LEU41       0.0270
     67  CG        -9.2530    2.2170  -39.3200 C.3    41  LEU41       0.0019
     68  CD1      -10.5470    2.9890  -39.0750 C.3    41  LEU41       0.0001
     69  CD2       -9.4280    0.7390  -39.0060 C.3    41  LEU41       0.0001
     70  N        -15.1380    0.5010  -36.1380 N.3   144  VAL144     -0.1245
     71  CA       -14.6500    1.8480  -36.3960 C.3   144  VAL144      0.1561
     72  C        -15.5310    2.8330  -35.6190 C.2   144  VAL144      0.2260
     73  O        -15.0370    3.7970  -35.0330 O.2   144  VAL144     -0.2867
     74  CB       -14.6950    2.1920  -37.9010 C.3   144  VAL144      0.0252
     75  CG1      -14.2050    3.6190  -38.1200 C.3   144  VAL144      0.0019
     76  CG2      -13.8260    1.2150  -38.6810 C.3   144  VAL144      0.0019
     77  N        -14.0190    5.3000  -32.9410 N.3   148  LEU148     -0.1245
     78  CA       -14.2360    6.7400  -32.9930 C.3   148  LEU148      0.1561
     79  C        -14.9920    7.2810  -31.7710 C.2   148  LEU148      0.2260
     80  O        -14.6920    8.3720  -31.2860 O.2   148  LEU148     -0.2867
     81  CB       -15.0150    7.1090  -34.2550 C.3   148  LEU148      0.0270
     82  CG       -14.3130    6.9930  -35.6040 C.3   148  LEU148      0.0019
     83  CD1      -15.3410    7.1750  -36.7190 C.3   148  LEU148      0.0001
     84  CD2      -13.2040    8.0310  -35.7100 C.3   148  LEU148      0.0001
     85  N        -23.6420    2.1440  -42.4820 N.3   176  LEU176     -0.1245
     86  CA       -22.8640    2.5590  -43.6420 C.3   176  LEU176      0.1561
     87  C        -22.3950    1.3690  -44.4330 C.2   176  LEU176      0.2260
     88  O        -22.5340    1.3500  -45.6500 O.2   176  LEU176     -0.2867
     89  CB       -21.6210    3.3630  -43.2510 C.3   176  LEU176      0.0270
     90  CG       -21.7970    4.8660  -43.1140 C.3   176  LEU176      0.0019
     91  CD1      -22.7960    5.0950  -42.0160 C.3   176  LEU176      0.0001
     92  CD2      -20.4740    5.5510  -42.7990 C.3   176  LEU176      0.0001
     93  N        -19.2910   15.5230  -38.4960 N.3   253  PHE253     -0.1241
     94  CA       -18.5010   14.3380  -38.8100 C.3   253  PHE253      0.1605
     95  C        -19.3230   13.0570  -38.7930 C.2   253  PHE253      0.2264
     96  O        -19.1940   12.2190  -39.6840 O.2   253  PHE253     -0.2867
     97  CB       -17.3300   14.2070  -37.8230 C.3   253  PHE253      0.0534
     98  CG       -16.5230   12.9470  -37.9960 C.ar  253  PHE253     -0.0203
     99  CD1      -15.5480   12.8600  -38.9750 C.ar  253  PHE253     -0.0042
    100  CD2      -16.7510   11.8440  -37.1890 C.ar  253  PHE253     -0.0042
    101  CE1      -14.8090   11.6950  -39.1490 C.ar  253  PHE253     -0.0003
    102  CE2      -16.0180   10.6710  -37.3550 C.ar  253  PHE253     -0.0003
    103  CZ       -15.0440   10.6010  -38.3390 C.ar  253  PHE253     -0.0000
    104  N        -22.1570   11.4220  -43.0510 N.3   257  PRO257     -0.2116
    105  CA       -22.0930   10.1080  -43.7000 C.3   257  PRO257      0.1372
    106  C        -23.3870    9.3100  -43.5390 C.2   257  PRO257      0.2244
    107  O        -23.7950    8.6020  -44.4520 O.2   257  PRO257     -0.2868
    108  CB       -20.9020    9.4390  -43.0130 C.3   257  PRO257      0.0268
    109  CG       -20.0120   10.6290  -42.6440 C.3   257  PRO257      0.0207
    110  CD       -21.0370   11.6010  -42.1090 C.3   257  PRO257      0.0892
    111  N        -25.7880   10.6780  -46.0020 N.3   260  MET260     -0.1245
    112  CA       -25.4170   10.2650  -47.3380 C.3   260  MET260      0.1570
    113  C        -25.8460    8.8250  -47.5520 C.2   260  MET260      0.2261
    114  O        -26.2830    8.4590  -48.6400 O.2   260  MET260     -0.2867
    115  CB       -23.9110   10.4080  -47.5440 C.3   260  MET260      0.0387
    116  CG       -23.4910   11.7860  -48.0430 C.3   260  MET260      0.0595
    117  SD       -21.6930   11.9800  -48.1220 S.3   260  MET260     -0.1393
    118  CE       -21.2800   11.0850  -49.6810 C.3   260  MET260      0.0692
@<TRIPOS>BOND
     1     7     8    1
     2    11     8    1
     3    11    12    1
     4     8     9    1
     5   118   117    1
     6     3     4    2
     7     3     2    1
     8     1     2    1
     9     9    10    2
    10     9    13   am
    11   114   113    2
    12     2     5    1
    13   117   116    1
    14   116   115    1
    15    13    14    1
    16   113   112    1
    17   115   112    1
    18   112   111    1
    19     5     6    1
    20    61    60    1
    21    14    17    1
    22    14    15    1
    23    88    87    2
    24    17    18    1
    25    15    16    2
    26    60    58   ar
    27    60    59   ar
    28    58    56   ar
    29    19    18   ar
    30    19    21   ar
    31    18    20   ar
    32   107   106    2
    33    87    86    1
    34    59    57   ar
    35    56    55   ar
    36   105   106    1
    37   105   104    1
    38   105   108    1
    39    86    89    1
    40    86    85    1
    41    21    23   ar
    42    20    22   ar
    43    89    90    1
    44    65    64    2
    45    90    92    1
    46    90    91    1
    47   104   110    1
    48   108   109    1
    49    57    55   ar
    50    55    54    1
    51   109   110    1
    52    64    63    1
    53    23    22   ar
    54    53    52    2
    55    31    29    1
    56    24    25    1
    57    52    51    1
    58    29    28    1
    59    54    51    1
    60    28    25    1
    61    28    30    1
    62    63    66    1
    63    63    62    1
    64    66    67    1
    65    51    50    1
    66    25    26    1
    67    26    27    2
    68    96    95    2
    69    50    41   am
    70    67    68    1
    71    67    69    1
    72   101    99   ar
    73   101   103   ar
    74    42    41    2
    75    99    98   ar
    76    94    95    1
    77    94    93    1
    78    94    97    1
    79    76    74    1
    80    41    40    1
    81    35    34    2
    82   103   102   ar
    83    75    74    1
    84    98    97    1
    85    98   100   ar
    86    74    71    1
    87    37    36    1
    88    34    33    1
    89   102   100   ar
    90    39    40    1
    91    40    43    1
    92    83    82    1
    93    36    33    1
    94    36    38    1
    95    71    70    1
    96    71    72    1
    97    33    32    1
    98    43    44    1
    99    45    44   ar
   100    45    47   ar
   101    44    46   ar
   102    84    82    1
   103    47    49   ar
   104    72    73    2
   105    82    81    1
   106    46    48   ar
   107    49    48   ar
   108    81    78    1
   109    78    77    1
   110    78    79    1
   111    79    80    2
