@<TRIPOS>MOLECULE
tmp/3wciA00.pdb
 224 214 0 0 0
SMALL
GASTEIGER

@<TRIPOS>ATOM
      1  N        -25.8420   51.0350  -53.1610 N.3    15  THR15      -0.1203
      2  CA       -24.4070   50.8450  -53.3360 C.3    15  THR15       0.1994
      3  C        -23.8580   49.4860  -52.9190 C.2    15  THR15       0.2619
      4  O        -22.7190   49.1600  -53.2380 O.2    15  THR15      -0.2717
      5  CB       -23.6340   51.9230  -52.5590 C.3    15  THR15       0.1784
      6  OG1      -23.9340   51.8030  -51.1620 O.3    15  THR15      -0.2211
      7  CG2      -24.0320   53.3210  -53.0370 C.3    15  THR15       0.0376
      8  N        -24.6500   48.6980  -52.2000 N.am   16  SER16      -0.1937
      9  CA       -24.1890   47.3860  -51.7570 C.3    16  SER16       0.2055
     10  C        -25.2140   46.3000  -52.0320 C.2    16  SER16       0.2643
     11  O        -25.8750   45.8130  -51.1150 O.2    16  SER16      -0.2714
     12  CB       -23.8840   47.4140  -50.2640 C.3    16  SER16       0.2130
     13  OG       -23.4720   46.1350  -49.8340 O.3    16  SER16      -0.2179
     14  N        -25.3310   45.9090  -53.2930 N.am   17  ARG17      -0.1963
     15  CA       -26.2990   44.8990  -53.6840 C.3    17  ARG17       0.1729
     16  C        -26.0600   43.5070  -53.0970 C.2    17  ARG17       0.2617
     17  O        -26.9200   42.6390  -53.2180 O.2    17  ARG17      -0.2715
     18  CB       -26.3730   44.8200  -55.2130 C.3    17  ARG17       0.0348
     19  CG       -25.0110   44.8890  -55.8720 C.3    17  ARG17       0.0492
     20  CD       -25.0330   44.4440  -57.3250 C.3    17  ARG17       0.2205
     21  NE       -23.6710   44.4280  -57.8490 N.pl3  17  ARG17      -0.0865
     22  CZ       -23.2960   43.8400  -58.9820 C.cat  17  ARG17       0.5346
     23  NH1      -22.0220   43.8920  -59.3580 N.pl3  17  ARG17       0.1354
     24  NH2      -24.1830   43.1980  -59.7350 N.pl3  17  ARG17       0.1354
     25  N        -24.9160   43.2850  -52.4530 N.am   18  SER18      -0.1936
     26  CA       -24.6450   41.9670  -51.8790 C.3    18  SER18       0.2055
     27  C        -24.4730   41.9020  -50.3520 C.2    18  SER18       0.2643
     28  O        -24.9000   40.9280  -49.7290 O.2    18  SER18      -0.2714
     29  CB       -23.4200   41.3470  -52.5550 C.3    18  SER18       0.2130
     30  OG       -22.2750   42.1610  -52.3700 O.3    18  SER18      -0.2179
     31  N        -23.8560   42.9240  -49.7530 N.am   19  PHE19      -0.1973
     32  CA       -23.6310   42.9540  -48.3000 C.3    19  PHE19       0.1639
     33  C        -24.7720   43.6020  -47.5130 C.2    19  PHE19       0.2290
     34  O        -24.8490   43.4380  -46.2970 O.2    19  PHE19      -0.2864
     35  CB       -22.3620   43.7410  -47.9510 C.3    19  PHE19       0.0560
     36  CG       -21.0710   43.0820  -48.3620 C.ar   19  PHE19      -0.0200
     37  CD1      -21.0250   42.1480  -49.3990 C.ar   19  PHE19      -0.0042
     38  CD2      -19.8720   43.4610  -47.7440 C.ar   19  PHE19      -0.0042
     39  CE1      -19.7980   41.6010  -49.8210 C.ar   19  PHE19      -0.0003
     40  CE2      -18.6430   42.9260  -48.1530 C.ar   19  PHE19      -0.0003
     41  CZ       -18.6060   41.9950  -49.1940 C.ar   19  PHE19      -0.0000
     42  N        -20.4540   51.8470  -43.5910 N.3    38  TYR38      -0.1241
     43  CA       -20.3520   51.4370  -44.9840 C.3    38  TYR38       0.1605
     44  C        -20.5720   52.6190  -45.9240 C.2    38  TYR38       0.2264
     45  O        -19.8310   52.7930  -46.8860 O.2    38  TYR38      -0.2867
     46  CB       -21.3590   50.3270  -45.2880 C.3    38  TYR38       0.0534
     47  CG       -21.2980   49.8540  -46.7180 C.ar   38  TYR38      -0.0201
     48  CD1      -21.9650   50.5460  -47.7350 C.ar   38  TYR38      -0.0009
     49  CD2      -20.5440   48.7320  -47.0670 C.ar   38  TYR38      -0.0009
     50  CE1      -21.8850   50.1360  -49.0680 C.ar   38  TYR38       0.0417
     51  CE2      -20.4520   48.3140  -48.3990 C.ar   38  TYR38       0.0417
     52  CZ       -21.1250   49.0210  -49.3880 C.ar   38  TYR38       0.1957
     53  OH       -21.0290   48.6140  -50.6940 O.3    38  TYR38      -0.2866
     54  N        -17.6410   54.9940  -45.9220 N.3    41  LEU41      -0.1231
     55  CA       -16.5240   54.3610  -46.6170 C.3    41  LEU41       0.1693
     56  C        -16.7640   54.4120  -48.1160 C.2    41  LEU41       0.2591
     57  O        -15.8310   54.5940  -48.8930 O.2    41  LEU41      -0.2718
     58  CB       -16.3610   52.8980  -46.1880 C.3    41  LEU41       0.0284
     59  CG       -15.7930   52.6220  -44.7920 C.3    41  LEU41       0.0019
     60  CD1      -15.7460   51.1230  -44.5500 C.3    41  LEU41       0.0001
     61  CD2      -14.4010   53.2320  -44.6800 C.3    41  LEU41       0.0001
     62  N        -18.0190   54.2310  -48.5140 N.am   42  ARG42      -0.1980
     63  CA       -18.4000   54.2520  -49.9200 C.3    42  ARG42       0.1597
     64  C        -18.1500   55.6500  -50.4610 C.2    42  ARG42       0.2287
     65  O        -17.7090   55.8200  -51.5930 O.2    42  ARG42      -0.2864
     66  CB       -19.8800   53.8780  -50.0540 C.3    42  ARG42       0.0334
     67  CG       -20.4980   53.9990  -51.4440 C.3    42  ARG42       0.0492
     68  CD       -19.9220   53.0050  -52.4340 C.3    42  ARG42       0.2205
     69  NE       -18.7830   53.5730  -53.1430 N.pl3  42  ARG42      -0.0865
     70  CZ       -18.0390   52.9130  -54.0230 C.cat  42  ARG42       0.5346
     71  NH1      -18.3110   51.6430  -54.3040 N.pl3  42  ARG42       0.1354
     72  NH2      -17.0370   53.5320  -54.6380 N.pl3  42  ARG42       0.1354
     73  N        -14.3880   56.1450  -50.7460 N.3    45  ASP45      -0.1239
     74  CA       -13.9230   55.3280  -51.8650 C.3    45  ASP45       0.1674
     75  C        -14.2270   55.9870  -53.2000 C.2    45  ASP45       0.2266
     76  O        -13.4240   55.9260  -54.1240 O.2    45  ASP45      -0.2867
     77  CB       -14.5980   53.9560  -51.8390 C.3    45  ASP45       0.1410
     78  CG       -13.8880   52.9750  -50.9370 C.2    45  ASP45       0.3668
     79  OD1      -13.2600   53.4090  -49.9510 O.co2  45  ASP45      -0.2456
     80  OD2      -13.9680   51.7620  -51.2120 O.co2  45  ASP45      -0.2456
     81  N        -20.4530   56.4780  -60.3720 N.3    82  LYS82      -0.1245
     82  CA       -21.7750   55.8690  -60.2590 C.3    82  LYS82       0.1561
     83  C        -22.4610   56.0120  -58.9000 C.2    82  LYS82       0.2260
     84  O        -23.6860   56.1070  -58.8410 O.2    82  LYS82      -0.2867
     85  CB       -21.6970   54.3880  -60.6410 C.3    82  LYS82       0.0271
     86  CG       -20.7460   53.5830  -59.7720 C.3    82  LYS82       0.0035
     87  CD       -20.7530   52.1110  -60.1570 C.3    82  LYS82       0.0206
     88  CE       -19.6750   51.3430  -59.3990 C.3    82  LYS82       0.1093
     89  NZ       -19.7910   51.5100  -57.9190 N.3    82  LYS82      -0.1314
     90  N         -7.0120   50.4850  -47.6700 N.3   140  VAL140     -0.1231
     91  CA        -8.3510   50.4960  -48.2300 C.3   140  VAL140      0.1692
     92  C         -9.2390   49.3470  -47.7720 C.2   140  VAL140      0.2591
     93  O        -10.4500   49.3900  -47.9660 O.2   140  VAL140     -0.2718
     94  CB        -8.3050   50.4990  -49.7740 C.3   140  VAL140      0.0266
     95  CG1       -7.6030   51.7400  -50.2500 C.3   140  VAL140      0.0020
     96  CG2       -7.5940   49.2640  -50.2830 C.3   140  VAL140      0.0020
     97  N         -8.6480   48.3280  -47.1550 N.am  141  ALA141     -0.1980
     98  CA        -9.4250   47.1770  -46.6980 C.3   141  ALA141      0.1597
     99  C         -9.0760   46.7110  -45.2750 C.2   141  ALA141      0.2287
    100  O         -9.9640   46.4510  -44.4680 O.2   141  ALA141     -0.2864
    101  CB        -9.2610   46.0250  -47.6900 C.3   141  ALA141      0.0319
    102  N        -10.6260   48.6740  -42.5580 N.3   144  VAL144     -0.1231
    103  CA       -12.0570   48.4290  -42.4770 C.3   144  VAL144      0.1692
    104  C        -12.3040   47.2260  -41.5620 C.2   144  VAL144      0.2592
    105  O        -13.1840   47.2610  -40.6950 O.2   144  VAL144     -0.2718
    106  CB       -12.6430   48.1560  -43.8700 C.3   144  VAL144      0.0266
    107  CG1      -14.1200   47.7890  -43.7510 C.3   144  VAL144      0.0020
    108  CG2      -12.4680   49.4060  -44.7530 C.3   144  VAL144      0.0020
    109  N        -11.5190   46.1660  -41.7530 N.am  145  GLY145     -0.1957
    110  CA       -11.6640   44.9850  -40.9170 C.3   145  GLY145      0.1869
    111  C        -11.3880   45.3450  -39.4640 C.2   145  GLY145      0.2309
    112  O        -12.0650   44.8690  -38.5600 O.2   145  GLY145     -0.2863
    113  N        -14.3710   47.5740  -38.1600 N.3   148  LEU148     -0.1245
    114  CA       -15.4940   46.7000  -37.8600 C.3   148  LEU148      0.1561
    115  C        -15.2870   45.9380  -36.5410 C.2   148  LEU148      0.2260
    116  O        -16.1700   45.9250  -35.6810 O.2   148  LEU148     -0.2867
    117  CB       -15.7040   45.7100  -39.0080 C.3   148  LEU148      0.0270
    118  CG       -16.2300   46.3470  -40.2990 C.3   148  LEU148      0.0019
    119  CD1      -16.2060   45.3290  -41.4230 C.3   148  LEU148      0.0001
    120  CD2      -17.6520   46.8800  -40.0710 C.3   148  LEU148      0.0001
    121  N        -17.5980   45.8210  -33.2680 N.3   152  PHE152     -0.1241
    122  CA       -18.2220   44.6400  -32.6620 C.3   152  PHE152      0.1605
    123  C        -17.9720   44.6480  -31.1520 C.2   152  PHE152      0.2264
    124  O        -18.8810   44.4150  -30.3500 O.2   152  PHE152     -0.2867
    125  CB       -17.6550   43.3280  -33.2380 C.3   152  PHE152      0.0534
    126  CG       -17.8110   43.1780  -34.7290 C.ar  152  PHE152     -0.0203
    127  CD1      -18.9280   43.6880  -35.3910 C.ar  152  PHE152     -0.0042
    128  CD2      -16.8440   42.5180  -35.4670 C.ar  152  PHE152     -0.0042
    129  CE1      -19.0780   43.5420  -36.7760 C.ar  152  PHE152     -0.0003
    130  CE2      -16.9800   42.3610  -36.8630 C.ar  152  PHE152     -0.0003
    131  CZ       -18.1000   42.8750  -37.5140 C.ar  152  PHE152     -0.0000
    132  N         -8.1150   39.9430  -42.5130 N.3   172  MET172     -0.1230
    133  CA        -9.4400   39.7180  -43.0730 C.3   172  MET172      0.1702
    134  C         -9.6560   40.6450  -44.2610 C.2   172  MET172      0.2592
    135  O        -10.2080   40.2380  -45.2850 O.2   172  MET172     -0.2718
    136  CB       -10.5130   39.9850  -42.0190 C.3   172  MET172      0.0401
    137  CG       -10.5980   38.9310  -40.9170 C.3   172  MET172      0.0596
    138  SD       -11.4930   37.4140  -41.3900 S.3   172  MET172     -0.1393
    139  CE       -13.2060   38.0540  -41.4310 C.3   172  MET172      0.0692
    140  N         -9.2190   41.8940  -44.1100 N.am  173  GLY173     -0.1957
    141  CA        -9.3740   42.8760  -45.1700 C.3   173  GLY173      0.1869
    142  C         -8.4180   42.6680  -46.3320 C.2   173  GLY173      0.2309
    143  O         -8.8000   42.8050  -47.4940 O.2   173  GLY173     -0.2863
    144  N         -9.7270   39.9240  -48.7330 N.3   176  LEU176     -0.1231
    145  CA       -10.8220   40.3170  -49.6080 C.3   176  LEU176      0.1693
    146  C        -10.3060   41.2530  -50.6990 C.2   176  LEU176      0.2591
    147  O        -10.6200   41.0780  -51.8730 O.2   176  LEU176     -0.2718
    148  CB       -11.9370   41.0160  -48.8250 C.3   176  LEU176      0.0284
    149  CG       -12.6800   40.2190  -47.7450 C.3   176  LEU176      0.0019
    150  CD1      -13.8080   41.0870  -47.1820 C.3   176  LEU176      0.0001
    151  CD2      -13.2380   38.9220  -48.3220 C.3   176  LEU176      0.0001
    152  N         -9.4950   42.2310  -50.3140 N.am  177  GLN177     -0.1979
    153  CA        -8.9700   43.1840  -51.2890 C.3   177  GLN177      0.1601
    154  C         -8.1170   42.5330  -52.3760 C.2   177  GLN177      0.2287
    155  O         -8.3160   42.7830  -53.5670 O.2   177  GLN177     -0.2864
    156  CB        -8.1510   44.2660  -50.5940 C.3   177  GLN177      0.0394
    157  CG        -7.9530   45.4820  -51.4610 C.3   177  GLN177      0.0908
    158  CD        -9.2750   46.0850  -51.8740 C.2   177  GLN177      0.2608
    159  OE1      -10.1880   46.1850  -51.0700 O.2   177  GLN177     -0.2717
    160  NE2       -9.3810   46.4950  -53.1280 N.am  177  GLN177     -0.0878
    161  N        -10.2520   40.6700  -54.8060 N.3   180  ASN180     -0.1240
    162  CA       -10.9370   41.5840  -55.7140 C.3   180  ASN180      0.1653
    163  C        -10.0030   42.1830  -56.7550 C.2   180  ASN180      0.2266
    164  O        -10.3620   42.2750  -57.9260 O.2   180  ASN180     -0.2867
    165  CB       -11.6180   42.7200  -54.9410 C.3   180  ASN180      0.1155
    166  CG       -12.7390   42.2290  -54.0440 C.2   180  ASN180      0.2627
    167  OD1      -13.4430   41.2790  -54.3750 O.2   180  ASN180     -0.2716
    168  ND2      -12.9200   42.8910  -52.9120 N.am  180  ASN180     -0.0877
    169  N         -9.1650   39.3670  -59.2840 N.3   183  ARG183     -0.1245
    170  CA       -10.2980   39.1070  -60.1540 C.3   183  ARG183      0.1563
    171  C        -10.6020   40.2520  -61.1200 C.2   183  ARG183      0.2260
    172  O        -10.9280   40.0190  -62.2820 O.2   183  ARG183     -0.2867
    173  CB       -11.5380   38.8240  -59.3050 C.3   183  ARG183      0.0307
    174  CG       -12.7620   38.4070  -60.1020 C.3   183  ARG183      0.0489
    175  CD       -14.0070   38.5790  -59.2650 C.3   183  ARG183      0.2205
    176  NE       -14.0860   39.9410  -58.7500 N.pl3 183  ARG183     -0.0865
    177  CZ       -14.9300   40.3350  -57.8040 C.cat 183  ARG183      0.5346
    178  NH1      -15.7760   39.4660  -57.2650 N.pl3 183  ARG183      0.1354
    179  NH2      -14.9230   41.5950  -57.3880 N.pl3 183  ARG183      0.1354
    180  N         -9.4990   34.3630  -36.8920 N.3   241  TYR241     -0.1241
    181  CA       -10.3550   35.4950  -36.5650 C.3   241  TYR241      0.1605
    182  C        -11.7930   35.0260  -36.4300 C.2   241  TYR241      0.2264
    183  O        -12.4520   35.3260  -35.4370 O.2   241  TYR241     -0.2867
    184  CB       -10.2600   36.5850  -37.6440 C.3   241  TYR241      0.0534
    185  CG       -11.1790   37.7600  -37.3910 C.ar  241  TYR241     -0.0201
    186  CD1      -12.5390   37.6940  -37.7230 C.ar  241  TYR241     -0.0009
    187  CD2      -10.6980   38.9360  -36.7970 C.ar  241  TYR241     -0.0009
    188  CE1      -13.3980   38.7600  -37.4730 C.ar  241  TYR241      0.0417
    189  CE2      -11.5530   40.0160  -36.5410 C.ar  241  TYR241      0.0417
    190  CZ       -12.8990   39.9180  -36.8830 C.ar  241  TYR241      0.1957
    191  OH       -13.7440   40.9760  -36.6530 O.3   241  TYR241     -0.2866
    192  N        -22.0200   37.8530  -40.9510 N.3   253  PHE253     -0.1227
    193  CA       -21.5260   39.0440  -41.6230 C.3   253  PHE253      0.1736
    194  C        -20.0540   38.9260  -42.0200 C.2   253  PHE253      0.2595
    195  O        -19.6640   39.3190  -43.1290 O.2   253  PHE253     -0.2718
    196  CB       -21.7280   40.2610  -40.7140 C.3   253  PHE253      0.0547
    197  CG       -21.0120   41.4860  -41.1840 C.ar  253  PHE253     -0.0202
    198  CD1      -21.5500   42.2780  -42.1890 C.ar  253  PHE253     -0.0042
    199  CD2      -19.7770   41.8330  -40.6420 C.ar  253  PHE253     -0.0042
    200  CE1      -20.8700   43.4020  -42.6520 C.ar  253  PHE253     -0.0003
    201  CE2      -19.0880   42.9600  -41.0990 C.ar  253  PHE253     -0.0003
    202  CZ       -19.6400   43.7450  -42.1080 C.ar  253  PHE253     -0.0000
    203  N        -19.2480   38.3730  -41.1170 N.am  254  CYS254     -0.1970
    204  CA       -17.8100   38.1920  -41.3400 C.3   254  CYS254      0.1712
    205  C        -17.3860   36.9740  -42.1780 C.2   254  CYS254      0.2296
    206  O        -16.4430   37.0610  -42.9610 O.2   254  CYS254     -0.2864
    207  CB       -17.0870   38.1100  -39.9840 C.3   254  CYS254      0.0983
    208  SG       -17.0500   39.6510  -39.0310 S.3   254  CYS254     -0.0798
    209  N        -18.4810   36.8720  -46.6600 N.3   257  PRO257     -0.2102
    210  CA       -17.6020   37.5220  -47.6400 C.3   257  PRO257      0.1504
    211  C        -16.3040   36.7420  -47.8440 C.2   257  PRO257      0.2575
    212  O        -15.7690   36.6940  -48.9550 O.2   257  PRO257     -0.2718
    213  CB       -17.3490   38.8970  -47.0200 C.3   257  PRO257      0.0282
    214  CG       -18.6400   39.1900  -46.3350 C.3   257  PRO257      0.0208
    215  CD       -18.9390   37.8420  -45.6490 C.3   257  PRO257      0.0893
    216  N        -15.7950   36.1390  -46.7710 N.am  258  GLN258     -0.1980
    217  CA       -14.5410   35.3710  -46.8350 C.3   258  GLN258      0.1601
    218  C        -14.6920   34.1050  -47.6890 C.2   258  GLN258      0.2287
    219  O        -13.8440   33.8140  -48.5350 O.2   258  GLN258     -0.2864
    220  CB       -14.0690   34.9830  -45.4220 C.3   258  GLN258      0.0394
    221  CG       -13.7490   36.1520  -44.4800 C.3   258  GLN258      0.0908
    222  CD       -12.6230   37.0390  -45.0080 C.2   258  GLN258      0.2608
    223  OE1      -11.6470   36.5500  -45.5990 O.2   258  GLN258     -0.2717
    224  NE2      -12.7490   38.3420  -44.7910 N.am  258  GLN258     -0.0878
@<TRIPOS>BOND
     1   172   171    2
     2   171   170    1
     3    85    82    1
     4    85    86    1
     5    81    82    1
     6    82    83    1
     7    87    86    1
     8    87    88    1
     9   170   173    1
    10   170   169    1
    11   174   173    1
    12   174   175    1
    13    24    22    1
    14    88    89    1
    15    23    22    1
    16   175   176    1
    17    22    21    2
    18    83    84    2
    19   176   177    2
    20   164   163    2
    21    21    20    1
    22   177   179    1
    23   177   178    1
    24    20    19    1
    25   163   162    1
    26    19    18    1
    27   162   165    1
    28   162   161    1
    29    18    15    1
    30   165   166    1
    31    72    70    1
    32   167   166    2
    33    71    70    1
    34    76    75    2
    35   166   168   am
    36    70    69    2
    37    15    14    1
    38    15    16    1
    39   155   154    2
    40     2     1    1
    41     2     3    1
    42     2     5    1
    43    14    10   am
    44     4     3    2
    45    17    16    2
    46    75    74    1
    47    69    68    1
    48   160   158   am
    49    16    25   am
    50     7     5    1
    51     3     8   am
    52     5     6    1
    53    29    30    1
    54    29    26    1
    55    25    26    1
    56    68    67    1
    57   154   153    1
    58     8     9    1
    59    10     9    1
    60    10    11    2
    61    26    27    1
    62   158   157    1
    63   158   159    2
    64   147   146    2
    65    74    77    1
    66    74    73    1
    67    77    78    1
    68     9    12    1
    69    65    64    2
    70   157   156    1
    71    67    66    1
    72   153   156    1
    73   153   152    1
    74    80    78   ar
    75    78    79   ar
    76   146   152   am
    77   146   145    1
    78    53    52    1
    79    64    63    1
    80    27    31   am
    81    27    28    2
    82    96    94    1
    83    12    13    1
    84    95    94    1
    85    66    63    1
    86    63    62    1
    87    39    37   ar
    88    39    41   ar
    89    94    91    1
    90    31    32    1
    91   145   148    1
    92   145   144    1
    93    37    36   ar
    94    52    50   ar
    95    52    51   ar
    96    41    40   ar
    97    50    48   ar
    98   212   211    2
    99    57    56    2
   100   148   149    1
   101   219   218    2
   102    62    56   am
   103    51    49   ar
   104    36    35    1
   105    36    38   ar
   106   151   149    1
   107    32    35    1
   108    32    33    1
   109    91    92    1
   110    91    90    1
   111    40    38   ar
   112    56    55    1
   113    93    92    2
   114   211   210    1
   115   211   216   am
   116    92    97   am
   117   149   150    1
   118    48    47   ar
   119   101    98    1
   120   218   217    1
   121   210   213    1
   122   210   209    1
   123    33    34    2
   124   143   142    2
   125    97    98    1
   126    49    47   ar
   127   213   214    1
   128    45    44    2
   129   217   216    1
   130   217   220    1
   131    47    46    1
   132    98    99    1
   133   209   215    1
   134    55    58    1
   135    55    54    1
   136   214   215    1
   137   142   141    1
   138    58    59    1
   139    44    43    1
   140   223   222    2
   141   220   221    1
   142    46    43    1
   143   135   134    2
   144    99   100    2
   145   141   140    1
   146   222   224   am
   147   222   221    1
   148    43    42    1
   149    59    61    1
   150    59    60    1
   151   108   106    1
   152   134   140   am
   153   134   133    1
   154   106   107    1
   155   106   103    1
   156   195   194    2
   157   133   132    1
   158   133   136    1
   159   206   205    2
   160   200   198   ar
   161   200   202   ar
   162   102   103    1
   163   103   104    1
   164   198   197   ar
   165   205   204    1
   166   202   201   ar
   167   194   193    1
   168   194   203   am
   169   136   137    1
   170   109   104   am
   171   109   110    1
   172   193   192    1
   173   193   196    1
   174   104   105    2
   175   139   138    1
   176   119   118    1
   177   138   137    1
   178   204   203    1
   179   204   207    1
   180   197   196    1
   181   197   199   ar
   182   201   199   ar
   183   110   111    1
   184   118   120    1
   185   118   117    1
   186   207   208    1
   187   111   112    2
   188   117   114    1
   189   113   114    1
   190   114   115    1
   191   186   188   ar
   192   186   185   ar
   193   184   185    1
   194   184   181    1
   195   131   130   ar
   196   131   129   ar
   197   188   190   ar
   198   185   187   ar
   199   180   181    1
   200   190   191    1
   201   190   189   ar
   202   130   128   ar
   203   187   189   ar
   204   129   127   ar
   205   181   182    1
   206   115   116    2
   207   182   183    2
   208   128   126   ar
   209   127   126   ar
   210   126   125    1
   211   121   122    1
   212   125   122    1
   213   122   123    1
   214   123   124    2
