@<TRIPOS>MOLECULE
tmp/3wcjD00.pdb
 197 187 0 0 0
SMALL
GASTEIGER

@<TRIPOS>ATOM
      1  N         -0.4360  -51.5090  -39.5080 N.3    19  PHE19      -0.1241
      2  CA         0.0130  -51.6300  -38.1250 C.3    19  PHE19       0.1605
      3  C          0.5840  -52.9730  -37.7010 C.2    19  PHE19       0.2264
      4  O          1.3000  -53.0410  -36.7030 O.2    19  PHE19      -0.2867
      5  CB        -1.1100  -51.2650  -37.1560 C.3    19  PHE19       0.0534
      6  CG        -1.4410  -49.8110  -37.1360 C.ar   19  PHE19      -0.0203
      7  CD1       -2.4660  -49.3070  -37.9280 C.ar   19  PHE19      -0.0042
      8  CD2       -0.7260  -48.9370  -36.3240 C.ar   19  PHE19      -0.0042
      9  CE1       -2.7790  -47.9490  -37.9090 C.ar   19  PHE19      -0.0003
     10  CE2       -1.0300  -47.5750  -36.2990 C.ar   19  PHE19      -0.0003
     11  CZ        -2.0560  -47.0810  -37.0880 C.ar   19  PHE19      -0.0000
     12  N          3.4950  -53.3170  -34.7440 N.3    23  ILE23      -0.1245
     13  CA         2.9540  -53.9280  -33.5460 C.3    23  ILE23       0.1561
     14  C          3.8000  -55.1320  -33.1540 C.2    23  ILE23       0.2260
     15  O          4.2400  -55.2390  -32.0130 O.2    23  ILE23      -0.2867
     16  CB         1.5020  -54.3860  -33.7520 C.3    23  ILE23       0.0252
     17  CG1        0.5760  -53.1620  -33.7730 C.3    23  ILE23       0.0019
     18  CG2        1.1000  -55.3570  -32.6530 C.3    23  ILE23       0.0019
     19  CD1       -0.8730  -53.5030  -33.9740 C.3    23  ILE23       0.0001
     20  N         -0.7650  -54.9950  -27.2310 N.3    34  VAL34      -0.1245
     21  CA        -1.1890  -54.1440  -28.3390 C.3    34  VAL34       0.1561
     22  C         -1.8190  -54.9600  -29.4880 C.2    34  VAL34       0.2260
     23  O         -2.7530  -54.5000  -30.1540 O.2    34  VAL34      -0.2867
     24  CB        -0.0010  -53.3070  -28.8630 C.3    34  VAL34       0.0252
     25  CG1       -0.4430  -52.4400  -30.0250 C.3    34  VAL34       0.0019
     26  CG2        0.5590  -52.4350  -27.7250 C.3    34  VAL34       0.0019
     27  N         -5.3110  -55.6680  -28.2540 N.3    37  PHE37      -0.1227
     28  CA        -6.0590  -54.4160  -28.1700 C.3    37  PHE37       0.1736
     29  C         -6.5710  -54.0980  -29.5800 C.2    37  PHE37       0.2595
     30  O         -7.7380  -53.7410  -29.7590 O.2    37  PHE37      -0.2718
     31  CB        -5.1330  -53.3080  -27.6350 C.3    37  PHE37       0.0547
     32  CG        -5.8160  -51.9790  -27.3780 C.ar   37  PHE37      -0.0202
     33  CD1       -7.1700  -51.9050  -27.0840 C.ar   37  PHE37      -0.0042
     34  CD2       -5.0730  -50.7990  -27.3880 C.ar   37  PHE37      -0.0042
     35  CE1       -7.7740  -50.6750  -26.8030 C.ar   37  PHE37      -0.0003
     36  CE2       -5.6680  -49.5660  -27.1070 C.ar   37  PHE37      -0.0003
     37  CZ        -7.0240  -49.5090  -26.8130 C.ar   37  PHE37      -0.0000
     38  N         -5.7040  -54.2570  -30.5800 N.am   38  TYR38      -0.1976
     39  CA        -6.0830  -53.9960  -31.9730 C.3    38  TYR38       0.1639
     40  C         -7.2060  -54.9250  -32.4340 C.2    38  TYR38       0.2290
     41  O         -8.1890  -54.4840  -33.0270 O.2    38  TYR38      -0.2864
     42  CB        -4.8740  -54.1610  -32.9010 C.3    38  TYR38       0.0560
     43  CG        -5.1940  -53.8920  -34.3580 C.ar   38  TYR38      -0.0198
     44  CD1       -5.8010  -54.8650  -35.1520 C.ar   38  TYR38      -0.0009
     45  CD2       -4.9650  -52.6420  -34.9190 C.ar   38  TYR38      -0.0009
     46  CE1       -6.1800  -54.5980  -36.4580 C.ar   38  TYR38       0.0417
     47  CE2       -5.3370  -52.3630  -36.2290 C.ar   38  TYR38       0.0417
     48  CZ        -5.9480  -53.3450  -36.9920 C.ar   38  TYR38       0.1957
     49  OH        -6.3460  -53.0670  -38.2820 O.3    38  TYR38      -0.2866
     50  N        -10.6350  -54.1140  -30.8330 N.3    41  LEU41      -0.1231
     51  CA       -11.1710  -52.8910  -31.4290 C.3    41  LEU41       0.1693
     52  C        -11.6150  -53.1880  -32.8540 C.2    41  LEU41       0.2591
     53  O        -12.6010  -52.6360  -33.3460 O.2    41  LEU41      -0.2718
     54  CB       -10.1190  -51.7730  -31.4430 C.3    41  LEU41       0.0284
     55  CG        -9.7670  -51.1780  -30.0730 C.3    41  LEU41       0.0019
     56  CD1       -8.7720  -50.0460  -30.2310 C.3    41  LEU41       0.0001
     57  CD2      -11.0260  -50.6620  -29.4130 C.3    41  LEU41       0.0001
     58  N        -10.8680  -54.0710  -33.5050 N.am   42  ARG42      -0.1980
     59  CA       -11.1450  -54.4880  -34.8680 C.3    42  ARG42       0.1597
     60  C        -12.5100  -55.1750  -34.9130 C.2    42  ARG42       0.2287
     61  O        -13.3000  -54.9630  -35.8360 O.2    42  ARG42      -0.2864
     62  CB       -10.0700  -55.4740  -35.3200 C.3    42  ARG42       0.0334
     63  CG        -9.6850  -55.3880  -36.7820 C.3    42  ARG42       0.0492
     64  CD       -10.8630  -55.5700  -37.7030 C.3    42  ARG42       0.2205
     65  NE       -11.2330  -54.3170  -38.3500 N.pl3  42  ARG42      -0.0865
     66  CZ       -10.3890  -53.5470  -39.0300 C.cat  42  ARG42       0.5346
     67  NH1       -9.1140  -53.8970  -39.1540 N.pl3  42  ARG42       0.1354
     68  NH2      -10.8210  -52.4240  -39.5940 N.pl3  42  ARG42       0.1354
     69  N        -15.3140  -52.5600  -34.3090 N.3    45  ASP45      -0.1239
     70  CA       -15.5540  -51.7740  -35.5050 C.3    45  ASP45       0.1674
     71  C        -16.3480  -52.5570  -36.5430 C.2    45  ASP45       0.2266
     72  O        -17.1880  -51.9890  -37.2370 O.2    45  ASP45      -0.2867
     73  CB       -14.2360  -51.3160  -36.1260 C.3    45  ASP45       0.1410
     74  CG       -14.4320  -50.1990  -37.1290 C.2    45  ASP45       0.3668
     75  OD1      -13.6360  -50.1010  -38.0770 O.co2  45  ASP45      -0.2456
     76  OD2      -15.3830  -49.4040  -36.9660 O.co2  45  ASP45      -0.2456
     77  N        -15.6210  -46.6380  -25.7280 N.3   115  MET115     -0.1245
     78  CA       -15.7190  -46.5020  -27.1780 C.3   115  MET115      0.1570
     79  C        -17.0850  -46.9990  -27.6680 C.2   115  MET115      0.2261
     80  O        -17.6930  -46.4040  -28.5590 O.2   115  MET115     -0.2867
     81  CB       -14.6050  -47.3040  -27.8490 C.3   115  MET115      0.0387
     82  CG       -14.4840  -47.1050  -29.3540 C.3   115  MET115      0.0595
     83  SD       -12.8820  -47.7140  -29.9860 S.3   115  MET115     -0.1393
     84  CE       -11.7820  -47.2690  -28.5900 C.3   115  MET115      0.0692
     85  N        -19.7380  -44.9620  -29.8810 N.3   119  MET119     -0.1245
     86  CA       -20.0870  -45.4470  -31.2130 C.3   119  MET119      0.1570
     87  C        -21.5910  -45.5440  -31.3680 C.2   119  MET119      0.2261
     88  O        -22.1460  -45.1860  -32.4120 O.2   119  MET119     -0.2867
     89  CB       -19.4690  -46.8170  -31.4750 C.3   119  MET119      0.0387
     90  CG       -17.9790  -46.7970  -31.7430 C.3   119  MET119      0.0595
     91  SD       -17.3970  -48.4480  -32.1390 S.3   119  MET119     -0.1393
     92  CE       -15.6720  -48.0970  -32.5640 C.3   119  MET119      0.0692
     93  N        -13.6220  -42.9480  -31.2940 N.3   140  VAL140     -0.1231
     94  CA       -13.0860  -44.0510  -32.0850 C.3   140  VAL140      0.1692
     95  C        -11.5790  -44.0430  -32.2980 C.2   140  VAL140      0.2591
     96  O        -11.0250  -44.9980  -32.8450 O.2   140  VAL140     -0.2718
     97  CB       -13.7660  -44.1210  -33.4800 C.3   140  VAL140      0.0266
     98  CG1      -15.2760  -44.2490  -33.3190 C.3   140  VAL140      0.0020
     99  CG2      -13.4120  -42.8780  -34.3020 C.3   140  VAL140      0.0020
    100  N        -10.9070  -42.9830  -31.8690 N.am  141  ALA141     -0.1980
    101  CA        -9.4640  -42.9070  -32.0650 C.3   141  ALA141      0.1597
    102  C         -8.7010  -42.2540  -30.9120 C.2   141  ALA141      0.2287
    103  O         -7.6460  -42.7460  -30.5060 O.2   141  ALA141     -0.2864
    104  CB        -9.1610  -42.1750  -33.3720 C.3   141  ALA141      0.0319
    105  N         -8.2060  -44.4630  -28.2070 N.3   144  VAL144     -0.1231
    106  CA        -7.2380  -45.4980  -28.5490 C.3   144  VAL144      0.1692
    107  C         -5.8290  -44.9980  -28.2440 C.2   144  VAL144      0.2592
    108  O         -4.9830  -45.7530  -27.7550 O.2   144  VAL144     -0.2718
    109  CB        -7.3230  -45.8960  -30.0400 C.3   144  VAL144      0.0266
    110  CG1       -6.2770  -46.9620  -30.3460 C.3   144  VAL144      0.0020
    111  CG2       -8.7190  -46.4370  -30.3540 C.3   144  VAL144      0.0020
    112  N         -5.5830  -43.7240  -28.5330 N.am  145  GLY145     -0.1957
    113  CA        -4.2770  -43.1500  -28.2560 C.3   145  GLY145      0.1869
    114  C         -4.0510  -43.1650  -26.7580 C.2   145  GLY145      0.2309
    115  O         -2.9620  -43.4740  -26.2850 O.2   145  GLY145     -0.2863
    116  N         -3.4650  -46.8900  -25.5770 N.3   148  LEU148     -0.1245
    117  CA        -2.1030  -47.3130  -25.9040 C.3   148  LEU148      0.1561
    118  C         -1.1080  -46.6640  -24.9500 C.2   148  LEU148      0.2260
    119  O         -0.2010  -47.3250  -24.4350 O.2   148  LEU148     -0.2867
    120  CB        -1.7570  -46.9390  -27.3530 C.3   148  LEU148      0.0270
    121  CG        -2.4760  -47.7510  -28.4400 C.3   148  LEU148      0.0019
    122  CD1       -2.4090  -47.0220  -29.7730 C.3   148  LEU148      0.0001
    123  CD2       -1.8370  -49.1240  -28.5440 C.3   148  LEU148      0.0001
    124  N         -3.0550  -37.5410  -30.5570 N.3   172  MET172     -0.1230
    125  CA        -2.4360  -38.5150  -31.4530 C.3   172  MET172      0.1702
    126  C         -3.5280  -39.2180  -32.2520 C.2   172  MET172      0.2592
    127  O         -3.4120  -39.3890  -33.4670 O.2   172  MET172     -0.2718
    128  CB        -1.6320  -39.5580  -30.6700 C.3   172  MET172      0.0401
    129  CG        -0.3610  -39.0250  -30.0130 C.3   172  MET172      0.0596
    130  SD         0.9190  -38.5480  -31.1800 S.3   172  MET172     -0.1393
    131  CE         1.7000  -40.1540  -31.4700 C.3   172  MET172      0.0692
    132  N         -4.5920  -39.6150  -31.5570 N.am  173  GLY173     -0.1957
    133  CA        -5.6960  -40.2970  -32.2060 C.3   173  GLY173      0.1869
    134  C         -6.4840  -39.4060  -33.1490 C.2   173  GLY173      0.2309
    135  O         -6.7500  -39.7830  -34.2920 O.2   173  GLY173     -0.2863
    136  N         -4.8420  -38.8420  -36.5870 N.3   176  LEU176     -0.1231
    137  CA        -4.8930  -39.9620  -37.5180 C.3   176  LEU176      0.1693
    138  C         -6.2960  -40.1150  -38.1030 C.2   176  LEU176      0.2591
    139  O         -6.4590  -40.2200  -39.3180 O.2   176  LEU176     -0.2718
    140  CB        -4.4790  -41.2620  -36.8200 C.3   176  LEU176      0.0284
    141  CG        -3.0530  -41.3180  -36.2590 C.3   176  LEU176      0.0019
    142  CD1       -2.8130  -42.6700  -35.6030 C.3   176  LEU176      0.0001
    143  CD2       -2.0490  -41.0840  -37.3760 C.3   176  LEU176      0.0001
    144  N         -7.3010  -40.1110  -37.2310 N.am  177  GLN177     -0.1979
    145  CA        -8.6930  -40.2600  -37.6410 C.3   177  GLN177      0.1601
    146  C         -9.1460  -39.1350  -38.5630 C.2   177  GLN177      0.2287
    147  O         -9.7990  -39.3840  -39.5730 O.2   177  GLN177     -0.2864
    148  CB        -9.6090  -40.3020  -36.4190 C.3   177  GLN177      0.0394
    149  CG       -10.9970  -40.8380  -36.7140 C.3   177  GLN177      0.0908
    150  CD       -10.9550  -42.2070  -37.3750 C.2   177  GLN177      0.2608
    151  OE1      -10.2090  -43.0960  -36.9520 O.2   177  GLN177     -0.2717
    152  NE2      -11.7620  -42.3860  -38.4150 N.am  177  GLN177     -0.0878
    153  N          4.0520  -35.2440  -27.7070 N.3   241  TYR241     -0.1241
    154  CA         3.8870  -36.6400  -27.3190 C.3   241  TYR241      0.1605
    155  C          5.0670  -37.5100  -27.7470 C.2   241  TYR241      0.2264
    156  O          5.6180  -38.2540  -26.9330 O.2   241  TYR241     -0.2867
    157  CB         2.5830  -37.1990  -27.9050 C.3   241  TYR241      0.0534
    158  CG         2.3060  -38.6440  -27.5460 C.ar  241  TYR241     -0.0201
    159  CD1        3.0080  -39.6840  -28.1580 C.ar  241  TYR241     -0.0009
    160  CD2        1.3560  -38.9720  -26.5840 C.ar  241  TYR241     -0.0009
    161  CE1        2.7710  -41.0130  -27.8230 C.ar  241  TYR241      0.0417
    162  CE2        1.1070  -40.3050  -26.2390 C.ar  241  TYR241      0.0417
    163  CZ         1.8160  -41.3180  -26.8650 C.ar  241  TYR241      0.1957
    164  OH         1.5500  -42.6350  -26.5670 O.3   241  TYR241     -0.2866
    165  N          6.5240  -47.4230  -33.5470 N.3   253  PHE253     -0.1227
    166  CA         5.0980  -47.6890  -33.6130 C.3   253  PHE253      0.1736
    167  C          4.2630  -46.4060  -33.6160 C.2   253  PHE253      0.2595
    168  O          3.2680  -46.3060  -34.3300 O.2   253  PHE253     -0.2718
    169  CB         4.6900  -48.5720  -32.4270 C.3   253  PHE253      0.0547
    170  CG         3.1980  -48.6830  -32.2360 C.ar  253  PHE253     -0.0202
    171  CD1        2.4730  -49.6890  -32.8640 C.ar  253  PHE253     -0.0042
    172  CD2        2.5130  -47.7470  -31.4610 C.ar  253  PHE253     -0.0042
    173  CE1        1.0890  -49.7590  -32.7250 C.ar  253  PHE253     -0.0003
    174  CE2        1.1290  -47.8080  -31.3200 C.ar  253  PHE253     -0.0003
    175  CZ         0.4170  -48.8140  -31.9520 C.ar  253  PHE253     -0.0000
    176  N          4.6660  -45.4310  -32.8120 N.am  254  CYS254     -0.1970
    177  CA         3.9340  -44.1740  -32.7160 C.3   254  CYS254      0.1712
    178  C          4.2480  -43.1700  -33.8170 C.2   254  CYS254      0.2296
    179  O          3.3370  -42.6100  -34.4250 O.2   254  CYS254     -0.2864
    180  CB         4.2030  -43.5000  -31.3680 C.3   254  CYS254      0.0983
    181  SG         3.5370  -44.3360  -29.9090 S.3   254  CYS254     -0.0798
    182  N          3.3600  -44.0700  -38.1290 N.3   257  PRO257     -0.2102
    183  CA         1.9940  -43.8540  -38.6150 C.3   257  PRO257      0.1504
    184  C          1.6120  -42.3730  -38.6220 C.2   257  PRO257      0.2575
    185  O          0.8370  -41.9250  -39.4670 O.2   257  PRO257     -0.2718
    186  CB         1.1510  -44.6730  -37.6410 C.3   257  PRO257      0.0282
    187  CG         2.0950  -45.7910  -37.2470 C.3   257  PRO257      0.0208
    188  CD         3.3710  -45.0280  -37.0090 C.3   257  PRO257      0.0893
    189  N          2.1580  -41.6150  -37.6750 N.am  258  GLN258     -0.1980
    190  CA         1.8770  -40.1870  -37.5940 C.3   258  GLN258      0.1601
    191  C          2.5240  -39.4580  -38.7660 C.2   258  GLN258      0.2287
    192  O          1.9260  -38.5610  -39.3570 O.2   258  GLN258     -0.2864
    193  CB         2.4210  -39.6050  -36.2880 C.3   258  GLN258      0.0394
    194  CG         1.6670  -40.0140  -35.0350 C.3   258  GLN258      0.0908
    195  CD         0.2600  -39.4730  -35.0140 C.2   258  GLN258      0.2608
    196  OE1        0.0000  -38.3890  -35.5280 O.2   258  GLN258     -0.2717
    197  NE2       -0.6530  -40.2180  -34.4100 N.am  258  GLN258     -0.0878
@<TRIPOS>BOND
     1    68    66    1
     2   147   146    2
     3     1     2    1
     4   185   184    2
     5   192   191    2
     6   139   138    2
     7    67    66    1
     8    66    65    2
     9   191   190    1
    10   184   183    1
    11   184   189   am
    12   183   182    1
    13   183   186    1
    14   146   145    1
    15   152   150   am
    16    65    64    1
    17    49    48    1
    18   182   188    1
    19     2     3    1
    20     2     5    1
    21   138   137    1
    22   138   144   am
    23    75    74   ar
    24     7     9   ar
    25     7     6   ar
    26     9    11   ar
    27    64    63    1
    28     3     4    2
    29   189   190    1
    30   186   187    1
    31   145   144    1
    32   145   148    1
    33   190   193    1
    34   137   140    1
    35   137   136    1
    36   143   141    1
    37   150   151    2
    38   150   149    1
    39   187   188    1
    40    72    71    2
    41     5     6    1
    42     6     8   ar
    43    74    76   ar
    44    74    73    1
    45    11    10   ar
    46    48    46   ar
    47    48    47   ar
    48   140   141    1
    49    63    62    1
    50   149   148    1
    51    71    70    1
    52    46    44   ar
    53     8    10   ar
    54   193   194    1
    55   141   142    1
    56    47    45   ar
    57    73    70    1
    58    61    60    2
    59   196   195    2
    60    70    69    1
    61    62    59    1
    62    44    43   ar
    63   194   195    1
    64   195   197   am
    65    45    43   ar
    66    60    59    1
    67    59    58    1
    68    12    13    1
    69   179   178    2
    70    43    42    1
    71   168   167    2
    72    99    97    1
    73   135   134    2
    74    19    17    1
    75   178   177    1
    76    17    16    1
    77    16    13    1
    78    16    18    1
    79   167   166    1
    80   167   176   am
    81   166   165    1
    82   166   169    1
    83    13    14    1
    84    58    52   am
    85    97    98    1
    86    97    94    1
    87   127   126    2
    88   104   101    1
    89    53    52    2
    90    14    15    2
    91   134   133    1
    92    41    40    2
    93    42    39    1
    94   171   173   ar
    95   171   170   ar
    96    52    51    1
    97    96    95    2
    98   176   177    1
    99   173   175   ar
   100   177   180    1
   101    92    91    1
   102    40    39    1
   103   169   170    1
   104    88    87    2
   105    95    94    1
   106    95   100   am
   107   126   132   am
   108   126   125    1
   109   170   172   ar
   110   133   132    1
   111    91    90    1
   112    94    93    1
   113   101   100    1
   114   101   102    1
   115    39    38    1
   116   175   174   ar
   117    90    89    1
   118    89    86    1
   119   131   130    1
   120   172   174   ar
   121   125   128    1
   122   125   124    1
   123    54    51    1
   124    54    55    1
   125    51    50    1
   126   180   181    1
   127    87    86    1
   128    86    85    1
   129   130   129    1
   130   102   103    2
   131   128   129    1
   132    38    29   am
   133   111   109    1
   134   110   109    1
   135    56    55    1
   136    23    22    2
   137    55    57    1
   138   109   106    1
   139    25    24    1
   140    83    82    1
   141    83    84    1
   142   122   121    1
   143    30    29    2
   144    29    28    1
   145    22    21    1
   146    82    81    1
   147    24    21    1
   148    24    26    1
   149    80    79    2
   150   106   107    1
   151   106   105    1
   152   123   121    1
   153   112   113    1
   154   112   107   am
   155   121   120    1
   156    21    20    1
   157   113   114    1
   158    27    28    1
   159   107   108    2
   160    28    31    1
   161   159   161   ar
   162   159   158   ar
   163   157   158    1
   164   157   154    1
   165    81    78    1
   166   161   163   ar
   167   155   154    1
   168   155   156    2
   169   153   154    1
   170    79    78    1
   171    31    32    1
   172   158   160   ar
   173    34    32   ar
   174    34    36   ar
   175    32    33   ar
   176   120   117    1
   177    78    77    1
   178    36    37   ar
   179    33    35   ar
   180   163   164    1
   181   163   162   ar
   182    37    35   ar
   183   114   115    2
   184   160   162   ar
   185   117   116    1
   186   117   118    1
   187   118   119    2
