@<TRIPOS>MOLECULE
tmp/3wcmB00.pdb
 200 191 0 0 0
SMALL
GASTEIGER

@<TRIPOS>ATOM
      1  N         15.4470  -64.5800    0.2320 N.3    21  PHE21      -0.1241
      2  CA        15.2280  -64.1900   -1.1600 C.3    21  PHE21       0.1605
      3  C         14.1130  -63.1900   -1.4510 C.2    21  PHE21       0.2264
      4  O         14.0730  -62.6280   -2.5430 O.2    21  PHE21      -0.2867
      5  CB        14.9950  -65.4340   -2.0300 C.3    21  PHE21       0.0534
      6  CG        16.1240  -66.4330   -1.9960 C.ar   21  PHE21      -0.0203
      7  CD1       16.2070  -67.3810   -0.9760 C.ar   21  PHE21      -0.0042
      8  CD2       17.1010  -66.4290   -2.9870 C.ar   21  PHE21      -0.0042
      9  CE1       17.2510  -68.3160   -0.9470 C.ar   21  PHE21      -0.0003
     10  CE2       18.1490  -67.3590   -2.9670 C.ar   21  PHE21      -0.0003
     11  CZ        18.2230  -68.3030   -1.9480 C.ar   21  PHE21      -0.0000
     12  N         14.0170  -60.8250   -4.8310 N.3    25  ILE25      -0.1245
     13  CA        13.0220  -61.2580   -5.8070 C.3    25  ILE25       0.1561
     14  C         12.1280  -60.0510   -6.1300 C.2    25  ILE25       0.2260
     15  O         11.8440  -59.7550   -7.2910 O.2    25  ILE25      -0.2867
     16  CB        12.1240  -62.3990   -5.2440 C.3    25  ILE25       0.0252
     17  CG1       12.9060  -63.7170   -5.2130 C.3    25  ILE25       0.0019
     18  CG2       10.8600  -62.5500   -6.0980 C.3    25  ILE25       0.0019
     19  CD1       12.1670  -64.8510   -4.5080 C.3    25  ILE25       0.0001
     20  N          9.1140  -65.0320  -10.7650 N.3    36  VAL36      -0.1245
     21  CA        10.0340  -65.5970   -9.7890 C.3    36  VAL36       0.1561
     22  C          9.3590  -65.7400   -8.4270 C.2    36  VAL36       0.2260
     23  O          9.5740  -66.7230   -7.7280 O.2    36  VAL36      -0.2867
     24  CB        11.3240  -64.7530   -9.6870 C.3    36  VAL36       0.0252
     25  CG1       12.2000  -65.2620   -8.5570 C.3    36  VAL36       0.0019
     26  CG2       12.0910  -64.8320  -11.0130 C.3    36  VAL36       0.0019
     27  N          7.1830  -68.7630   -8.7100 N.3    39  PHE39      -0.1227
     28  CA         8.0410  -69.9360   -8.7980 C.3    39  PHE39       0.1736
     29  C          8.4740  -70.3190   -7.3810 C.2    39  PHE39       0.2595
     30  O          8.4200  -71.4850   -6.9960 O.2    39  PHE39      -0.2718
     31  CB         9.2570  -69.6270   -9.6730 C.3    39  PHE39       0.0547
     32  CG        10.1110  -70.8290   -9.9930 C.ar   39  PHE39      -0.0202
     33  CD1        9.5530  -72.1060  -10.0560 C.ar   39  PHE39      -0.0042
     34  CD2       11.4630  -70.6740  -10.2920 C.ar   39  PHE39      -0.0042
     35  CE1       10.3220  -73.2050  -10.4130 C.ar   39  PHE39      -0.0003
     36  CE2       12.2490  -71.7710  -10.6540 C.ar   39  PHE39      -0.0003
     37  CZ        11.6780  -73.0380  -10.7160 C.ar   39  PHE39      -0.0000
     38  N          8.8750  -69.3300   -6.5920 N.am   40  TYR40      -0.1976
     39  CA         9.3010  -69.6080   -5.2280 C.3    40  TYR40       0.1639
     40  C          8.1600  -70.1780   -4.3870 C.2    40  TYR40       0.2290
     41  O          8.3560  -71.1300   -3.6270 O.2    40  TYR40      -0.2864
     42  CB         9.8510  -68.3360   -4.5690 C.3    40  TYR40       0.0560
     43  CG        10.3470  -68.5560   -3.1530 C.ar   40  TYR40      -0.0198
     44  CD1        9.4530  -68.6770   -2.0900 C.ar   40  TYR40      -0.0009
     45  CD2       11.7080  -68.6800   -2.8860 C.ar   40  TYR40      -0.0009
     46  CE1        9.9030  -68.9220   -0.7920 C.ar   40  TYR40       0.0417
     47  CE2       12.1710  -68.9190   -1.5930 C.ar   40  TYR40       0.0417
     48  CZ        11.2640  -69.0390   -0.5540 C.ar   40  TYR40       0.1957
     49  OH        11.7190  -69.2600    0.7230 O.3    40  TYR40      -0.2866
     50  N          7.2690  -73.8650   -5.3550 N.3    43  LEU43      -0.1231
     51  CA         8.3350  -74.7500   -4.9020 C.3    43  LEU43       0.1693
     52  C          8.2520  -74.9210   -3.3960 C.2    43  LEU43       0.2591
     53  O          8.5130  -76.0080   -2.8710 O.2    43  LEU43      -0.2718
     54  CB         9.7090  -74.2000   -5.3020 C.3    43  LEU43       0.0284
     55  CG         9.9710  -74.2180   -6.8090 C.3    43  LEU43       0.0019
     56  CD1       11.3670  -73.6990   -7.0880 C.3    43  LEU43       0.0001
     57  CD2        9.8090  -75.6470   -7.3450 C.3    43  LEU43       0.0001
     58  N          7.8720  -73.8480   -2.7050 N.am   44  ARG44      -0.1980
     59  CA         7.7380  -73.8750   -1.2500 C.3    44  ARG44       0.1597
     60  C          6.6270  -74.8450   -0.8350 C.2    44  ARG44       0.2287
     61  O          6.7560  -75.5830    0.1530 O.2    44  ARG44      -0.2864
     62  CB         7.4220  -72.4710   -0.7310 C.3    44  ARG44       0.0334
     63  CG         7.3010  -72.3580    0.7860 C.3    44  ARG44       0.0492
     64  CD         8.5080  -72.9810    1.4600 C.3    44  ARG44       0.2205
     65  NE         8.7240  -72.5200    2.8280 N.pl3  44  ARG44      -0.0865
     66  CZ         9.7620  -71.7770    3.2100 C.cat  44  ARG44       0.5346
     67  NH1       10.6790  -71.4050    2.3260 N.pl3  44  ARG44       0.1354
     68  NH2        9.8920  -71.4140    4.4800 N.pl3  44  ARG44       0.1354
     69  N          7.9100  -78.3970   -1.5320 N.3    47  ASP47      -0.1239
     70  CA         8.9080  -78.7600   -0.5430 C.3    47  ASP47       0.1674
     71  C          8.2510  -79.1070    0.7850 C.2    47  ASP47       0.2266
     72  O          8.7210  -79.9850    1.5100 O.2    47  ASP47      -0.2867
     73  CB         9.8950  -77.6060   -0.3450 C.3    47  ASP47       0.1410
     74  CG        10.9140  -77.8950    0.7330 C.2    47  ASP47       0.3668
     75  OD1       10.8780  -77.2260    1.7850 O.co2  47  ASP47      -0.2456
     76  OD2       11.7450  -78.8000    0.5310 O.co2  47  ASP47      -0.2456
     77  N         11.0210  -82.0540  -10.5670 N.3   117  MET117     -0.1245
     78  CA        11.3920  -82.0620   -9.1580 C.3   117  MET117      0.1570
     79  C         10.5510  -83.0920   -8.4030 C.2   117  MET117      0.2261
     80  O         11.0700  -83.8430   -7.5730 O.2   117  MET117     -0.2867
     81  CB        11.1940  -80.6750   -8.5410 C.3   117  MET117      0.0387
     82  CG        11.6830  -80.5690   -7.0940 C.3   117  MET117      0.0595
     83  SD        11.8030  -78.8430   -6.5030 S.3   117  MET117     -0.1393
     84  CE        12.4470  -78.0470   -7.9880 C.3   117  MET117      0.0692
     85  N         16.3150  -81.0610   -6.0740 N.3   142  VAL142     -0.1231
     86  CA        15.7560  -80.0320   -5.2100 C.3   142  VAL142      0.1692
     87  C         16.3480  -78.6280   -5.3660 C.2   142  VAL142      0.2591
     88  O         15.7750  -77.6600   -4.8750 O.2   142  VAL142     -0.2718
     89  CB        15.8690  -80.4580   -3.7260 C.3   142  VAL142      0.0266
     90  CG1       15.2300  -81.8440   -3.5350 C.3   142  VAL142      0.0020
     91  CG2       17.3280  -80.4780   -3.2910 C.3   142  VAL142      0.0020
     92  N         17.4700  -78.5030   -6.0670 N.am  143  ALA143     -0.1980
     93  CA        18.1010  -77.1940   -6.2150 C.3   143  ALA143      0.1597
     94  C         18.6500  -76.9220   -7.6070 C.2   143  ALA143      0.2287
     95  O         18.4590  -75.8330   -8.1570 O.2   143  ALA143     -0.2864
     96  CB        19.2070  -77.0470   -5.1850 C.3   143  ALA143      0.0319
     97  N         16.2050  -75.7860   -9.9680 N.3   146  VAL146     -0.1231
     98  CA        15.7030  -74.4550   -9.6580 C.3   146  VAL146      0.1692
     99  C         16.5870  -73.4350  -10.3620 C.2   146  VAL146      0.2592
    100  O         16.0900  -72.4620  -10.9290 O.2   146  VAL146     -0.2718
    101  CB        15.6900  -74.2030   -8.1390 C.3   146  VAL146      0.0266
    102  CG1       15.2250  -72.7730   -7.8380 C.3   146  VAL146      0.0020
    103  CG2       14.7470  -75.2050   -7.4670 C.3   146  VAL146      0.0020
    104  N         17.8970  -73.6700  -10.3370 N.am  147  GLY147     -0.1957
    105  CA        18.8240  -72.7740  -11.0110 C.3   147  GLY147      0.1869
    106  C         18.5310  -72.8110  -12.5000 C.2   147  GLY147      0.2309
    107  O         18.5120  -71.7760  -13.1730 O.2   147  GLY147     -0.2863
    108  N         15.1080  -70.9820  -13.0860 N.3   150  LEU150     -0.1245
    109  CA        15.3040  -69.5420  -12.9560 C.3   150  LEU150      0.1561
    110  C         16.0160  -68.9900  -14.1840 C.2   150  LEU150      0.2260
    111  O         15.6330  -67.9440  -14.7140 O.2   150  LEU150     -0.2867
    112  CB        16.1150  -69.2230  -11.6930 C.3   150  LEU150      0.0270
    113  CG        15.3470  -69.3420  -10.3740 C.3   150  LEU150      0.0019
    114  CD1       16.3020  -69.3280   -9.1890 C.3   150  LEU150      0.0001
    115  CD2       14.3480  -68.1880  -10.2740 C.3   150  LEU150      0.0001
    116  N         14.8690  -66.1760  -16.9880 N.3   154  PHE154     -0.1241
    117  CA        15.6600  -64.9930  -17.3430 C.3   154  PHE154      0.1605
    118  C         15.7820  -64.8370  -18.8590 C.2   154  PHE154      0.2264
    119  O         15.5980  -63.7420  -19.3900 O.2   154  PHE154     -0.2867
    120  CB        17.0740  -65.0490  -16.7380 C.3   154  PHE154      0.0534
    121  CG        17.1060  -65.0850  -15.2250 C.ar  154  PHE154     -0.0203
    122  CD1       16.0480  -64.6000  -14.4730 C.ar  154  PHE154     -0.0042
    123  CD2       18.2150  -65.6090  -14.5580 C.ar  154  PHE154     -0.0042
    124  CE1       16.0850  -64.6360  -13.0690 C.ar  154  PHE154     -0.0003
    125  CE2       18.2670  -65.6510  -13.1590 C.ar  154  PHE154     -0.0003
    126  CZ        17.1990  -65.1640  -12.4140 C.ar  154  PHE154     -0.0000
    127  N         24.8970  -73.5500   -9.8830 N.3   174  MET174     -0.1230
    128  CA        24.4490  -72.4630   -9.0120 C.3   174  MET174      0.1702
    129  C         23.5620  -73.0430   -7.9130 C.2   174  MET174      0.2592
    130  O         23.7370  -72.7430   -6.7290 O.2   174  MET174     -0.2718
    131  CB        23.6490  -71.4290   -9.8120 C.3   174  MET174      0.0401
    132  CG        24.4660  -70.6250  -10.8240 C.3   174  MET174      0.0596
    133  SD        25.5150  -69.3620  -10.0520 S.3   174  MET174     -0.1393
    134  CE        24.3200  -68.1240   -9.6560 C.3   174  MET174      0.0692
    135  N         22.6000  -73.8690   -8.3170 N.am  175  GLY175     -0.1957
    136  CA        21.7040  -74.4750   -7.3510 C.3   175  GLY175      0.1869
    137  C         22.4270  -75.4430   -6.4280 C.2   175  GLY175      0.2309
    138  O         22.2120  -75.4330   -5.2130 O.2   175  GLY175     -0.2863
    139  N         24.4750  -73.7360   -3.5500 N.3   178  LEU178     -0.1231
    140  CA        23.6270  -73.2690   -2.4660 C.3   178  LEU178      0.1693
    141  C         23.0860  -74.4330   -1.6260 C.2   178  LEU178      0.2591
    142  O         23.0410  -74.3550   -0.3970 O.2   178  LEU178     -0.2718
    143  CB        22.4420  -72.4680   -3.0130 C.3   178  LEU178      0.0284
    144  CG        22.6830  -71.1540   -3.7650 C.3   178  LEU178      0.0019
    145  CD1       21.3340  -70.4860   -4.0160 C.3   178  LEU178      0.0001
    146  CD2       23.5690  -70.2240   -2.9410 C.3   178  LEU178      0.0001
    147  N         22.6760  -75.5090   -2.2890 N.am  179  GLN179     -0.1979
    148  CA        22.1080  -76.6520   -1.5790 C.3   179  GLN179      0.1601
    149  C         23.1450  -77.3850   -0.7330 C.2   179  GLN179      0.2287
    150  O         22.9060  -77.6700    0.4410 O.2   179  GLN179     -0.2864
    151  CB        21.4560  -77.6280   -2.5680 C.3   179  GLN179      0.0394
    152  CG        20.5210  -78.6350   -1.9050 C.3   179  GLN179      0.0908
    153  CD        19.4210  -77.9570   -1.1010 C.2   179  GLN179      0.2608
    154  OE1       18.7430  -77.0550   -1.5950 O.2   179  GLN179     -0.2717
    155  NE2       19.2360  -78.3920    0.1400 N.am  179  GLN179     -0.0878
    156  N         28.8610  -68.3340  -14.5720 N.3   243  TYR243     -0.1241
    157  CA        27.4500  -67.9750  -14.6530 C.3   243  TYR243      0.1605
    158  C         27.2120  -66.4860  -14.3680 C.2   243  TYR243      0.2264
    159  O         26.5710  -65.7920  -15.1540 O.2   243  TYR243     -0.2867
    160  CB        26.6350  -68.8370  -13.6810 C.3   243  TYR243      0.0534
    161  CG        25.1430  -68.5940  -13.7550 C.ar  243  TYR243     -0.0201
    162  CD1       24.5560  -67.5120  -13.0940 C.ar  243  TYR243     -0.0009
    163  CD2       24.3220  -69.4280  -14.5180 C.ar  243  TYR243     -0.0009
    164  CE1       23.1840  -67.2660  -13.1920 C.ar  243  TYR243      0.0417
    165  CE2       22.9540  -69.1900  -14.6230 C.ar  243  TYR243      0.0417
    166  CZ        22.3930  -68.1120  -13.9630 C.ar  243  TYR243      0.1957
    167  OH        21.0430  -67.8780  -14.0850 O.3   243  TYR243     -0.2866
    168  N         20.1900  -60.5290   -7.6080 N.3   255  PHE255     -0.1227
    169  CA        19.4330  -61.7150   -7.2120 C.3   255  PHE255      0.1736
    170  C         20.2950  -62.9800   -7.1810 C.2   255  PHE255      0.2595
    171  O         20.2050  -63.7750   -6.2480 O.2   255  PHE255     -0.2718
    172  CB        18.2630  -61.9260   -8.1790 C.3   255  PHE255      0.0547
    173  CG        17.5490  -63.2310   -7.9890 C.ar  255  PHE255     -0.0202
    174  CD1       16.6160  -63.3890   -6.9610 C.ar  255  PHE255     -0.0042
    175  CD2       17.8360  -64.3140   -8.8160 C.ar  255  PHE255     -0.0042
    176  CE1       15.9770  -64.6170   -6.7580 C.ar  255  PHE255     -0.0003
    177  CE2       17.2050  -65.5500   -8.6250 C.ar  255  PHE255     -0.0003
    178  CZ        16.2750  -65.6990   -7.5940 C.ar  255  PHE255     -0.0000
    179  N         21.1160  -63.1680   -8.2110 N.am  256  CYS256     -0.1970
    180  CA        21.9720  -64.3470   -8.3040 C.3   256  CYS256      0.1712
    181  C         23.2540  -64.2820   -7.4810 C.2   256  CYS256      0.2296
    182  O         23.6650  -65.2780   -6.8780 O.2   256  CYS256     -0.2864
    183  CB        22.3540  -64.6060   -9.7610 C.3   256  CYS256      0.0983
    184  SG        20.9740  -65.0280  -10.8350 S.3   256  CYS256     -0.0798
    185  N         23.0510  -64.2410   -2.9550 N.3   259  PRO259     -0.2102
    186  CA        22.8980  -65.5500   -2.3110 C.3   259  PRO259      0.1504
    187  C         24.1510  -66.4130   -2.4290 C.2   259  PRO259      0.2575
    188  O         24.5050  -67.1410   -1.4950 O.2   259  PRO259     -0.2718
    189  CB        21.7080  -66.1570   -3.0470 C.3   259  PRO259      0.0282
    190  CG        20.8860  -64.9400   -3.3940 C.3   259  PRO259      0.0208
    191  CD        21.9420  -63.9920   -3.8960 C.3   259  PRO259      0.0893
    192  N         24.8190  -66.3390   -3.5750 N.am  260  GLN260     -0.1980
    193  CA        26.0290  -67.1220   -3.7830 C.3   260  GLN260      0.1601
    194  C         27.1250  -66.6520   -2.8350 C.2   260  GLN260      0.2287
    195  O         27.8300  -67.4670   -2.2440 O.2   260  GLN260     -0.2864
    196  CB        26.5220  -67.0060   -5.2330 C.3   260  GLN260      0.0394
    197  CG        25.6420  -67.6810   -6.2820 C.3   260  GLN260      0.0908
    198  CD        25.5100  -69.1910   -6.0890 C.2   260  GLN260      0.2608
    199  OE1       26.4650  -69.8740   -5.7100 O.2   260  GLN260     -0.2717
    200  NE2       24.3280  -69.7190   -6.3790 N.am  260  GLN260     -0.0878
@<TRIPOS>BOND
     1   119   118    2
     2   118   117    1
     3   117   116    1
     4   117   120    1
     5   120   121    1
     6   121   123   ar
     7   121   122   ar
     8   159   158    2
     9   111   110    2
    10   157   156    1
    11   157   158    1
    12   157   160    1
    13   165   163   ar
    14   165   166   ar
    15   123   125   ar
    16   163   161   ar
    17   122   124   ar
    18   110   109    1
    19   167   166    1
    20   166   164   ar
    21   161   160    1
    22   161   162   ar
    23   164   162   ar
    24   107   106    2
    25   125   126   ar
    26   108   109    1
    27   124   126   ar
    28   109   112    1
    29   106   105    1
    30   112   113    1
    31    26    24    1
    32   105   104    1
    33   100    99    2
    34   184   183    1
    35   132   133    1
    36   132   131    1
    37    20    21    1
    38    37    36   ar
    39    37    35   ar
    40    36    34   ar
    41    77    78    1
    42    35    33   ar
    43   113   115    1
    44   113   114    1
    45    99   104   am
    46    99    98    1
    47    34    32   ar
    48    33    32   ar
    49   133   134    1
    50    32    31    1
    51    97    98    1
    52   127   128    1
    53   131   128    1
    54    21    24    1
    55    21    22    1
    56   183   180    1
    57    24    25    1
    58    31    28    1
    59    98   101    1
    60    78    81    1
    61    78    79    1
    62   128   129    1
    63   175   177   ar
    64   175   173   ar
    65    28    27    1
    66    28    29    1
    67   177   178   ar
    68    81    82    1
    69    22    23    2
    70    79    80    2
    71   135   129   am
    72   135   136    1
    73   180   179    1
    74   180   181    1
    75   179   170   am
    76   172   173    1
    77   172   169    1
    78    95    94    2
    79   101   102    1
    80   101   103    1
    81   173   174   ar
    82    84    83    1
    83   129   130    2
    84   168   169    1
    85    94    93    1
    86   178   176   ar
    87   181   182    2
    88    29    30    2
    89    29    38   am
    90   136   137    1
    91    57    55    1
    92    15    14    2
    93   169   170    1
    94   170   171    2
    95    82    83    1
    96    56    55    1
    97   174   176   ar
    98    55    54    1
    99    38    39    1
   100   137   138    2
   101   200   198   am
   102   197   198    1
   103   197   196    1
   104    93    92    1
   105    93    96    1
   106    14    13    1
   107    18    16    1
   108   198   199    2
   109    85    86    1
   110    92    87   am
   111    13    16    1
   112    13    12    1
   113    87    86    1
   114    87    88    2
   115    50    51    1
   116    54    51    1
   117    16    17    1
   118   196   193    1
   119    39    42    1
   120    39    40    1
   121    17    19    1
   122    86    89    1
   123    51    52    1
   124    42    43    1
   125    40    41    2
   126   145   144    1
   127   191   190    1
   128   191   185    1
   129   193   192    1
   130   193   194    1
   131   144   143    1
   132   144   146    1
   133    89    90    1
   134    89    91    1
   135   192   187   am
   136   139   140    1
   137    52    53    2
   138    52    58   am
   139   190   189    1
   140    43    45   ar
   141    43    44   ar
   142   189   186    1
   143   143   140    1
   144     8    10   ar
   145     8     6   ar
   146    10    11   ar
   147   185   186    1
   148    45    47   ar
   149   194   195    2
   150    58    59    1
   151   151   152    1
   152   151   148    1
   153     4     3    2
   154   140   141    1
   155   187   186    1
   156   187   188    2
   157   147   141   am
   158   147   148    1
   159    44    46   ar
   160     5     6    1
   161     5     2    1
   162     6     7   ar
   163    11     9   ar
   164   152   153    1
   165   141   142    2
   166   154   153    2
   167    47    48   ar
   168   148   149    1
   169    69    70    1
   170     3     2    1
   171    59    60    1
   172    59    62    1
   173     2     1    1
   174   153   155   am
   175     7     9   ar
   176    60    61    2
   177    46    48   ar
   178   149   150    2
   179    62    63    1
   180    48    49    1
   181    70    73    1
   182    70    71    1
   183    73    74    1
   184    76    74   ar
   185    74    75   ar
   186    71    72    2
   187    63    64    1
   188    64    65    1
   189    67    66    1
   190    65    66    2
   191    66    68    1
