@<TRIPOS>MOLECULE
tmp/3wcsA01.pdb
 145 144 0 0 0
SMALL
GASTEIGER

@<TRIPOS>ATOM
      1  N          8.9760   44.3870    5.7010 N.3    85  ALA85      -0.1231
      2  CA         9.9000   43.7040    4.7740 C.3    85  ALA85       0.1694
      3  C          9.0850   43.2090    3.5810 C.2    85  ALA85       0.2592
      4  O          7.8990   42.8800    3.7500 O.2    85  ALA85      -0.2718
      5  CB        10.6020   42.5190    5.4450 C.3    85  ALA85       0.0304
      6  N          9.6600   43.1280    2.3790 N.am   86  ASP86      -0.1974
      7  CA        11.0790   43.4510    2.0700 C.3    86  ASP86       0.1709
      8  C         11.1920   44.6650    1.1630 C.2    86  ASP86       0.2293
      9  O         12.2670   45.2760    1.0450 O.2    86  ASP86      -0.2864
     10  CB        11.7180   42.2650    1.3520 C.3    86  ASP86       0.1436
     11  CG        12.4020   41.3210    2.2910 C.2    86  ASP86       0.3671
     12  OD1       13.5320   41.6620    2.7360 O.co2  86  ASP86      -0.2456
     13  OD2       11.8530   40.2190    2.5460 O.co2  86  ASP86      -0.2456
     14  N         12.7920   34.9950   -3.5510 N.3   102  LYS102     -0.1231
     15  CA        11.9290   35.8660   -2.7560 C.3   102  LYS102      0.1693
     16  C         12.6790   36.6530   -1.6700 C.2   102  LYS102      0.2593
     17  O         13.9160   36.7790   -1.7050 O.2   102  LYS102     -0.2718
     18  CB        10.7810   35.0460   -2.1570 C.3   102  LYS102      0.0285
     19  CG        11.2310   33.9920   -1.1520 C.3   102  LYS102      0.0035
     20  CD        10.0440   33.2830   -0.5020 C.3   102  LYS102      0.0206
     21  CE         9.5850   32.0850   -1.3180 C.3   102  LYS102      0.1093
     22  NZ         8.3190   31.5120   -0.7810 N.3   102  LYS102     -0.1314
     23  N         11.9320   37.2030   -0.7190 N.am  103  GLY103     -0.1942
     24  CA        12.5470   37.9640    0.3780 C.3   103  GLY103      0.2014
     25  C         13.3940   39.1460   -0.0870 C.2   103  GLY103      0.2639
     26  O         12.9800   39.9280   -0.9440 O.2   103  GLY103     -0.2714
     27  N         14.6060   39.2620    0.4560 N.am  104  GLY104     -0.1939
     28  CA        15.4510   40.4110    0.1640 C.3   104  GLY104      0.2014
     29  C         15.9370   40.4870   -1.2860 C.2   104  GLY104      0.2638
     30  O         16.4660   41.4910   -1.7110 O.2   104  GLY104     -0.2714
     31  N         15.7790   39.4150   -2.0390 N.am  105  LEU105     -0.1977
     32  CA        16.1780   39.4360   -3.4380 C.3   105  LEU105      0.1596
     33  C         15.0540   39.9520   -4.3620 C.2   105  LEU105      0.2287
     34  O         15.2410   40.0870   -5.5750 O.2   105  LEU105     -0.2864
     35  CB        16.6740   38.0460   -3.8520 C.3   105  LEU105      0.0297
     36  CG        17.9350   37.5970   -3.0720 C.3   105  LEU105      0.0022
     37  CD1       18.2780   36.1370   -3.3510 C.3   105  LEU105      0.0001
     38  CD2       19.1060   38.5320   -3.3220 C.3   105  LEU105      0.0001
     39  N         23.1900   37.4390   -4.2480 N.3   112  TYR112     -0.1241
     40  CA        23.5380   38.8560   -4.1990 C.3   112  TYR112      0.1605
     41  C         24.8110   39.2470   -4.9670 C.2   112  TYR112      0.2264
     42  O         25.3840   40.3100   -4.7330 O.2   112  TYR112     -0.2867
     43  CB        23.5560   39.3930   -2.7590 C.3   112  TYR112      0.0534
     44  CG        24.4110   38.6320   -1.7460 C.ar  112  TYR112     -0.0201
     45  CD1       25.7340   39.0120   -1.4830 C.ar  112  TYR112     -0.0009
     46  CD2       23.8690   37.5730   -1.0180 C.ar  112  TYR112     -0.0009
     47  CE1       26.5010   38.3260   -0.5330 C.ar  112  TYR112      0.0417
     48  CE2       24.6170   36.8920   -0.0650 C.ar  112  TYR112      0.0417
     49  CZ        25.9270   37.2670    0.1680 C.ar  112  TYR112      0.1957
     50  OH        26.6430   36.5760    1.1260 O.3   112  TYR112     -0.2866
     51  N         13.9270   46.7590    4.2700 N.3   128  LEU128     -0.1231
     52  CA        14.5890   45.8000    5.1670 C.3   128  LEU128      0.1693
     53  C         16.0940   45.7460    4.8950 C.2   128  LEU128      0.2592
     54  O         16.5340   45.4400    3.7880 O.2   128  LEU128     -0.2718
     55  CB        13.9850   44.4020    5.0290 C.3   128  LEU128      0.0284
     56  CG        14.6290   43.5720    6.1680 C.3   128  LEU128      0.0019
     57  CD1       13.7050   43.0660    7.2690 C.3   128  LEU128      0.0001
     58  CD2       15.6910   42.5820    5.6730 C.3   128  LEU128      0.0001
     59  N         16.8620   46.0410    5.9410 N.am  129  TYR129     -0.1962
     60  CA        18.3420   45.9940    5.8500 C.3   129  TYR129      0.1771
     61  C         18.8550   44.5620    5.7400 C.2   129  TYR129      0.2620
     62  O         18.7120   43.7650    6.6840 O.2   129  TYR129     -0.2715
     63  CB        18.8910   46.6720    7.0940 C.3   129  TYR129      0.0574
     64  CG        20.3580   46.3860    7.3960 C.ar  129  TYR129     -0.0198
     65  CD1       21.3440   46.7050    6.4930 C.ar  129  TYR129     -0.0009
     66  CD2       20.7170   45.7800    8.5930 C.ar  129  TYR129     -0.0009
     67  CE1       22.6860   46.4510    6.7950 C.ar  129  TYR129      0.0417
     68  CE2       22.0500   45.5180    8.9080 C.ar  129  TYR129      0.0417
     69  CZ        23.0220   45.8500    8.0070 C.ar  129  TYR129      0.1957
     70  OH        24.3540   45.5840    8.3440 O.3   129  TYR129     -0.2866
     71  N         19.4750   44.2410    4.5990 N.am  130  ASN130     -0.1958
     72  CA        20.0220   42.9120    4.3710 C.3   130  ASN130      0.1819
     73  C         21.5250   43.0580    4.5600 C.2   130  ASN130      0.2621
     74  O         22.1880   43.7220    3.7800 O.2   130  ASN130     -0.2715
     75  CB        19.6840   42.4110    2.9580 C.3   130  ASN130      0.1195
     76  CG        18.2230   41.9900    2.8280 C.2   130  ASN130      0.2630
     77  OD1       17.3900   42.7170    2.2530 O.2   130  ASN130     -0.2716
     78  ND2       17.9080   40.7950    3.3600 N.am  130  ASN130     -0.0877
     79  N         22.0200   42.4700    5.6370 N.am  131  VAL131     -0.1963
     80  CA        23.3980   42.7130    6.1050 C.3   131  VAL131      0.1727
     81  C         24.5020   42.5310    5.0570 C.2   131  VAL131      0.2616
     82  O         25.5340   43.2240    5.1020 O.2   131  VAL131     -0.2715
     83  CB        23.6780   41.8510    7.3690 C.3   131  VAL131      0.0290
     84  CG1       23.6010   40.3640    7.0630 C.3   131  VAL131      0.0023
     85  CG2       25.0190   42.2140    7.9900 C.3   131  VAL131      0.0023
     86  N         24.3050   41.6150    4.1160 N.am  132  HIS132     -0.1959
     87  CA        25.3720   41.2860    3.1600 C.3   132  HIS132      0.1787
     88  C         25.5070   42.2450    1.9980 C.2   132  HIS132      0.2620
     89  O         26.4910   42.1820    1.2440 O.2   132  HIS132     -0.2715
     90  CB        25.2370   39.8530    2.6720 C.3   132  HIS132      0.0785
     91  CG        25.3310   38.8160    3.7660 C.ar  132  HIS132      0.0821
     92  ND1       26.3980   38.7250    4.6030 N.ar  132  HIS132     -0.2267
     93  CD2       24.4580   37.7790    4.1240 C.ar  132  HIS132      0.1154
     94  CE1       26.2090   37.7080    5.4660 C.ar  132  HIS132      0.1986
     95  NE2       25.0200   37.1250    5.1780 N.ar  132  HIS132     -0.2212
     96  N         24.5390   43.1490    1.8190 N.am  133  TRP133     -0.1974
     97  CA        24.6040   44.0990    0.6970 C.3   133  TRP133      0.1640
     98  C         24.0060   45.4800    0.8590 C.2   133  TRP133      0.2290
     99  O         24.3760   46.3840    0.1350 O.2   133  TRP133     -0.2864
    100  CB        24.0610   43.4460   -0.5770 C.3   133  TRP133      0.0576
    101  CG        22.5690   43.1890   -0.5230 C.ar  133  TRP133      0.0006
    102  CD1       21.5500   44.0980   -0.7580 C.ar  133  TRP133      0.0946
    103  CD2       21.9060   41.9190   -0.2580 C.ar  133  TRP133      0.0152
    104  NE1       20.3060   43.4890   -0.6190 N.ar  133  TRP133     -0.2442
    105  CE2       20.4590   42.1800   -0.3400 C.ar  133  TRP133      0.0810
    106  CE3       22.3410   40.6310    0.0510 C.ar  133  TRP133      0.0012
    107  CZ2       19.5320   41.1870   -0.1300 C.ar  133  TRP133      0.0191
    108  CZ3       21.3900   39.6370    0.2610 C.ar  133  TRP133      0.0001
    109  CH2       20.0070   39.9190    0.1820 C.ar  133  TRP133      0.0015
    110  N          8.6410   39.6820    4.0280 N.3   214  GLY214     -0.1210
    111  CA         9.6990   39.0380    4.7970 C.3   214  GLY214      0.1956
    112  C          9.4560   37.5500    4.9620 C.2   214  GLY214      0.2612
    113  O          8.3140   37.0870    4.9520 O.2   214  GLY214     -0.2717
    114  N         10.5340   36.7880    5.1010 N.am  215  ILE215     -0.1965
    115  CA        10.3800   35.3470    5.2890 C.3   215  ILE215      0.1727
    116  C         10.3040   34.9600    6.7710 C.2   215  ILE215      0.2617
    117  O          9.9220   33.8420    7.0960 O.2   215  ILE215     -0.2715
    118  CB        11.4540   34.5270    4.5410 C.3   215  ILE215      0.0290
    119  CG1       12.8670   34.7890    5.0950 C.3   215  ILE215      0.0022
    120  CG2       11.4110   34.8300    3.0490 C.3   215  ILE215      0.0023
    121  CD1       13.8870   33.7550    4.6430 C.3   215  ILE215      0.0001
    122  N         10.6510   35.8980    7.6470 N.am  216  THR216     -0.1937
    123  CA        10.7190   35.6600    9.0940 C.3   216  THR216      0.2028
    124  C          9.6160   36.4330    9.8110 C.2   216  THR216      0.2642
    125  O          9.4520   37.6350    9.5830 O.2   216  THR216     -0.2714
    126  CB        12.0760   36.1170    9.6470 C.3   216  THR216      0.1808
    127  OG1       13.1180   35.4060    8.9740 O.3   216  THR216     -0.2208
    128  CG2       12.1790   35.8470   11.1440 C.3   216  THR216      0.0379
    129  N          8.8720   35.7520   10.6810 N.am  217  LYS217     -0.1977
    130  CA         7.8280   36.4090   11.4920 C.3   217  LYS217      0.1596
    131  C          8.3230   37.7380   12.0780 C.2   217  LYS217      0.2287
    132  O          9.4740   37.8300   12.5490 O.2   217  LYS217     -0.2864
    133  CB         7.3330   35.4690   12.6130 C.3   217  LYS217      0.0298
    134  CG         6.1030   35.9580   13.3700 C.3   217  LYS217      0.0038
    135  CD         5.9220   35.1860   14.6760 C.3   217  LYS217      0.0206
    136  CE         4.6150   35.5540   15.3720 C.3   217  LYS217      0.1093
    137  NZ         4.4330   34.7920   16.6430 N.3   217  LYS217     -0.1314
    138  N          8.4630   40.5630   10.1720 N.3   219  ASN219     -0.1240
    139  CA         8.9580   41.3550    9.0390 C.3   219  ASN219      0.1653
    140  C          8.0280   41.1450    7.8540 C.2   219  ASN219      0.2266
    141  O          8.1500   40.1570    7.1290 O.2   219  ASN219     -0.2867
    142  CB        10.3750   40.9220    8.6540 C.3   219  ASN219      0.1155
    143  CG        11.3360   40.9740    9.8280 C.2   219  ASN219      0.2627
    144  OD1       11.9100   42.0200   10.1220 O.2   219  ASN219     -0.2716
    145  ND2       11.4920   39.8480   10.5160 N.am  219  ASN219     -0.0877
@<TRIPOS>BOND
     1    34    33    2
     2    41    42    2
     3    41    40    1
     4    33    32    1
     5    39    40    1
     6    40    43    1
     7    35    32    1
     8    35    36    1
     9    14    15    1
    10    32    31    1
    11    37    36    1
    12    38    36    1
    13    43    44    1
    14    15    18    1
    15    15    16    1
    16    18    19    1
    17    31    29   am
    18    44    45   ar
    19    44    46   ar
    20    30    29    2
    21    17    16    2
    22    16    23   am
    23    45    47   ar
    24    21    22    1
    25    21    20    1
    26    29    28    1
    27    19    20    1
    28    46    48   ar
    29    26    25    2
    30   102   104   ar
    31   102   101   ar
    32    23    24    1
    33   104   105   ar
    34   100   101    1
    35   100    97    1
    36    47    49   ar
    37   101   103   ar
    38   105   103   ar
    39   105   107   ar
    40   103   106   ar
    41   107   109   ar
    42    25    24    1
    43    25    27   am
    44    48    49   ar
    45   106   108   ar
    46    99    98    2
    47    28    27    1
    48    49    50    1
    49   109   108   ar
    50    97    98    1
    51    97    96    1
    52     9     8    2
    53     8     7    1
    54    89    88    2
    55    10     7    1
    56    10    11    1
    57    96    88   am
    58    88    87    1
    59     7     6    1
    60    77    76    2
    61    11    13   ar
    62    11    12   ar
    63     6     3   am
    64    90    87    1
    65    90    91    1
    66    76    75    1
    67    76    78   am
    68    75    72    1
    69   120   118    1
    70    87    86    1
    71     3     4    2
    72     3     2    1
    73    91    93   ar
    74    91    92   ar
    75    74    73    2
    76    54    53    2
    77   110   111    1
    78    86    81   am
    79    93    95   ar
    80    51    52    1
    81    72    73    1
    82    72    71    1
    83   118   119    1
    84   118   115    1
    85    73    79   am
    86    71    61   am
    87    92    94   ar
    88   121   119    1
    89     2     5    1
    90     2     1    1
    91   111   112    1
    92    53    52    1
    93    53    59   am
    94   113   112    2
    95   112   114   am
    96    55    52    1
    97    55    56    1
    98    81    82    2
    99    81    80    1
   100   114   115    1
   101    95    94   ar
   102   115   116    1
   103    79    80    1
   104    58    56    1
   105    61    60    1
   106    61    62    2
   107    60    59    1
   108    60    63    1
   109    80    83    1
   110    56    57    1
   111    65    67   ar
   112    65    64   ar
   113   116   117    2
   114   116   122   am
   115    67    69   ar
   116    84    83    1
   117    63    64    1
   118   141   140    2
   119    83    85    1
   120    64    66   ar
   121   122   123    1
   122   140   139    1
   123    69    70    1
   124    69    68   ar
   125    66    68   ar
   126   142   139    1
   127   142   143    1
   128   127   126    1
   129   139   138    1
   130   123   126    1
   131   123   124    1
   132   125   124    2
   133   126   128    1
   134   124   129   am
   135   143   144    2
   136   143   145   am
   137   129   130    1
   138   130   131    1
   139   130   133    1
   140   131   132    2
   141   133   134    1
   142   134   135    1
   143   135   136    1
   144   136   137    1
