@<TRIPOS>MOLECULE
tmp/3wcuG00.pdb
 228 217 0 0 0
SMALL
GASTEIGER

@<TRIPOS>ATOM
      1  N         15.0630   14.0800   27.6110 N.3    37  PHE37      -0.1241
      2  CA        14.2340   13.3420   28.5670 C.3    37  PHE37       0.1605
      3  C         12.7790   13.2830   28.1210 C.2    37  PHE37       0.2264
      4  O         12.1360   12.2410   28.2150 O.2    37  PHE37      -0.2867
      5  CB        14.3030   13.9870   29.9460 C.3    37  PHE37       0.0534
      6  CG        15.5160   13.6060   30.7270 C.ar   37  PHE37      -0.0203
      7  CD1       15.7160   12.2890   31.1210 C.ar   37  PHE37      -0.0042
      8  CD2       16.4630   14.5580   31.0720 C.ar   37  PHE37      -0.0042
      9  CE1       16.8460   11.9250   31.8530 C.ar   37  PHE37      -0.0003
     10  CE2       17.5990   14.2080   31.8050 C.ar   37  PHE37      -0.0003
     11  CZ        17.7900   12.8870   32.1960 C.ar   37  PHE37      -0.0000
     12  N         12.5980   10.5900   25.8650 N.3    40  LEU40      -0.1245
     13  CA        12.7700    9.2890   26.5050 C.3    40  LEU40       0.1561
     14  C         11.4260    8.8440   27.0580 C.2    40  LEU40       0.2260
     15  O         10.8610    7.8460   26.6090 O.2    40  LEU40      -0.2867
     16  CB        13.7930    9.3780   27.6500 C.3    40  LEU40       0.0270
     17  CG        14.1660    8.1120   28.4420 C.3    40  LEU40       0.0019
     18  CD1       14.5380    6.9570   27.5170 C.3    40  LEU40       0.0001
     19  CD2       15.3380    8.4550   29.3520 C.3    40  LEU40       0.0001
     20  N          9.5700    4.9610   33.0970 N.3    47  ALA47      -0.1245
     21  CA        10.9450    5.3900   33.2830 C.3    47  ALA47       0.1562
     22  C         10.9320    6.6870   34.0830 C.2    47  ALA47       0.2260
     23  O         11.9460    7.0980   34.6530 O.2    47  ALA47      -0.2867
     24  CB        11.6070    5.5970   31.9290 C.3    47  ALA47       0.0290
     25  N         11.9380    6.4310   37.7420 N.3    50  LEU50      -0.1231
     26  CA        13.3490    6.3420   38.0890 C.3    50  LEU50       0.1693
     27  C         13.8530    7.7150   38.5320 C.2    50  LEU50       0.2592
     28  O         14.8190    7.8270   39.2890 O.2    50  LEU50      -0.2718
     29  CB        14.1300    5.8220   36.8790 C.3    50  LEU50       0.0284
     30  CG        13.6040    4.4970   36.2990 C.3    50  LEU50       0.0019
     31  CD1       14.1940    4.2370   34.9200 C.3    50  LEU50       0.0001
     32  CD2       13.9450    3.3600   37.2400 C.3    50  LEU50       0.0001
     33  N         13.1640    8.7570   38.0720 N.am   51  PHE51      -0.1976
     34  CA        13.5240   10.1310   38.4040 C.3    51  PHE51       0.1639
     35  C         12.4130   10.7780   39.2280 C.2    51  PHE51       0.2290
     36  O         11.8090   11.7600   38.7970 O.2    51  PHE51      -0.2864
     37  CB        13.7520   10.9480   37.1180 C.3    51  PHE51       0.0560
     38  CG        14.7040   10.3040   36.1410 C.ar   51  PHE51      -0.0200
     39  CD1       16.0720   10.5400   36.2210 C.ar   51  PHE51      -0.0042
     40  CD2       14.2320    9.4090   35.1750 C.ar   51  PHE51      -0.0042
     41  CE1       16.9510    9.8930   35.3600 C.ar   51  PHE51      -0.0003
     42  CE2       15.1100    8.7580   34.3110 C.ar   51  PHE51      -0.0003
     43  CZ        16.4700    9.0000   34.4080 C.ar   51  PHE51      -0.0000
     44  N         12.9080   11.5060   42.7060 N.3    53  ARG53      -0.1231
     45  CA        13.5990   12.3860   43.6380 C.3    53  ARG53       0.1694
     46  C         13.9060   13.7100   42.9630 C.2    53  ARG53       0.2591
     47  O         14.4260   14.6330   43.5930 O.2    53  ARG53      -0.2718
     48  CB        14.9060   11.7490   44.1020 C.3    53  ARG53       0.0321
     49  CG        15.5610   12.4720   45.2660 C.3    53  ARG53       0.0489
     50  CD        16.8520   11.7880   45.6750 C.3    53  ARG53       0.2205
     51  NE        17.9960   12.2650   44.9050 N.pl3  53  ARG53      -0.0865
     52  CZ        18.5660   13.4540   45.0800 C.cat  53  ARG53       0.5346
     53  NH1       19.6020   13.8100   44.3340 N.pl3  53  ARG53       0.1354
     54  NH2       18.1080   14.2840   46.0080 N.pl3  53  ARG53       0.1354
     55  N         13.5780   13.7910   41.6750 N.am   54  VAL54      -0.1980
     56  CA        13.8270   14.9900   40.8840 C.3    54  VAL54       0.1595
     57  C         12.6160   15.4140   40.0330 C.2    54  VAL54       0.2287
     58  O         12.7630   16.0110   38.9660 O.2    54  VAL54      -0.2864
     59  CB        15.0710   14.7770   39.9840 C.3    54  VAL54       0.0276
     60  CG1       16.3410   14.8000   40.8330 C.3    54  VAL54       0.0022
     61  CG2       14.9650   13.4380   39.2630 C.3    54  VAL54       0.0022
     62  N         18.0350   18.9220   37.0040 N.3    67  HIS67      -0.1241
     63  CA        18.4450   17.5460   36.7670 C.3    67  HIS67       0.1621
     64  C         18.8960   17.4090   35.3340 C.2    67  HIS67       0.2264
     65  O         20.0680   17.1650   35.0770 O.2    67  HIS67      -0.2867
     66  CB        17.3100   16.5530   37.0010 C.3    67  HIS67       0.0745
     67  CG        17.6460   15.1580   36.5690 C.ar   67  HIS67       0.0817
     68  ND1       18.6730   14.4320   37.1330 N.ar   67  HIS67      -0.2268
     69  CD2       17.1170   14.3710   35.6000 C.ar   67  HIS67       0.1154
     70  CE1       18.7620   13.2580   36.5300 C.ar   67  HIS67       0.1986
     71  NE2       17.8290   13.1970   35.5960 N.ar   67  HIS67      -0.2212
     72  N         22.0800   18.6080   34.5360 N.3    70  ARG70      -0.1231
     73  CA        23.1520   17.8030   35.1490 C.3    70  ARG70       0.1694
     74  C         23.5290   16.5610   34.3150 C.2    70  ARG70       0.2591
     75  O         24.7100   16.2950   34.0900 O.2    70  ARG70      -0.2718
     76  CB        22.7580   17.3220   36.5630 C.3    70  ARG70       0.0321
     77  CG        22.7700   18.3780   37.6750 C.3    70  ARG70       0.0489
     78  CD        22.6840   17.7330   39.0730 C.3    70  ARG70       0.2205
     79  NE        21.5370   16.8340   39.2070 N.pl3  70  ARG70      -0.0865
     80  CZ        20.2890   17.2210   39.4640 C.cat  70  ARG70       0.5346
     81  NH1       19.9980   18.5070   39.6300 N.pl3  70  ARG70       0.1354
     82  NH2       19.3230   16.3140   39.5400 N.pl3  70  ARG70       0.1354
     83  N         22.5260   15.7960   33.8850 N.am   71  VAL71      -0.1980
     84  CA        22.7540   14.5850   33.0970 C.3    71  VAL71       0.1595
     85  C         23.4810   14.9250   31.8060 C.2    71  VAL71       0.2287
     86  O         24.5400   14.3590   31.5310 O.2    71  VAL71      -0.2864
     87  CB        21.4110   13.8560   32.7520 C.3    71  VAL71       0.0276
     88  CG1       21.6540   12.6820   31.8160 C.3    71  VAL71       0.0022
     89  CG2       20.7640   13.3470   34.0180 C.3    71  VAL71       0.0022
     90  N         26.6940   16.0150   32.0080 N.3    74  GLY74      -0.1210
     91  CA        27.5240   14.8720   32.3440 C.3    74  GLY74       0.1956
     92  C         28.1380   14.3350   31.0750 C.2    74  GLY74       0.2611
     93  O         29.3200   13.9870   31.0400 O.2    74  GLY74      -0.2717
     94  N         27.3100   14.2800   30.0300 N.am   75  LEU75      -0.1979
     95  CA        27.7070   13.8250   28.7060 C.3    75  LEU75       0.1596
     96  C         28.7560   14.7900   28.1950 C.2    75  LEU75       0.2287
     97  O         29.7440   14.3870   27.5880 O.2    75  LEU75      -0.2864
     98  CB        26.5010   13.8550   27.7850 C.3    75  LEU75       0.0297
     99  CG        26.6140   13.4080   26.3250 C.3    75  LEU75       0.0022
    100  CD1       27.0270   11.9430   26.2480 C.3    75  LEU75       0.0001
    101  CD2       25.2570   13.6370   25.6260 C.3    75  LEU75       0.0001
    102  N         32.0720   14.1310   29.4800 N.3    78  ALA78      -0.1245
    103  CA        32.6040   12.9430   28.8260 C.3    78  ALA78       0.1562
    104  C         33.1100   13.2470   27.4190 C.2    78  ALA78       0.2260
    105  O         34.2570   12.9460   27.0850 O.2    78  ALA78      -0.2867
    106  CB        31.5400   11.8400   28.7770 C.3    78  ALA78       0.0290
    107  N         31.2540    6.9260   37.0430 N.3    95  LEU95      -0.1245
    108  CA        29.8680    7.1770   36.6740 C.3    95  LEU95       0.1561
    109  C         29.1200    5.8550   36.5850 C.2    95  LEU95       0.2260
    110  O         27.8940    5.8110   36.7060 O.2    95  LEU95      -0.2867
    111  CB        29.7870    7.9160   35.3270 C.3    95  LEU95       0.0270
    112  CG        30.1710    9.4010   35.3210 C.3    95  LEU95       0.0019
    113  CD1       30.3090    9.8880   33.9040 C.3    95  LEU95       0.0001
    114  CD2       29.1240   10.2090   36.0580 C.3    95  LEU95       0.0001
    115  N         28.3180    4.7730   40.2040 N.3    98  GLN98      -0.1231
    116  CA        27.3300    5.7780   40.5810 C.3    98  GLN98       0.1698
    117  C         25.9350    5.5600   39.9610 C.2    98  GLN98       0.2592
    118  O         24.9380    6.0630   40.4780 O.2    98  GLN98      -0.2718
    119  CB        27.8560    7.1630   40.2020 C.3    98  GLN98       0.0381
    120  CG        27.0640    8.3270   40.7640 C.3    98  GLN98       0.0905
    121  CD        27.3180    9.6140   40.0010 C.2    98  GLN98       0.2608
    122  OE1       26.8570    9.7830   38.8650 O.2    98  GLN98      -0.2717
    123  NE2       28.0630   10.5260   40.6150 N.am   98  GLN98      -0.0878
    124  N         25.8570    4.8250   38.8550 N.am   99  HIS99      -0.1976
    125  CA        24.5640    4.5680   38.2160 C.3    99  HIS99       0.1656
    126  C         24.0180    3.1940   38.5770 C.2    99  HIS99       0.2291
    127  O         22.9310    2.8140   38.1350 O.2    99  HIS99      -0.2864
    128  CB        24.6650    4.6960   36.6860 C.3    99  HIS99       0.0771
    129  CG        24.2930    6.0510   36.1690 C.ar   99  HIS99       0.0820
    130  ND1       24.9810    7.1930   36.5200 N.ar   99  HIS99      -0.2267
    131  CD2       23.2820    6.4560   35.3590 C.ar   99  HIS99       0.1154
    132  CE1       24.4080    8.2420   35.9530 C.ar   99  HIS99       0.1986
    133  NE2       23.3730    7.8250   35.2410 N.ar   99  HIS99      -0.2212
    134  N         21.5120    3.0420   41.7790 N.3   102  ARG102     -0.1231
    135  CA        20.1830    3.5350   41.4460 C.3   102  ARG102      0.1694
    136  C         19.4040    2.3230   40.9590 C.2   102  ARG102      0.2592
    137  O         20.0030    1.3510   40.5050 O.2   102  ARG102     -0.2718
    138  CB        20.2720    4.6210   40.3770 C.3   102  ARG102      0.0321
    139  CG        20.4470    6.0020   40.9580 C.3   102  ARG102      0.0489
    140  CD        19.1800    6.3820   41.7020 C.3   102  ARG102      0.2205
    141  NE        19.2740    7.6520   42.4130 N.pl3 102  ARG102     -0.0865
    142  CZ        18.2320    8.4450   42.6430 C.cat 102  ARG102      0.5346
    143  NH1       18.3900    9.5820   43.3010 N.pl3 102  ARG102      0.1354
    144  NH2       17.0310    8.1020   42.1990 N.pl3 102  ARG102      0.1354
    145  N         18.0820    2.3550   41.0530 N.am  103  ALA103     -0.1966
    146  CA        17.3030    1.1810   40.6660 C.3   103  ALA103      0.1728
    147  C         16.5220    1.2130   39.3470 C.2   103  ALA103      0.2617
    148  O         15.9400    2.2380   38.9740 O.2   103  ALA103     -0.2715
    149  CB        16.3640    0.8150   41.8150 C.3   103  ALA103      0.0334
    150  N         16.5090    0.0760   38.6480 N.am  104  GLY104     -0.1940
    151  CA        15.7890   -0.0180   37.3850 C.3   104  GLY104      0.2014
    152  C         16.5610    0.6320   36.2530 C.2   104  GLY104      0.2638
    153  O         16.0610    0.8000   35.1340 O.2   104  GLY104     -0.2714
    154  N         17.7910    1.0200   36.5760 N.am  105  VAL105     -0.1977
    155  CA        18.7120    1.6360   35.6320 C.3   105  VAL105      0.1596
    156  C         19.3200    0.4800   34.8670 C.2   105  VAL105      0.2287
    157  O         20.0420   -0.3380   35.4290 O.2   105  VAL105     -0.2864
    158  CB        19.8300    2.4040   36.3800 C.3   105  VAL105      0.0276
    159  CG1       21.0610    2.5440   35.4830 C.3   105  VAL105      0.0022
    160  CG2       19.2960    3.7620   36.8590 C.3   105  VAL105      0.0022
    161  N         18.1700    1.0040   29.4340 N.3   109  GLY109     -0.1210
    162  CA        17.6860    2.3280   29.7580 C.3   109  GLY109      0.1956
    163  C         18.4140    3.2990   28.8520 C.2   109  GLY109      0.2611
    164  O         17.8080    4.1460   28.1900 O.2   109  GLY109     -0.2717
    165  N         19.7350    3.1550   28.8190 N.am  110  PHE110     -0.1976
    166  CA        20.5850    3.9940   27.9950 C.3   110  PHE110      0.1639
    167  C         20.2050    3.8680   26.5210 C.2   110  PHE110      0.2290
    168  O         19.9510    4.8720   25.8570 O.2   110  PHE110     -0.2864
    169  CB        22.0470    3.6070   28.2320 C.3   110  PHE110      0.0560
    170  CG        22.5630    4.0200   29.5820 C.ar  110  PHE110     -0.0200
    171  CD1       23.4730    5.0630   29.7050 C.ar  110  PHE110     -0.0042
    172  CD2       22.1030    3.4030   30.7410 C.ar  110  PHE110     -0.0042
    173  CE1       23.9150    5.4880   30.9650 C.ar  110  PHE110     -0.0003
    174  CE2       22.5380    3.8240   32.0070 C.ar  110  PHE110     -0.0003
    175  CZ        23.4430    4.8660   32.1170 C.ar  110  PHE110     -0.0000
    176  N         17.5010    6.3360   25.8050 N.3   113  ILE113     -0.1245
    177  CA        17.9200    7.7310   25.8470 C.3   113  ILE113      0.1561
    178  C         18.9370    7.9530   24.7260 C.2   113  ILE113      0.2260
    179  O         19.3340    9.0780   24.4410 O.2   113  ILE113     -0.2867
    180  CB        18.5330    8.0940   27.2560 C.3   113  ILE113      0.0252
    181  CG1       18.1950    9.5430   27.6130 C.3   113  ILE113      0.0019
    182  CG2       20.0650    7.8620   27.2810 C.3   113  ILE113      0.0019
    183  CD1       18.9850   10.0720   28.8050 C.3   113  ILE113      0.0001
    184  N         18.5810   10.8830   21.9390 N.3   117  PHE117     -0.1241
    185  CA        19.5260   11.8420   21.3880 C.3   117  PHE117      0.1605
    186  C         19.5340   11.8180   19.8460 C.2   117  PHE117      0.2264
    187  O         19.4450   12.8600   19.2030 O.2   117  PHE117     -0.2867
    188  CB        20.9250   11.5570   21.9400 C.3   117  PHE117      0.0534
    189  CG        21.1880   12.1680   23.2880 C.ar  117  PHE117     -0.0203
    190  CD1       21.3070   13.5440   23.4340 C.ar  117  PHE117     -0.0042
    191  CD2       21.3490   11.3680   24.4160 C.ar  117  PHE117     -0.0042
    192  CE1       21.5900   14.1200   24.6880 C.ar  117  PHE117     -0.0003
    193  CE2       21.6300   11.9350   25.6740 C.ar  117  PHE117     -0.0003
    194  CZ        21.7510   13.3120   25.8080 C.ar  117  PHE117     -0.0000
    195  N         28.7470    7.9380   21.1980 N.3   137  PHE137     -0.1241
    196  CA        27.8030    8.0650   22.3040 C.3   137  PHE137      0.1605
    197  C         27.8620    6.6990   22.9850 C.2   137  PHE137      0.2264
    198  O         27.9150    6.5960   24.2070 O.2   137  PHE137     -0.2867
    199  CB        26.3780    8.3370   21.8020 C.3   137  PHE137      0.0534
    200  CG        25.3680    8.4680   22.9060 C.ar  137  PHE137     -0.0203
    201  CD1       25.4830    9.4880   23.8500 C.ar  137  PHE137     -0.0042
    202  CD2       24.3320    7.5470   23.0320 C.ar  137  PHE137     -0.0042
    203  CE1       24.5890    9.5850   24.9040 C.ar  137  PHE137     -0.0003
    204  CE2       23.4290    7.6350   24.0860 C.ar  137  PHE137     -0.0003
    205  CZ        23.5610    8.6550   25.0220 C.ar  137  PHE137     -0.0000
    206  N         30.8330    5.9140   25.0830 N.3   140  ILE140     -0.1231
    207  CA        30.6950    6.4660   26.4180 C.3   140  ILE140      0.1692
    208  C         29.7890    5.6430   27.3270 C.2   140  ILE140      0.2592
    209  O         30.1520    5.3870   28.4660 O.2   140  ILE140     -0.2718
    210  CB        30.1540    7.9110   26.4000 C.3   140  ILE140      0.0266
    211  CG1       31.0860    8.8060   25.5710 C.3   140  ILE140      0.0019
    212  CG2       30.0250    8.4270   27.8490 C.3   140  ILE140      0.0020
    213  CD1       30.8280   10.3050   25.7070 C.3   140  ILE140      0.0001
    214  N         28.6220    5.2290   26.8360 N.am  141  THR141     -0.1953
    215  CA        27.6960    4.4490   27.6610 C.3   141  THR141      0.1897
    216  C         28.1920    3.0430   27.9900 C.2   141  THR141      0.2313
    217  O         27.8140    2.4780   29.0150 O.2   141  THR141     -0.2863
    218  CB        26.2840    4.3380   27.0210 C.3   141  THR141      0.1794
    219  OG1       26.3370    3.5510   25.8310 O.3   141  THR141     -0.2208
    220  CG2       25.7510    5.7090   26.6810 C.3   141  THR141      0.0378
    221  N         29.6930    3.2600   31.0890 N.3   144  MET144     -0.1245
    222  CA        28.8000    3.6110   32.1780 C.3   144  MET144      0.1570
    223  C         28.0420    2.3690   32.6260 C.2   144  MET144      0.2261
    224  O         27.9630    2.0760   33.8200 O.2   144  MET144     -0.2867
    225  CB        27.8070    4.6930   31.7430 C.3   144  MET144      0.0387
    226  CG        28.4320    6.0460   31.4580 C.3   144  MET144      0.0595
    227  SD        27.2120    7.3780   31.3620 S.3   144  MET144     -0.1393
    228  CE        27.6950    8.3670   32.7770 C.3   144  MET144      0.0692
@<TRIPOS>BOND
     1   187   186    2
     2   186   185    1
     3   195   196    1
     4   185   184    1
     5   185   188    1
     6   199   196    1
     7   199   200    1
     8   188   189    1
     9   196   197    1
    10   200   202   ar
    11   200   201   ar
    12   197   198    2
    13   202   204   ar
    14   189   190   ar
    15   189   191   ar
    16   190   192   ar
    17   201   203   ar
    18   204   205   ar
    19   191   193   ar
    20   179   178    2
    21   192   194   ar
    22   178   177    1
    23   203   205   ar
    24   206   207    1
    25   211   213    1
    26   211   210    1
    27   101    99    1
    28   193   194   ar
    29   176   177    1
    30   219   218    1
    31   177   180    1
    32   168   167    2
    33    12    13    1
    34   100    99    1
    35    99    98    1
    36   210   207    1
    37   210   212    1
    38   207   208    1
    39    13    14    1
    40    13    16    1
    41   167   166    1
    42    15    14    2
    43   220   218    1
    44   214   208   am
    45   214   215    1
    46   218   215    1
    47   105   104    2
    48   180   182    1
    49   180   181    1
    50   208   209    2
    51   104   103    1
    52    18    17    1
    53    97    96    2
    54     1     2    1
    55   181   183    1
    56    16    17    1
    57   215   216    1
    58    98    95    1
    59   216   217    2
    60   166   169    1
    61   166   165    1
    62     3     4    2
    63     3     2    1
    64   164   163    2
    65    96    95    1
    66   169   170    1
    67    17    19    1
    68     2     5    1
    69    95    94    1
    70   106   103    1
    71   165   163   am
    72   103   102    1
    73   163   162    1
    74   161   162    1
    75   170   171   ar
    76   170   172   ar
    77   171   173   ar
    78     5     6    1
    79    94    92   am
    80     6     8   ar
    81     6     7   ar
    82   172   174   ar
    83   173   175   ar
    84    93    92    2
    85     8    10   ar
    86    92    91    1
    87   221   222    1
    88     7     9   ar
    89   227   226    1
    90   227   228    1
    91   226   225    1
    92    86    85    2
    93   225   222    1
    94    10    11   ar
    95    85    84    1
    96    88    87    1
    97     9    11   ar
    98    24    21    1
    99   174   175   ar
   100    90    91    1
   101   222   223    1
   102   223   224    2
   103    87    84    1
   104    87    89    1
   105    84    83    1
   106    20    21    1
   107    21    22    1
   108    83    74   am
   109   113   112    1
   110    22    23    2
   111    75    74    2
   112    42    43   ar
   113    42    40   ar
   114    74    73    1
   115    43    41   ar
   116    72    73    1
   117   156   157    2
   118   156   155    1
   119    31    30    1
   120    65    64    2
   121   153   152    2
   122    73    76    1
   123    40    38   ar
   124   133   131   ar
   125   133   132   ar
   126   112   111    1
   127   112   114    1
   128   111   108    1
   129    64    63    1
   130   131   129   ar
   131    41    39   ar
   132   159   158    1
   133    71    69   ar
   134    71    70   ar
   135    69    67   ar
   136   155   158    1
   137   155   154    1
   138   132   130   ar
   139    38    39   ar
   140    38    37    1
   141   129   130   ar
   142   129   128    1
   143   152   154   am
   144   152   151    1
   145    30    29    1
   146    30    32    1
   147   158   160    1
   148    70    68   ar
   149    76    77    1
   150    67    66    1
   151    67    68   ar
   152   109   108    1
   153   109   110    2
   154   108   107    1
   155   128   125    1
   156    63    66    1
   157    63    62    1
   158    29    26    1
   159    37    34    1
   160   151   150    1
   161    77    78    1
   162    25    26    1
   163    33    34    1
   164    33    27   am
   165    26    27    1
   166   127   126    2
   167   125   126    1
   168   125   124    1
   169    34    35    1
   170    27    28    2
   171   150   147   am
   172    36    35    2
   173   124   117   am
   174   122   121    2
   175    58    57    2
   176   148   147    2
   177    78    79    1
   178    79    80    2
   179    61    59    1
   180   147   146    1
   181    80    82    1
   182    80    81    1
   183   117   118    2
   184   117   116    1
   185    59    60    1
   186    59    56    1
   187   121   123   am
   188   121   120    1
   189    57    56    1
   190   119   116    1
   191   119   120    1
   192   115   116    1
   193   138   139    1
   194   138   135    1
   195   137   136    2
   196   146   145    1
   197   146   149    1
   198    56    55    1
   199   139   140    1
   200   136   145   am
   201   136   135    1
   202   135   134    1
   203    55    46   am
   204   140   141    1
   205   144   142    1
   206   141   142    2
   207   142   143    1
   208    44    45    1
   209    46    47    2
   210    46    45    1
   211    45    48    1
   212    48    49    1
   213    53    52    1
   214    51    52    2
   215    51    50    1
   216    52    54    1
   217    49    50    1
