@<TRIPOS>MOLECULE
tmp/3wcuF00.pdb
 222 210 0 0 0
SMALL
GASTEIGER

@<TRIPOS>ATOM
      1  N         43.9850   23.5130   40.1320 N.3    33  TRP33      -0.1241
      2  CA        44.3870   22.7020   41.2630 C.3    33  TRP33       0.1605
      3  C         45.8670   22.8100   41.5810 C.2    33  TRP33       0.2264
      4  O         46.2550   22.7030   42.7320 O.2    33  TRP33      -0.2867
      5  CB        44.0260   21.2470   41.0330 C.3    33  TRP33       0.0550
      6  CG        42.5680   21.0380   40.9780 C.ar   33  TRP33       0.0003
      7  CD1       41.8180   20.8350   39.8660 C.ar   33  TRP33       0.0946
      8  CD2       41.6600   21.0260   42.0880 C.ar   33  TRP33       0.0152
      9  NE1       40.4950   20.6930   40.2060 N.ar   33  TRP33      -0.2442
     10  CE2       40.3690   20.8060   41.5660 C.ar   33  TRP33       0.0810
     11  CE3       41.8120   21.1790   43.4760 C.ar   33  TRP33       0.0012
     12  CZ2       39.2330   20.7340   42.3780 C.ar   33  TRP33       0.0191
     13  CZ3       40.6880   21.1090   44.2810 C.ar   33  TRP33       0.0001
     14  CH2       39.4140   20.8870   43.7290 C.ar   33  TRP33       0.0015
     15  N         45.6560   25.6250   43.8880 N.3    36  VAL36      -0.1245
     16  CA        44.9310   25.3280   45.1200 C.3    36  VAL36       0.1561
     17  C         45.8910   24.6460   46.1130 C.2    36  VAL36       0.2260
     18  O         46.1140   25.1380   47.2220 O.2    36  VAL36      -0.2867
     19  CB        43.7190   24.3910   44.8080 C.3    36  VAL36       0.0252
     20  CG1       43.3370   23.5810   46.0120 C.3    36  VAL36       0.0019
     21  CG2       42.5330   25.2180   44.3790 C.3    36  VAL36       0.0019
     22  N         44.7710   21.0520   51.9780 N.3    43  ALA43      -0.1245
     23  CA        43.5420   20.6200   51.3310 C.3    43  ALA43       0.1562
     24  C         43.5630   19.2570   50.6610 C.2    43  ALA43       0.2260
     25  O         42.5470   18.5600   50.6600 O.2    43  ALA43      -0.2867
     26  CB        43.0970   21.6760   50.3230 C.3    43  ALA43       0.0290
     27  N         41.6490   15.9190   51.5670 N.3    46  MET46      -0.1230
     28  CA        40.2200   15.7040   51.3590 C.3    46  MET46       0.1702
     29  C         39.9590   14.9360   50.0730 C.2    46  MET46       0.2592
     30  O         38.9160   14.3050   49.9070 O.2    46  MET46      -0.2718
     31  CB        39.5010   17.0480   51.3100 C.3    46  MET46       0.0401
     32  CG        39.7730   17.8880   52.5310 C.3    46  MET46       0.0596
     33  SD        38.8900   19.4350   52.5210 S.3    46  MET46      -0.1393
     34  CE        37.2520   18.8810   53.0160 C.3    46  MET46       0.0692
     35  N         40.9230   14.9930   49.1660 N.am   47  PHE47      -0.1976
     36  CA        40.8110   14.3170   47.8840 C.3    47  PHE47       0.1639
     37  C         41.6530   13.0550   47.9260 C.2    47  PHE47       0.2290
     38  O         42.3190   12.7000   46.9550 O.2    47  PHE47      -0.2864
     39  CB        41.2850   15.2610   46.7760 C.3    47  PHE47       0.0560
     40  CG        40.6720   16.6250   46.8660 C.ar   47  PHE47      -0.0200
     41  CD1       39.3230   16.8140   46.5710 C.ar   47  PHE47      -0.0042
     42  CD2       41.4270   17.7150   47.3090 C.ar   47  PHE47      -0.0042
     43  CE1       38.7290   18.0630   46.7180 C.ar   47  PHE47      -0.0003
     44  CE2       40.8400   18.9810   47.4630 C.ar   47  PHE47      -0.0003
     45  CZ        39.4840   19.1540   47.1670 C.ar   47  PHE47      -0.0000
     46  N         40.5210   10.0230   48.2040 N.3    49  ARG49      -0.1231
     47  CA        39.9000    8.9800   47.3850 C.3    49  ARG49       0.1694
     48  C         40.1060    9.1530   45.8680 C.2    49  ARG49       0.2591
     49  O         39.9260    8.2240   45.0870 O.2    49  ARG49      -0.2718
     50  CB        38.4080    8.8950   47.6810 C.3    49  ARG49       0.0321
     51  CG        37.7160    7.6850   47.0560 C.3    49  ARG49       0.0489
     52  CD        36.2120    7.8150   47.1650 C.3    49  ARG49       0.2205
     53  NE        35.6920    8.7700   46.1950 N.pl3  49  ARG49      -0.0865
     54  CZ        35.5770    8.5130   44.8970 C.cat  49  ARG49       0.5346
     55  NH1       35.9430    7.3270   44.4270 N.pl3  49  ARG49       0.1354
     56  NH2       35.1060    9.4360   44.0720 N.pl3  49  ARG49       0.1354
     57  N         40.4990   10.3730   45.4580 N.am   50  VAL50      -0.1980
     58  CA        40.7680   10.7360   44.0790 C.3    50  VAL50       0.1595
     59  C         42.2400   11.1680   43.8990 C.2    50  VAL50       0.2287
     60  O         42.5620   12.1260   43.2120 O.2    50  VAL50      -0.2864
     61  CB        39.8430   11.8830   43.6700 C.3    50  VAL50       0.0276
     62  CG1       38.4740   11.3690   43.3480 C.3    50  VAL50       0.0022
     63  CG2       39.7930   12.8920   44.7820 C.3    50  VAL50       0.0022
     64  N         38.5750   13.6290   38.6280 N.3    63  HIS63      -0.1241
     65  CA        37.9540   14.3450   39.7420 C.3    63  HIS63       0.1621
     66  C         37.7670   15.8120   39.3740 C.2    63  HIS63       0.2264
     67  O         36.6380   16.3340   39.4020 O.2    63  HIS63      -0.2867
     68  CB        38.8150   14.2540   41.0130 C.3    63  HIS63       0.0745
     69  CG        38.4210   15.2350   42.0760 C.ar   63  HIS63       0.0817
     70  ND1       37.1900   15.2030   42.6980 N.ar   63  HIS63      -0.2268
     71  CD2       39.0560   16.3330   42.5530 C.ar   63  HIS63       0.1154
     72  CE1       37.0820   16.2460   43.5030 C.ar   63  HIS63       0.1986
     73  NE2       38.1980   16.9480   43.4330 N.ar   63  HIS63      -0.2212
     74  N         35.1720   16.4690   37.2180 N.3    66  ARG66      -0.1231
     75  CA        33.8920   16.4310   37.9450 C.3    66  ARG66       0.1694
     76  C         33.6080   17.7510   38.6720 C.2    66  ARG66       0.2591
     77  O         32.4740   18.2470   38.6610 O.2    66  ARG66      -0.2718
     78  CB        33.8930   15.2670   38.9430 C.3    66  ARG66       0.0321
     79  CG        32.8970   14.1450   38.6260 C.3    66  ARG66       0.0489
     80  CD        33.5090   12.7890   38.9470 C.3    66  ARG66       0.2205
     81  NE        34.3070   12.8560   40.1660 N.pl3  66  ARG66      -0.0865
     82  CZ        35.4330   12.1780   40.3670 C.cat  66  ARG66       0.5346
     83  NH1       36.0890   12.3150   41.5150 N.pl3  66  ARG66       0.1354
     84  NH2       35.9070   11.3700   39.4230 N.pl3  66  ARG66       0.1354
     85  N         34.6410   18.3180   39.2910 N.am   67  VAL67      -0.1980
     86  CA        34.5000   19.5930   39.9950 C.3    67  VAL67       0.1595
     87  C         34.1710   20.7320   39.0260 C.2    67  VAL67       0.2287
     88  O         33.0600   21.2770   39.0620 O.2    67  VAL67      -0.2864
     89  CB        35.7920   19.9820   40.7640 C.3    67  VAL67       0.0276
     90  CG1       35.6650   21.3910   41.3180 C.3    67  VAL67       0.0022
     91  CG2       36.0510   18.9940   41.8920 C.3    67  VAL67       0.0022
     92  N         31.0630   20.8490   37.5140 N.3    70  GLY70      -0.1210
     93  CA        29.9810   21.3550   38.3350 C.3    70  GLY70       0.1956
     94  C         29.9650   22.8750   38.3430 C.2    70  GLY70       0.2611
     95  O         28.9070   23.5080   38.2230 O.2    70  GLY70      -0.2717
     96  N         31.1510   23.4640   38.4760 N.am   71  LEU71      -0.1979
     97  CA        31.2740   24.9130   38.5030 C.3    71  LEU71       0.1596
     98  C         30.5550   25.4470   37.2820 C.2    71  LEU71       0.2287
     99  O         29.9280   26.5050   37.3310 O.2    71  LEU71      -0.2864
    100  CB        32.7510   25.3390   38.4690 C.3    71  LEU71       0.0297
    101  CG        33.1460   26.5810   39.2890 C.3    71  LEU71       0.0022
    102  CD1       34.6170   26.9270   39.0220 C.3    71  LEU71       0.0001
    103  CD2       32.2260   27.7620   38.9720 C.3    71  LEU71       0.0001
    104  N         26.6700   25.5780   37.4740 N.3    74  CYS74      -0.1235
    105  CA        26.3090   26.7650   38.2320 C.3    74  CYS74       0.1677
    106  C         26.4130   28.0610   37.4400 C.2    74  CYS74       0.2270
    107  O         25.4210   28.7930   37.3210 O.2    74  CYS74      -0.2867
    108  CB        27.1680   26.8630   39.5040 C.3    74  CYS74       0.0956
    109  SG        26.8140   25.6020   40.7640 S.3    74  CYS74      -0.0801
    110  N         23.9960   20.7030   45.6670 N.3    91  LEU91      -0.1245
    111  CA        25.4460   20.6360   45.8400 C.3    91  LEU91       0.1561
    112  C         25.8210   20.7920   47.3050 C.2    91  LEU91       0.2260
    113  O         26.8480   20.2800   47.7450 O.2    91  LEU91      -0.2867
    114  CB        26.1540   21.7460   45.0470 C.3    91  LEU91       0.0270
    115  CG        26.7840   21.5350   43.6660 C.3    91  LEU91       0.0019
    116  CD1       27.6510   22.7480   43.3790 C.3    91  LEU91       0.0001
    117  CD2       27.6390   20.2790   43.6190 C.3    91  LEU91       0.0001
    118  N         25.8690   17.7870   49.3170 N.3    94  GLN94      -0.1231
    119  CA        26.9500   16.9060   48.8990 C.3    94  GLN94       0.1698
    120  C         28.3110   17.2650   49.4800 C.2    94  GLN94       0.2592
    121  O         29.2190   16.4370   49.4540 O.2    94  GLN94      -0.2718
    122  CB        27.0630   16.8840   47.3720 C.3    94  GLN94       0.0381
    123  CG        26.3580   15.7220   46.6880 C.3    94  GLN94       0.0905
    124  CD        26.5490   15.7510   45.1820 C.2    94  GLN94       0.2608
    125  OE1       27.6330   16.0700   44.6960 O.2    94  GLN94      -0.2717
    126  NE2       25.5030   15.4080   44.4380 N.am   94  GLN94      -0.0878
    127  N         28.4640   18.4830   49.9970 N.am   95  HIS95      -0.1976
    128  CA        29.7520   18.9190   50.5550 C.3    95  HIS95       0.1656
    129  C         29.7200   19.1310   52.0750 C.2    95  HIS95       0.2291
    130  O         30.6740   19.6540   52.6640 O.2    95  HIS95      -0.2864
    131  CB        30.2270   20.2130   49.8520 C.3    95  HIS95       0.0771
    132  CG        30.7050   20.0080   48.4390 C.ar   95  HIS95       0.0820
    133  ND1       29.8930   19.5200   47.4380 N.ar   95  HIS95      -0.2267
    134  CD2       31.9180   20.2090   47.8700 C.ar   95  HIS95       0.1154
    135  CE1       30.5860   19.4270   46.3170 C.ar   95  HIS95       0.1986
    136  NE2       31.8190   19.8390   46.5500 N.ar   95  HIS95      -0.2212
    137  N         31.5660   16.2800   53.8610 N.3    98  ARG98      -0.1245
    138  CA        32.9660   16.3880   53.4670 C.3    98  ARG98       0.1563
    139  C         33.7040   17.3920   54.3460 C.2    98  ARG98       0.2260
    140  O         34.9090   17.5790   54.2020 O.2    98  ARG98      -0.2867
    141  CB        33.0710   16.8050   51.9940 C.3    98  ARG98       0.0307
    142  CG        32.2740   15.9240   51.0310 C.3    98  ARG98       0.0489
    143  CD        32.5350   16.3060   49.5750 C.3    98  ARG98       0.2205
    144  NE        31.6310   15.6540   48.6200 N.pl3  98  ARG98      -0.0865
    145  CZ        31.5420   14.3400   48.4310 C.cat  98  ARG98       0.5346
    146  NH1       30.6870   13.8560   47.5380 N.pl3  98  ARG98       0.1354
    147  NH2       32.3040   13.5100   49.1330 N.pl3  98  ARG98       0.1354
    148  N         33.9700   20.8310   54.6200 N.3   100  VAL100     -0.1245
    149  CA        34.7710   21.8280   53.9270 C.3   100  VAL100      0.1561
    150  C         34.6630   23.1960   54.5950 C.2   100  VAL100      0.2260
    151  O         33.5620   23.7140   54.7920 O.2   100  VAL100     -0.2867
    152  CB        34.3310   21.9530   52.4490 C.3   100  VAL100      0.0252
    153  CG1       35.2360   22.9230   51.7230 C.3   100  VAL100      0.0019
    154  CG2       34.3600   20.5880   51.7770 C.3   100  VAL100      0.0019
    155  N         38.2120   27.4230   52.5610 N.3   104  GLN104     -0.1231
    156  CA        38.6450   26.6400   51.4150 C.3   104  GLN104      0.1698
    157  C         37.8170   26.9610   50.1690 C.2   104  GLN104      0.2592
    158  O         38.3270   26.9330   49.0500 O.2   104  GLN104     -0.2718
    159  CB        38.5660   25.1550   51.7640 C.3   104  GLN104      0.0381
    160  CG        39.5010   24.7840   52.9030 C.3   104  GLN104      0.0905
    161  CD        39.4540   23.3110   53.2560 C.2   104  GLN104      0.2608
    162  OE1       38.3990   22.7810   53.6160 O.2   104  GLN104     -0.2717
    163  NE2       40.6020   22.6410   53.1610 N.am  104  GLN104     -0.0878
    164  N         36.5410   27.2690   50.3660 N.am  105  TYR105     -0.1976
    165  CA        35.6730   27.6270   49.2550 C.3   105  TYR105      0.1639
    166  C         36.1390   28.9750   48.7230 C.2   105  TYR105      0.2290
    167  O         35.5520   29.5080   47.7870 O.2   105  TYR105     -0.2864
    168  CB        34.2190   27.7530   49.7190 C.3   105  TYR105      0.0560
    169  CG        33.4870   26.4460   49.9340 C.ar  105  TYR105     -0.0198
    170  CD1       32.8640   25.7900   48.8780 C.ar  105  TYR105     -0.0009
    171  CD2       33.4020   25.8750   51.2030 C.ar  105  TYR105     -0.0009
    172  CE1       32.1710   24.5970   49.0810 C.ar  105  TYR105      0.0417
    173  CE2       32.7150   24.6870   51.4140 C.ar  105  TYR105      0.0417
    174  CZ        32.1020   24.0500   50.3520 C.ar  105  TYR105      0.1957
    175  OH        31.4290   22.8630   50.5620 O.3   105  TYR105     -0.2866
    176  N         39.7990   28.0700   46.4300 N.3   108  VAL108     -0.1231
    177  CA        39.4640   27.4530   45.1570 C.3   108  VAL108      0.1692
    178  C         38.8940   28.5640   44.2810 C.2   108  VAL108      0.2591
    179  O         39.1340   28.6060   43.0770 O.2   108  VAL108     -0.2718
    180  CB        38.4200   26.3090   45.3470 C.3   108  VAL108      0.0266
    181  CG1       37.2730   26.4420   44.3410 C.3   108  VAL108      0.0020
    182  CG2       39.1000   24.9570   45.1950 C.3   108  VAL108      0.0020
    183  N         38.1390   29.4690   44.8930 N.am  109  GLU109     -0.1979
    184  CA        37.5740   30.5880   44.1550 C.3   109  GLU109      0.1602
    185  C         38.7150   31.3300   43.4680 C.2   109  GLU109      0.2287
    186  O         38.6710   31.5880   42.2670 O.2   109  GLU109     -0.2864
    187  CB        36.8510   31.5530   45.0990 C.3   109  GLU109      0.0415
    188  CG        35.4320   31.1670   45.4670 C.3   109  GLU109      0.1163
    189  CD        34.7630   32.2100   46.3540 C.2   109  GLU109      0.3649
    190  OE1       34.8700   33.4110   46.0270 O.co2 109  GLU109     -0.2457
    191  OE2       34.1270   31.8370   47.3680 O.co2 109  GLU109     -0.2457
    192  N         31.3210   34.5600   41.8290 N.3   134  LEU134     -0.1245
    193  CA        31.8610   33.2950   42.3380 C.3   134  LEU134      0.1561
    194  C         31.3960   33.0960   43.7900 C.2   134  LEU134      0.2260
    195  O         30.9570   32.0060   44.1600 O.2   134  LEU134     -0.2867
    196  CB        33.3990   33.2700   42.2600 C.3   134  LEU134      0.0270
    197  CG        34.1090   32.5890   41.0720 C.3   134  LEU134      0.0019
    198  CD1       35.6090   32.8360   41.1640 C.3   134  LEU134      0.0001
    199  CD2       33.8340   31.0940   41.0670 C.3   134  LEU134      0.0001
    200  N         28.0630   31.5720   44.2180 N.3   137  ILE137     -0.1231
    201  CA        27.9990   30.1410   43.9540 C.3   137  ILE137      0.1692
    202  C         28.4890   29.3230   45.1440 C.2   137  ILE137      0.2592
    203  O         27.9980   28.2200   45.3830 O.2   137  ILE137     -0.2718
    204  CB        28.8040   29.7630   42.6760 C.3   137  ILE137      0.0266
    205  CG1       28.0480   30.2480   41.4400 C.3   137  ILE137      0.0019
    206  CG2       29.0040   28.2510   42.5820 C.3   137  ILE137      0.0020
    207  CD1       28.6850   29.8250   40.1500 C.3   137  ILE137      0.0001
    208  N         29.4460   29.8660   45.8920 N.am  138  THR138     -0.1953
    209  CA        29.9830   29.1710   47.0620 C.3   138  THR138      0.1897
    210  C         29.0840   29.3430   48.3000 C.2   138  THR138      0.2313
    211  O         28.9250   28.4170   49.1050 O.2   138  THR138     -0.2863
    212  CB        31.4430   29.6320   47.3820 C.3   138  THR138      0.1794
    213  OG1       31.5330   31.0630   47.3680 O.3   138  THR138     -0.2208
    214  CG2       32.4070   29.0670   46.3590 C.3   138  THR138      0.0378
    215  N         26.6610   26.5270   48.2420 N.3   141  ILE141     -0.1245
    216  CA        27.1470   25.1700   48.4500 C.3   141  ILE141      0.1561
    217  C         27.3480   25.0350   49.9480 C.2   141  ILE141      0.2260
    218  O         27.2250   23.9510   50.5190 O.2   141  ILE141     -0.2867
    219  CB        28.4890   24.9510   47.7340 C.3   141  ILE141      0.0252
    220  CG1       28.3480   25.3600   46.2690 C.3   141  ILE141      0.0019
    221  CG2       28.9110   23.4860   47.8340 C.3   141  ILE141      0.0019
    222  CD1       29.6430   25.4110   45.5260 C.3   141  ILE141      0.0001
@<TRIPOS>BOND
     1    74    75    1
     2    98    99    2
     3    98    97    1
     4   107   106    2
     5   106   105    1
     6   104   105    1
     7    92    93    1
     8    75    76    1
     9    75    78    1
    10    95    94    2
    11   105   108    1
    12    93    94    1
    13    94    96   am
    14   100    97    1
    15   100   101    1
    16    96    97    1
    17    79    78    1
    18    79    80    1
    19    64    65    1
    20    77    76    2
    21    76    85   am
    22    80    81    1
    23   103   101    1
    24   102   101    1
    25    87    88    2
    26    87    86    1
    27    85    86    1
    28    66    67    2
    29    66    65    1
    30    84    82    1
    31   108   109    1
    32    65    68    1
    33     7     9   ar
    34     7     6   ar
    35    86    89    1
    36     1     2    1
    37   207   205    1
    38    81    82    2
    39     9    10   ar
    40    82    83    1
    41    89    90    1
    42    89    91    1
    43     6     5    1
    44     6     8   ar
    45    68    69    1
    46     5     2    1
    47   199   197    1
    48   197   198    1
    49   197   196    1
    50     2     3    1
    51   205   204    1
    52    10     8   ar
    53    10    12   ar
    54     3     4    2
    55   192   193    1
    56    69    71   ar
    57    69    70   ar
    58     8    11   ar
    59   196   193    1
    60   186   185    2
    61   193   194    1
    62    12    14   ar
    63    71    73   ar
    64   206   204    1
    65   204   201    1
    66    70    72   ar
    67   179   178    2
    68    60    59    2
    69    62    61    1
    70   116   115    1
    71    73    72   ar
    72   185   184    1
    73    11    13   ar
    74   117   115    1
    75   115   114    1
    76    61    58    1
    77    61    63    1
    78    14    13   ar
    79   194   195    2
    80    15    16    1
    81    59    58    1
    82   201   200    1
    83   201   202    1
    84    56    54    1
    85    58    57    1
    86   184   183    1
    87   184   187    1
    88   178   183   am
    89   178   177    1
    90   181   180    1
    91    21    19    1
    92    55    54    1
    93   126   124   am
    94   125   124    2
    95    19    16    1
    96    19    20    1
    97    54    53    2
    98   114   111    1
    99    49    48    2
   100   187   188    1
   101    16    17    1
   102   202   203    2
   103   202   208   am
   104   177   180    1
   105   177   176    1
   106   124   123    1
   107   182   180    1
   108    57    48   am
   109   188   189    1
   110   222   220    1
   111   110   111    1
   112   111   112    1
   113    48    47    1
   114   208   209    1
   115   190   189   ar
   116    17    18    2
   117    53    52    1
   118   220   219    1
   119   135   136   ar
   120   135   133   ar
   121   189   191   ar
   122   214   212    1
   123   136   134   ar
   124    41    43   ar
   125    41    40   ar
   126   123   122    1
   127    43    45   ar
   128    39    40    1
   129    39    36    1
   130    40    42   ar
   131    38    37    2
   132    51    52    1
   133    51    50    1
   134   209   212    1
   135   209   210    1
   136    45    44   ar
   137   112   113    2
   138    42    44   ar
   139   213   212    1
   140   122   119    1
   141    47    50    1
   142    47    46    1
   143   133   132   ar
   144   146   145    1
   145   219   221    1
   146   219   216    1
   147   167   166    2
   148   134   132   ar
   149    36    37    1
   150    36    35    1
   151   215   216    1
   152   210   211    2
   153   145   144    2
   154   145   147    1
   155   132   131    1
   156   216   217    1
   157   144   143    1
   158   166   165    1
   159   170   172   ar
   160   170   169   ar
   161   119   118    1
   162   119   120    1
   163   158   157    2
   164   172   174   ar
   165    35    29   am
   166   165   168    1
   167   165   164    1
   168   121   120    2
   169   120   127   am
   170   143   142    1
   171   168   169    1
   172   131   128    1
   173    30    29    2
   174   169   171   ar
   175   217   218    2
   176   127   128    1
   177    29    28    1
   178   157   164   am
   179   157   156    1
   180    26    23    1
   181   174   175    1
   182   174   173   ar
   183   128   129    1
   184    25    24    2
   185    24    23    1
   186   142   141    1
   187   171   173   ar
   188    31    28    1
   189    31    32    1
   190    23    22    1
   191    28    27    1
   192   156   159    1
   193   156   155    1
   194   153   152    1
   195   159   160    1
   196   154   152    1
   197   141   138    1
   198   129   130    2
   199   152   149    1
   200    33    32    1
   201    33    34    1
   202   160   161    1
   203   163   161   am
   204   161   162    2
   205   138   137    1
   206   138   139    1
   207   149   150    1
   208   149   148    1
   209   140   139    2
   210   150   151    2
