@<TRIPOS>MOLECULE
tmp/3wcuD00.pdb
 217 205 0 0 0
SMALL
GASTEIGER

@<TRIPOS>ATOM
      1  N         24.3330    2.5140  -30.1820 N.3    37  PHE37      -0.1241
      2  CA        23.5510    1.3080  -30.4430 C.3    37  PHE37       0.1605
      3  C         23.4530    0.9700  -31.9240 C.2    37  PHE37       0.2264
      4  O         23.4150   -0.2000  -32.2910 O.2    37  PHE37      -0.2867
      5  CB        22.1690    1.4480  -29.8180 C.3    37  PHE37       0.0534
      6  CG        22.1920    1.3900  -28.3230 C.ar   37  PHE37      -0.0203
      7  CD1       21.8640    0.2130  -27.6550 C.ar   37  PHE37      -0.0042
      8  CD2       22.5770    2.5000  -27.5820 C.ar   37  PHE37      -0.0042
      9  CE1       21.9170    0.1420  -26.2650 C.ar   37  PHE37      -0.0003
     10  CE2       22.6360    2.4430  -26.2010 C.ar   37  PHE37      -0.0003
     11  CZ        22.3040    1.2590  -25.5350 C.ar   37  PHE37      -0.0000
     12  N         26.3690   -0.8770  -32.2030 N.3    40  LEU40      -0.1245
     13  CA        26.3580   -2.1390  -31.4740 C.3    40  LEU40       0.1561
     14  C         25.6300   -3.1600  -32.3300 C.2    40  LEU40       0.2260
     15  O         26.0700   -4.3020  -32.5000 O.2    40  LEU40      -0.2867
     16  CB        25.6160   -1.9660  -30.1520 C.3    40  LEU40       0.0270
     17  CG        25.1010   -3.1940  -29.4050 C.3    40  LEU40       0.0019
     18  CD1       26.2150   -4.1660  -29.1060 C.3    40  LEU40       0.0001
     19  CD2       24.4570   -2.7150  -28.1250 C.3    40  LEU40       0.0001
     20  N         21.4060   -9.0100  -31.2830 N.3    47  SER47      -0.1217
     21  CA        21.1530   -8.4470  -29.9630 C.3    47  SER47       0.1889
     22  C         20.0470   -7.4010  -29.9770 C.2    47  SER47       0.2288
     23  O         19.4810   -7.0800  -28.9340 O.2    47  SER47      -0.2866
     24  CB        22.4300   -7.8140  -29.4200 C.3    47  SER47       0.2089
     25  OG        22.8160   -6.7020  -30.2140 O.3    47  SER47      -0.2183
     26  N         16.7440   -7.8600  -28.0130 N.3    50  LEU50      -0.1231
     27  CA        16.6980   -7.7840  -26.5560 C.3    50  LEU50       0.1693
     28  C         16.0280   -6.5270  -26.0320 C.2    50  LEU50       0.2592
     29  O         15.5630   -6.4860  -24.8870 O.2    50  LEU50      -0.2718
     30  CB        18.1120   -7.8720  -25.9880 C.3    50  LEU50       0.0284
     31  CG        18.6940   -9.2820  -25.9500 C.3    50  LEU50       0.0019
     32  CD1       20.1800   -9.2180  -25.6470 C.3    50  LEU50       0.0001
     33  CD2       17.9450  -10.1050  -24.9070 C.3    50  LEU50       0.0001
     34  N         15.9610   -5.5070  -26.8790 N.am   51  PHE51      -0.1976
     35  CA        15.3820   -4.2320  -26.4810 C.3    51  PHE51       0.1639
     36  C         13.9410   -4.0120  -26.9360 C.2    51  PHE51       0.2290
     37  O         13.6220   -2.9890  -27.5280 O.2    51  PHE51      -0.2864
     38  CB        16.2900   -3.0910  -26.9830 C.3    51  PHE51       0.0560
     39  CG        17.7650   -3.3380  -26.7400 C.ar   51  PHE51      -0.0200
     40  CD1       18.6400   -3.5400  -27.8110 C.ar   51  PHE51      -0.0042
     41  CD2       18.2640   -3.4430  -25.4400 C.ar   51  PHE51      -0.0042
     42  CE1       19.9810   -3.8480  -27.5870 C.ar   51  PHE51      -0.0003
     43  CE2       19.5990   -3.7500  -25.2110 C.ar   51  PHE51      -0.0003
     44  CZ        20.4570   -3.9540  -26.2860 C.ar   51  PHE51      -0.0000
     45  N         10.9230   -4.0970  -24.8370 N.3    53  ASN53      -0.1225
     46  CA        10.2670   -3.2010  -23.8930 C.3    53  ASN53       0.1785
     47  C         10.5980   -1.7410  -24.1580 C.2    53  ASN53       0.2597
     48  O          9.7200   -0.8790  -24.1340 O.2    53  ASN53      -0.2718
     49  CB        10.6760   -3.5390  -22.4630 C.3    53  ASN53       0.1169
     50  CG         9.9490   -4.7350  -21.9300 C.2    53  ASN53       0.2627
     51  OD1        9.7960   -5.7370  -22.6290 O.2    53  ASN53      -0.2716
     52  ND2        9.4970   -4.6490  -20.6850 N.am   53  ASN53      -0.0877
     53  N         11.8670   -1.4620  -24.4140 N.am   54  VAL54      -0.1980
     54  CA        12.2930   -0.0960  -24.6490 C.3    54  VAL54       0.1595
     55  C         11.9790    0.3940  -26.0570 C.2    54  VAL54       0.2287
     56  O         12.5360    1.3920  -26.5060 O.2    54  VAL54      -0.2864
     57  CB        13.7950    0.0540  -24.3740 C.3    54  VAL54       0.0276
     58  CG1       14.1190   -0.4990  -22.9930 C.3    54  VAL54       0.0022
     59  CG2       14.5940   -0.6690  -25.4420 C.3    54  VAL54       0.0022
     60  N         16.1320    4.5890  -22.3050 N.3    67  HIS67      -0.1241
     61  CA        16.9060    3.3840  -22.0570 C.3    67  HIS67       0.1621
     62  C         18.3900    3.5660  -22.3400 C.2    67  HIS67       0.2264
     63  O         19.2300    3.0940  -21.5770 O.2    67  HIS67      -0.2867
     64  CB        16.3940    2.2330  -22.9000 C.3    67  HIS67       0.0745
     65  CG        17.3390    1.0800  -22.9570 C.ar   67  HIS67       0.0817
     66  ND1       17.4610    0.1690  -21.9310 N.ar   67  HIS67      -0.2268
     67  CD2       18.2440    0.7170  -23.8980 C.ar   67  HIS67       0.1154
     68  CE1       18.3990   -0.7080  -22.2410 C.ar   67  HIS67       0.1986
     69  NE2       18.8910   -0.3970  -23.4290 N.ar   67  HIS67      -0.2212
     70  N         19.7350    5.5790  -19.4810 N.3    70  ARG70      -0.1231
     71  CA        20.0300    4.9000  -18.2320 C.3    70  ARG70       0.1694
     72  C         21.1500    3.8600  -18.3730 C.2    70  ARG70       0.2591
     73  O         21.7110    3.3930  -17.3770 O.2    70  ARG70      -0.2718
     74  CB        18.7630    4.3090  -17.5940 C.3    70  ARG70       0.0321
     75  CG        17.8040    3.5890  -18.4940 C.3    70  ARG70       0.0489
     76  CD        16.6140    3.1560  -17.6570 C.3    70  ARG70       0.2205
     77  NE        15.3500    3.6280  -18.2120 N.pl3  70  ARG70      -0.0865
     78  CZ        14.6980    3.0490  -19.2190 C.cat  70  ARG70       0.5346
     79  NH1       15.1850    1.9570  -19.7990 N.pl3  70  ARG70       0.1354
     80  NH2       13.5520    3.5680  -19.6430 N.pl3  70  ARG70       0.1354
     81  N         21.4890    3.5090  -19.6070 N.am   71  VAL71      -0.1980
     82  CA        22.5940    2.5840  -19.8320 C.3    71  VAL71       0.1595
     83  C         23.8380    3.4560  -19.6830 C.2    71  VAL71       0.2287
     84  O         24.7350    3.1720  -18.8880 O.2    71  VAL71      -0.2864
     85  CB        22.6040    2.0100  -21.2630 C.3    71  VAL71       0.0276
     86  CG1       23.8710    1.2140  -21.4840 C.3    71  VAL71       0.0022
     87  CG2       21.3820    1.1510  -21.4940 C.3    71  VAL71       0.0022
     88  N         24.5190    4.5580  -16.2600 N.3    74  GLY74      -0.1210
     89  CA        25.1380    3.5400  -15.4220 C.3    74  GLY74       0.1956
     90  C         26.6250    3.4860  -15.7160 C.2    74  GLY74       0.2611
     91  O         27.4400    3.2360  -14.8300 O.2    74  GLY74      -0.2717
     92  N         26.9780    3.7150  -16.9760 N.am   75  LEU75      -0.1979
     93  CA        28.3730    3.7470  -17.3810 C.3    75  LEU75       0.1596
     94  C         28.9700    5.0950  -16.9510 C.2    75  LEU75       0.2287
     95  O         30.1760    5.3010  -17.0280 O.2    75  LEU75      -0.2864
     96  CB        28.4860    3.5970  -18.8910 C.3    75  LEU75       0.0297
     97  CG        29.8810    3.9120  -19.4290 C.3    75  LEU75       0.0022
     98  CD1       30.8640    2.8160  -19.0310 C.3    75  LEU75       0.0001
     99  CD2       29.8160    4.0520  -20.9290 C.3    75  LEU75       0.0001
    100  N         25.0330   -4.6680  -11.1470 N.3    95  LEU95      -0.1245
    101  CA        24.7280   -4.6010  -12.5830 C.3    95  LEU95       0.1561
    102  C         24.8230   -5.9570  -13.2890 C.2    95  LEU95       0.2260
    103  O         24.2250   -6.1600  -14.3470 O.2    95  LEU95      -0.2867
    104  CB        25.6540   -3.6000  -13.2910 C.3    95  LEU95       0.0270
    105  CG        25.2620   -2.1270  -13.1560 C.3    95  LEU95       0.0019
    106  CD1       26.4360   -1.2580  -13.5330 C.3    95  LEU95       0.0001
    107  CD2       24.0610   -1.8180  -14.0290 C.3    95  LEU95       0.0001
    108  N         21.6800   -8.1630  -12.6740 N.3    98  GLN98      -0.1231
    109  CA        20.5920   -7.7840  -13.5650 C.3    98  GLN98       0.1698
    110  C         20.7800   -8.2480  -15.0000 C.2    98  GLN98       0.2592
    111  O         19.8970   -8.8910  -15.5590 O.2    98  GLN98      -0.2718
    112  CB        20.3960   -6.2700  -13.5460 C.3    98  GLN98       0.0381
    113  CG        20.3280   -5.7020  -12.1510 C.3    98  GLN98       0.0905
    114  CD        20.0200   -4.2280  -12.1430 C.2    98  GLN98       0.2608
    115  OE1       20.4880   -3.4800  -13.0100 O.2    98  GLN98      -0.2717
    116  NE2       19.2410   -3.7910  -11.1530 N.am   98  GLN98      -0.0878
    117  N         21.9150   -7.9280  -15.6110 N.am   99  HIS99      -0.1976
    118  CA        22.1400   -8.3340  -16.9960 C.3    99  HIS99       0.1656
    119  C         22.1630   -9.8530  -17.1750 C.2    99  HIS99       0.2291
    120  O         22.0130  -10.3630  -18.2920 O.2    99  HIS99      -0.2864
    121  CB        23.4220   -7.6850  -17.5370 C.3    99  HIS99       0.0771
    122  CG        23.2680   -6.2230  -17.8210 C.ar   99  HIS99       0.0820
    123  ND1       22.9530   -5.3110  -16.8390 N.ar   99  HIS99      -0.2267
    124  CD2       23.2790   -5.5310  -18.9860 C.ar   99  HIS99       0.1154
    125  CE1       22.7680   -4.1240  -17.3850 C.ar   99  HIS99       0.1986
    126  NE2       22.9590   -4.2290  -18.6880 N.ar   99  HIS99      -0.2212
    127  N         18.6610  -11.6680  -16.7830 N.3   102  ARG102     -0.1245
    128  CA        17.9500  -11.3130  -17.9980 C.3   102  ARG102      0.1563
    129  C         18.3640  -12.3540  -19.0350 C.2   102  ARG102      0.2260
    130  O         19.5400  -12.7180  -19.1270 O.2   102  ARG102     -0.2867
    131  CB        18.3410   -9.9120  -18.4540 C.3   102  ARG102      0.0307
    132  CG        17.3450   -9.3100  -19.4060 C.3   102  ARG102      0.0489
    133  CD        17.2440   -7.8230  -19.1940 C.3   102  ARG102      0.2205
    134  NE        15.8590   -7.3640  -19.2730 N.pl3 102  ARG102     -0.0865
    135  CZ        15.0690   -7.5090  -20.3370 C.cat 102  ARG102      0.5346
    136  NH1       13.8220   -7.0480  -20.2990 N.pl3 102  ARG102      0.1354
    137  NH2       15.5210   -8.1120  -21.4370 N.pl3 102  ARG102      0.1354
    138  N         21.2510  -12.5800  -22.9930 N.3   105  LEU105     -0.1245
    139  CA        22.4180  -11.7070  -22.9930 C.3   105  LEU105      0.1561
    140  C         23.7280  -12.4730  -22.9860 C.2   105  LEU105      0.2260
    141  O         24.0900  -13.0800  -21.9830 O.2   105  LEU105     -0.2867
    142  CB        22.3920  -10.7600  -21.7940 C.3   105  LEU105      0.0270
    143  CG        21.8110   -9.3710  -22.0710 C.3   105  LEU105      0.0019
    144  CD1       20.3010   -9.3940  -21.9310 C.3   105  LEU105      0.0001
    145  CD2       22.4000   -8.3780  -21.1020 C.3   105  LEU105      0.0001
    146  N         28.3320   -9.9590  -26.3560 N.3   109  TYR109     -0.1227
    147  CA        27.5790   -8.7540  -26.6860 C.3   109  TYR109      0.1736
    148  C         28.2670   -7.5480  -26.0510 C.2   109  TYR109      0.2595
    149  O         28.4490   -6.5090  -26.6910 O.2   109  TYR109     -0.2718
    150  CB        26.1310   -8.8470  -26.1880 C.3   109  TYR109      0.0548
    151  CG        25.2410   -9.7800  -26.9880 C.ar  109  TYR109     -0.0200
    152  CD1       25.3150   -9.8320  -28.3830 C.ar  109  TYR109     -0.0009
    153  CD2       24.3030  -10.5930  -26.3500 C.ar  109  TYR109     -0.0009
    154  CE1       24.4800  -10.6690  -29.1150 C.ar  109  TYR109      0.0417
    155  CE2       23.4650  -11.4310  -27.0740 C.ar  109  TYR109      0.0417
    156  CZ        23.5590  -11.4660  -28.4530 C.ar  109  TYR109      0.1957
    157  OH        22.7360  -12.3070  -29.1620 O.3   109  TYR109     -0.2866
    158  N         28.6500   -7.6890  -24.7860 N.am  110  PHE110     -0.1976
    159  CA        29.3310   -6.6100  -24.1040 C.3   110  PHE110      0.1639
    160  C         30.6320   -6.3040  -24.8110 C.2   110  PHE110      0.2290
    161  O         30.9580   -5.1450  -25.0340 O.2   110  PHE110     -0.2864
    162  CB        29.5790   -6.9660  -22.6460 C.3   110  PHE110      0.0560
    163  CG        28.4400   -6.5940  -21.7510 C.ar  110  PHE110     -0.0200
    164  CD1       27.2230   -7.2570  -21.8420 C.ar  110  PHE110     -0.0042
    165  CD2       28.5720   -5.5620  -20.8270 C.ar  110  PHE110     -0.0042
    166  CE1       26.1510   -6.8990  -21.0240 C.ar  110  PHE110     -0.0003
    167  CE2       27.5110   -5.1960  -20.0050 C.ar  110  PHE110     -0.0003
    168  CZ        26.2980   -5.8660  -20.1040 C.ar  110  PHE110     -0.0000
    169  N         29.8790   -4.0650  -27.2760 N.3   113  MET113     -0.1245
    170  CA        29.6560   -2.7260  -26.7270 C.3   113  MET113      0.1570
    171  C         30.9880   -2.0370  -26.4280 C.2   113  MET113      0.2261
    172  O         31.1200   -0.8200  -26.5760 O.2   113  MET113     -0.2867
    173  CB        28.8310   -2.8100  -25.4410 C.3   113  MET113      0.0387
    174  CG        28.6410   -1.4880  -24.7170 C.3   113  MET113      0.0595
    175  SD        27.5670   -0.3450  -25.5940 S.3   113  MET113     -0.1393
    176  CE        25.9560   -0.8420  -24.9910 C.3   113  MET113      0.0692
    177  N         32.1800    1.5620  -28.1030 N.3   117  LEU117     -0.1245
    178  CA        32.6030    2.7120  -27.3160 C.3   117  LEU117      0.1561
    179  C         34.0130    3.1240  -27.7090 C.2   117  LEU117      0.2260
    180  O         34.2550    4.2900  -28.0080 O.2   117  LEU117     -0.2867
    181  CB        32.5630    2.3770  -25.8320 C.3   117  LEU117      0.0270
    182  CG        31.1850    2.3070  -25.1720 C.3   117  LEU117      0.0019
    183  CD1       31.3140    1.7740  -23.7470 C.3   117  LEU117      0.0001
    184  CD2       30.5720    3.6750  -25.1590 C.3   117  LEU117      0.0001
    185  N         38.2800    0.7060  -18.6830 N.3   137  LEU137     -0.1245
    186  CA        37.0380    0.1740  -19.2410 C.3   137  LEU137      0.1561
    187  C         36.8890   -1.3380  -19.2550 C.2   137  LEU137      0.2260
    188  O         35.8020   -1.8490  -18.9760 O.2   137  LEU137     -0.2867
    189  CB        36.8370    0.6840  -20.6600 C.3   137  LEU137      0.0270
    190  CG        35.4440    1.2090  -21.0130 C.3   137  LEU137      0.0019
    191  CD1       35.1740    0.8640  -22.4690 C.3   137  LEU137      0.0001
    192  CD2       34.3760    0.5960  -20.1280 C.3   137  LEU137      0.0001
    193  N         35.6790   -2.8520  -16.0410 N.3   140  LEU140     -0.1231
    194  CA        34.2650   -2.5550  -15.9120 C.3   140  LEU140      0.1693
    195  C         33.4270   -3.5480  -16.7000 C.2   140  LEU140      0.2591
    196  O         32.5260   -4.1680  -16.1390 O.2   140  LEU140     -0.2718
    197  CB        33.9620   -1.1480  -16.4040 C.3   140  LEU140      0.0284
    198  CG        34.0880   -0.0520  -15.3600 C.3   140  LEU140      0.0019
    199  CD1       33.6700    1.2660  -15.9840 C.3   140  LEU140      0.0001
    200  CD2       33.2160   -0.3880  -14.1480 C.3   140  LEU140      0.0001
    201  N         33.7050   -3.6910  -17.9980 N.am  141  LYS141     -0.1980
    202  CA        32.9650   -4.6390  -18.8360 C.3   141  LYS141      0.1596
    203  C         32.8950   -5.9980  -18.1280 C.2   141  LYS141      0.2287
    204  O         31.8340   -6.3990  -17.6500 O.2   141  LYS141     -0.2864
    205  CB        33.6530   -4.8090  -20.1930 C.3   141  LYS141      0.0298
    206  CG        32.9970   -5.8400  -21.1000 C.3   141  LYS141      0.0038
    207  CD        34.0350   -6.7090  -21.8220 C.3   141  LYS141      0.0206
    208  CE        34.8980   -5.9130  -22.8110 C.3   141  LYS141      0.1093
    209  NZ        35.9010   -6.7570  -23.5490 N.3   141  LYS141     -0.1314
    210  N         30.8680   -6.1460  -15.0160 N.3   144  ILE144     -0.1245
    211  CA        29.4290   -6.0290  -15.2460 C.3   144  ILE144      0.1561
    212  C         28.8850   -7.3070  -15.8620 C.2   144  ILE144      0.2260
    213  O         27.8840   -7.8570  -15.3980 O.2   144  ILE144     -0.2867
    214  CB        29.0920   -4.8910  -16.2320 C.3   144  ILE144      0.0252
    215  CG1       29.3650   -3.5350  -15.5980 C.3   144  ILE144      0.0019
    216  CG2       27.6370   -4.9800  -16.6470 C.3   144  ILE144      0.0019
    217  CD1       29.1100   -2.3850  -16.5340 C.3   144  ILE144      0.0001
@<TRIPOS>BOND
     1    15    14    2
     2    14    13    1
     3     4     3    2
     4    12    13    1
     5     3     2    1
     6    13    16    1
     7    20    21    1
     8     2     1    1
     9     2     5    1
    10    25    24    1
    11    16    17    1
    12    22    21    1
    13    22    23    2
    14    21    24    1
    15     5     6    1
    16    17    18    1
    17    17    19    1
    18   157   156    1
    19   154   156   ar
    20   154   152   ar
    21   156   155   ar
    22   152   151   ar
    23     6     7   ar
    24     6     8   ar
    25   177   178    1
    26    26    27    1
    27   180   179    2
    28    40    42   ar
    29    40    39   ar
    30   179   178    1
    31     7     9   ar
    32    42    44   ar
    33     8    10   ar
    34    37    36    2
    35   178   181    1
    36   169   170    1
    37   155   153   ar
    38   151   153   ar
    39   151   150    1
    40    38    39    1
    41    38    35    1
    42    36    35    1
    43    34    35    1
    44    34    28   am
    45    39    41   ar
    46   170   171    1
    47   170   173    1
    48   149   148    2
    49   147   146    1
    50   147   150    1
    51   147   148    1
    52   172   171    2
    53    27    28    1
    54    27    30    1
    55    56    55    2
    56    44    43   ar
    57     9    11   ar
    58    10    11   ar
    59    55    54    1
    60   148   158   am
    61    28    29    2
    62    30    31    1
    63    31    32    1
    64    31    33    1
    65   181   182    1
    66   175   176    1
    67   175   174    1
    68    59    57    1
    69   173   174    1
    70    41    43   ar
    71   182   184    1
    72   182   183    1
    73   161   160    2
    74    45    46    1
    75   160   159    1
    76   158   159    1
    77    54    53    1
    78    54    57    1
    79    53    47   am
    80    57    58    1
    81    47    48    2
    82    47    46    1
    83   159   162    1
    84    67    69   ar
    85    67    65   ar
    86    46    49    1
    87   209   208    1
    88    69    68   ar
    89   139   138    1
    90   139   140    1
    91   139   142    1
    92   140   141    2
    93    65    64    1
    94    65    66   ar
    95    64    61    1
    96   208   207    1
    97   162   163    1
    98    51    50    2
    99   191   190    1
   100    49    50    1
   101    62    61    1
   102    62    63    2
   103    60    61    1
   104    68    66   ar
   105   143   144    1
   106   143   142    1
   107   143   145    1
   108    50    52   am
   109   164   163   ar
   110   164   166   ar
   111   207   206    1
   112   163   165   ar
   113    87    85    1
   114    86    85    1
   115   137   135    1
   116    85    82    1
   117   206   205    1
   118   166   168   ar
   119   190   189    1
   120   190   192    1
   121    99    97    1
   122   165   167   ar
   123   189   186    1
   124   135   136    1
   125   135   134    2
   126   205   202    1
   127   168   167   ar
   128    82    83    1
   129    82    81    1
   130    79    78    1
   131    83    84    2
   132    80    78    1
   133    81    72   am
   134    70    71    1
   135    97    98    1
   136    97    96    1
   137   132   133    1
   138   132   131    1
   139   134   133    1
   140   187   186    1
   141   187   188    2
   142   186   185    1
   143    78    77    2
   144   130   129    2
   145   129   128    1
   146   124   126   ar
   147   124   122   ar
   148    96    93    1
   149   202   203    1
   150   202   201    1
   151   126   125   ar
   152    75    76    1
   153    75    74    1
   154   131   128    1
   155    72    71    1
   156    72    73    2
   157   120   119    2
   158    71    74    1
   159    77    76    1
   160   203   204    2
   161   201   195   am
   162   128   127    1
   163   122   121    1
   164   122   123   ar
   165   121   118    1
   166   125   123   ar
   167    93    92    1
   168    93    94    1
   169   119   118    1
   170    95    94    2
   171   118   117    1
   172    92    90   am
   173   195   196    2
   174   195   194    1
   175   216   214    1
   176   217   215    1
   177   197   194    1
   178   197   198    1
   179    88    89    1
   180   214   215    1
   181   214   211    1
   182   193   194    1
   183   199   198    1
   184   212   213    2
   185   212   211    1
   186    90    89    1
   187    90    91    2
   188   117   110   am
   189   111   110    2
   190   198   200    1
   191   211   210    1
   192   110   109    1
   193   103   102    2
   194   107   105    1
   195   109   112    1
   196   109   108    1
   197   112   113    1
   198   106   105    1
   199   104   105    1
   200   104   101    1
   201   102   101    1
   202   115   114    2
   203   101   100    1
   204   113   114    1
   205   114   116   am
