@<TRIPOS>MOLECULE
tmp/3wcvE00.pdb
 226 216 0 0 0
SMALL
GASTEIGER

@<TRIPOS>ATOM
      1  N         17.4740   40.5660   -0.8980 N.3    32  TRP32      -0.1241
      2  CA        16.6120   41.4200   -1.7020 C.3    32  TRP32       0.1605
      3  C         16.8070   41.3060   -3.2200 C.2    32  TRP32       0.2264
      4  O         15.8960   41.6190   -3.9860 O.2    32  TRP32      -0.2867
      5  CB        16.6920   42.8770   -1.2230 C.3    32  TRP32       0.0550
      6  CG        15.9050   43.0530    0.0430 C.ar   32  TRP32       0.0003
      7  CD1       16.3820   43.0150    1.3240 C.ar   32  TRP32       0.0946
      8  CD2       14.4880   43.2320    0.1500 C.ar   32  TRP32       0.0152
      9  NE1       15.3490   43.1670    2.2260 N.ar   32  TRP32      -0.2442
     10  CE2       14.1770   43.3020    1.5310 C.ar   32  TRP32       0.0810
     11  CE3       13.4510   43.3400   -0.7790 C.ar   32  TRP32       0.0012
     12  CZ2       12.8700   43.4790    1.9990 C.ar   32  TRP32       0.0191
     13  CZ3       12.1460   43.5130   -0.3150 C.ar   32  TRP32       0.0001
     14  CH2       11.8710   43.5810    1.0640 C.ar   32  TRP32       0.0015
     15  N         14.5490   38.3670   -3.8760 N.3    35  ILE35      -0.1245
     16  CA        13.1340   38.7110   -3.8210 C.3    35  ILE35       0.1561
     17  C         12.7040   39.3890   -5.1370 C.2    35  ILE35       0.2260
     18  O         11.6750   39.0330   -5.7040 O.2    35  ILE35      -0.2867
     19  CB        12.7930   39.6590   -2.6320 C.3    35  ILE35       0.0252
     20  CG1       13.0140   38.9540   -1.2890 C.3    35  ILE35       0.0019
     21  CG2       11.3590   40.0940   -2.7210 C.3    35  ILE35       0.0019
     22  CD1       12.7080   39.8240   -0.0410 C.3    35  ILE35       0.0001
     23  N          7.2660   43.1010   -7.3530 N.3    42  ALA42      -0.1245
     24  CA         7.2580   43.4940   -5.9520 C.3    42  ALA42       0.1562
     25  C          8.1210   44.7360   -5.7410 C.2    42  ALA42       0.2260
     26  O          7.9430   45.4810   -4.7750 O.2    42  ALA42      -0.2867
     27  CB         7.7740   42.3500   -5.1010 C.3    42  ALA42       0.0290
     28  N          6.5860   48.2310   -5.0020 N.3    45  LEU45      -0.1231
     29  CA         6.0090   48.4680   -3.6880 C.3    45  LEU45       0.1693
     30  C          6.9690   49.2210   -2.7780 C.2    45  LEU45       0.2592
     31  O          6.6090   49.6710   -1.6880 O.2    45  LEU45      -0.2718
     32  CB         5.6400   47.1320   -3.0590 C.3    45  LEU45       0.0284
     33  CG         4.7700   46.2490   -3.9550 C.3    45  LEU45       0.0019
     34  CD1        4.5580   44.9080   -3.2940 C.3    45  LEU45       0.0001
     35  CD2        3.4390   46.9390   -4.2030 C.3    45  LEU45       0.0001
     36  N          8.1930   49.3860   -3.2510 N.am   46  PHE46      -0.1976
     37  CA         9.2070   50.0420   -2.4470 C.3    46  PHE46       0.1639
     38  C          9.7250   51.3830   -2.9340 C.2    46  PHE46       0.2290
     39  O         10.8490   51.7740   -2.5830 O.2    46  PHE46      -0.2864
     40  CB        10.3760   49.0870   -2.2540 C.3    46  PHE46       0.0560
     41  CG         9.9950   47.8320   -1.5470 C.ar   46  PHE46      -0.0200
     42  CD1       10.0120   47.7740   -0.1570 C.ar   46  PHE46      -0.0042
     43  CD2        9.5570   46.7260   -2.2630 C.ar   46  PHE46      -0.0042
     44  CE1        9.5940   46.6320    0.5090 C.ar   46  PHE46      -0.0003
     45  CE2        9.1350   45.5810   -1.6130 C.ar   46  PHE46      -0.0003
     46  CZ         9.1510   45.5290   -0.2200 C.ar   46  PHE46      -0.0000
     47  N          8.9560   54.1140   -1.9150 N.3    48  SER48      -0.1202
     48  CA         9.1990   54.9160   -0.7200 C.3    48  SER48       0.2020
     49  C         10.6330   54.7840   -0.1840 C.2    48  SER48       0.2618
     50  O         11.1040   55.6340    0.5660 O.2    48  SER48      -0.2717
     51  CB         8.2220   54.5260    0.3760 C.3    48  SER48       0.2103
     52  OG         8.2420   53.1220    0.5670 O.3    48  SER48      -0.2182
     53  N         11.3230   53.7100   -0.5500 N.am   49  VAL49      -0.1979
     54  CA        12.6870   53.5120   -0.0810 C.3    49  VAL49       0.1595
     55  C         13.6530   53.4830   -1.2400 C.2    49  VAL49       0.2287
     56  O         14.6860   52.8310   -1.1690 O.2    49  VAL49      -0.2864
     57  CB        12.8560   52.1950    0.7020 C.3    49  VAL49       0.0276
     58  CG1       12.2940   52.3370    2.1030 C.3    49  VAL49       0.0022
     59  CG2       12.1720   51.0610   -0.0490 C.3    49  VAL49       0.0022
     60  N         17.0000   50.3860    4.1170 N.3    62  HIS62      -0.1241
     61  CA        15.8010   49.5580    4.2170 C.3    62  HIS62       0.1621
     62  C         16.2260   48.0950    4.4060 C.2    62  HIS62       0.2264
     63  O         15.6730   47.3750    5.2400 O.2    62  HIS62      -0.2867
     64  CB        14.9230   49.6890    2.9600 C.3    62  HIS62       0.0745
     65  CG        13.8250   48.6780    2.8920 C.ar   62  HIS62       0.0817
     66  ND1       12.7330   48.7120    3.7300 N.ar   62  HIS62      -0.2268
     67  CD2       13.6780   47.5690    2.1280 C.ar   62  HIS62       0.1154
     68  CE1       11.9590   47.6660    3.4850 C.ar   62  HIS62       0.1986
     69  NE2       12.5090   46.9550    2.5150 N.ar   62  HIS62      -0.2212
     70  N         17.1610   47.5290    7.9070 N.3    65  ARG65      -0.1231
     71  CA        16.0010   47.4920    8.8070 C.3    65  ARG65       0.1694
     72  C         15.2640   46.1470    8.7640 C.2    65  ARG65       0.2591
     73  O         14.8270   45.6300    9.8020 O.2    65  ARG65      -0.2718
     74  CB        15.0190   48.6330    8.4800 C.3    65  ARG65       0.0321
     75  CG        15.3740   49.9840    9.1120 C.3    65  ARG65       0.0489
     76  CD        14.2210   50.9880    8.9420 C.3    65  ARG65       0.2205
     77  NE        14.0240   51.3550    7.5460 N.pl3  65  ARG65      -0.0865
     78  CZ        14.7150   52.2990    6.9120 C.cat  65  ARG65       0.5346
     79  NH1       15.6500   52.9880    7.5560 N.pl3  65  ARG65       0.1354
     80  NH2       14.4880   52.5310    5.6220 N.pl3  65  ARG65       0.1354
     81  N         15.1520   45.5820    7.5640 N.am   66  VAL66      -0.1980
     82  CA        14.4840   44.3020    7.3780 C.3    66  VAL66       0.1595
     83  C         15.2690   43.1280    7.9760 C.2    66  VAL66       0.2287
     84  O         14.6890   42.2990    8.6820 O.2    66  VAL66      -0.2864
     85  CB        14.2450   44.0040    5.8800 C.3    66  VAL66       0.0276
     86  CG1       13.7210   42.5680    5.7000 C.3    66  VAL66       0.0022
     87  CG2       13.2650   45.0430    5.2850 C.3    66  VAL66       0.0022
     88  N         15.0270   43.2130   11.4330 N.3    69  GLY69      -0.1210
     89  CA        13.7350   42.7600   11.9270 C.3    69  GLY69       0.1956
     90  C         13.7510   41.2410   12.0060 C.2    69  GLY69       0.2611
     91  O         13.2550   40.6200   12.9560 O.2    69  GLY69      -0.2717
     92  N         14.3420   40.6320   10.9920 N.am   70  LEU70      -0.1979
     93  CA        14.4470   39.1840   10.9590 C.3    70  LEU70       0.1596
     94  C         15.2770   38.7390   12.1650 C.2    70  LEU70       0.2287
     95  O         14.8880   37.8190   12.8870 O.2    70  LEU70      -0.2864
     96  CB        15.1160   38.7380    9.6460 C.3    70  LEU70       0.0297
     97  CG        14.2460   38.7610    8.3880 C.3    70  LEU70       0.0022
     98  CD1       15.0910   38.7060    7.1640 C.3    70  LEU70       0.0001
     99  CD2       13.3110   37.5970    8.4040 C.3    70  LEU70       0.0001
    100  N         16.0430   40.2860   15.2130 N.3    72  ARG72      -0.1231
    101  CA        15.4060   40.4440   16.5220 C.3    72  ARG72       0.1694
    102  C         14.2240   39.5040   16.6930 C.2    72  ARG72       0.2591
    103  O         13.9770   39.0190   17.7970 O.2    72  ARG72      -0.2718
    104  CB        14.9450   41.8830   16.7200 C.3    72  ARG72       0.0321
    105  CG        13.7790   42.2570   15.8550 C.3    72  ARG72       0.0489
    106  CD        13.5110   43.7490   15.9150 C.3    72  ARG72       0.2205
    107  NE        12.0890   44.0110   15.7260 N.pl3  72  ARG72      -0.0865
    108  CZ        11.5940   44.9530   14.9340 C.cat  72  ARG72       0.5346
    109  NH1       12.4030   45.7380   14.2460 N.pl3  72  ARG72       0.1354
    110  NH2       10.2830   45.1080   14.8230 N.pl3  72  ARG72       0.1354
    111  N         13.5010   39.2510   15.6030 N.am   73  VAL73      -0.1980
    112  CA        12.3420   38.3470   15.6320 C.3    73  VAL73       0.1595
    113  C         12.8020   36.9030   15.8760 C.2    73  VAL73       0.2287
    114  O         12.2690   36.2060   16.7420 O.2    73  VAL73      -0.2864
    115  CB        11.5520   38.4190   14.3040 C.3    73  VAL73       0.0276
    116  CG1       10.5600   37.2870   14.2270 C.3    73  VAL73       0.0022
    117  CG2       10.8220   39.7710   14.2060 C.3    73  VAL73       0.0022
    118  N          5.1930   44.7820   13.9800 N.3    90  LEU90      -0.1245
    119  CA         5.5470   44.7110   12.5710 C.3    90  LEU90       0.1561
    120  C          4.3170   44.7270   11.6900 C.2    90  LEU90       0.2260
    121  O          4.3170   45.3300   10.6080 O.2    90  LEU90      -0.2867
    122  CB         6.3780   43.4580   12.3020 C.3    90  LEU90       0.0270
    123  CG         7.8180   43.5250   12.8230 C.3    90  LEU90       0.0019
    124  CD1        8.4320   42.1350   12.8060 C.3    90  LEU90       0.0001
    125  CD2        8.6250   44.5030   11.9810 C.3    90  LEU90       0.0001
    126  N          3.0250   48.1570   11.1420 N.3    93  GLN93      -0.1231
    127  CA         3.7930   48.9160   10.1580 C.3    93  GLN93       0.1698
    128  C          3.5110   48.4940    8.7140 C.2    93  GLN93       0.2592
    129  O          3.6690   49.2980    7.7900 O.2    93  GLN93      -0.2718
    130  CB         5.2900   48.7890   10.4450 C.3    93  GLN93       0.0381
    131  CG         5.6970   49.3400   11.7960 C.3    93  GLN93       0.0905
    132  CD         7.1670   49.1770   12.0600 C.2    93  GLN93       0.2608
    133  OE1        7.6950   48.0770   11.9370 O.2    93  GLN93      -0.2717
    134  NE2        7.8390   50.2640   12.4280 N.am   93  GLN93      -0.0878
    135  N          3.0910   47.2450    8.5150 N.am   94  HIS94      -0.1976
    136  CA         2.8100   46.7480    7.1700 C.3    94  HIS94       0.1656
    137  C          1.3530   46.8540    6.6960 C.2    94  HIS94       0.2291
    138  O          1.0990   46.9130    5.4910 O.2    94  HIS94      -0.2864
    139  CB         3.2930   45.2940    7.0320 C.3    94  HIS94       0.0771
    140  CG         4.7850   45.1520    7.0060 C.ar   94  HIS94       0.0820
    141  ND1        5.5600   45.2170    8.1450 N.ar   94  HIS94      -0.2267
    142  CD2        5.6460   44.9490    5.9770 C.ar   94  HIS94       0.1154
    143  CE1        6.8310   45.0570    7.8240 C.ar   94  HIS94       0.1986
    144  NE2        6.9130   44.8930    6.5130 N.ar   94  HIS94      -0.2212
    145  N         -0.2360   49.5910    4.3440 N.3    97  ARG97      -0.1245
    146  CA         0.3600   49.5050    3.0170 C.3    97  ARG97       0.1563
    147  C         -0.3710   48.5170    2.1110 C.2    97  ARG97       0.2260
    148  O          0.0080   48.3260    0.9460 O.2    97  ARG97      -0.2867
    149  CB         1.8300   49.1200    3.1550 C.3    97  ARG97       0.0307
    150  CG         2.4990   49.8100    4.3290 C.3    97  ARG97       0.0489
    151  CD         3.9880   49.8580    4.1480 C.3    97  ARG97       0.2205
    152  NE         4.4310   51.1850    3.7320 N.pl3  97  ARG97      -0.0865
    153  CZ         5.0350   52.0580    4.5370 C.cat  97  ARG97       0.5346
    154  NH1        5.2730   51.7330    5.8050 N.pl3  97  ARG97       0.1354
    155  NH2        5.4040   53.2510    4.0740 N.pl3  97  ARG97       0.1354
    156  N         -0.6740   45.1540    1.5330 N.3    99  LEU99      -0.1245
    157  CA         0.2020   44.2710    0.7730 C.3    99  LEU99       0.1561
    158  C         -0.4540   42.9160    0.5260 C.2    99  LEU99       0.2260
    159  O         -1.1080   42.3450    1.4110 O.2    99  LEU99      -0.2867
    160  CB         1.5090   44.0580    1.5400 C.3    99  LEU99       0.0270
    161  CG         2.3170   45.2990    1.8990 C.3    99  LEU99       0.0019
    162  CD1        3.3560   44.9560    2.9690 C.3    99  LEU99       0.0001
    163  CD2        2.9710   45.8480    0.6420 C.3    99  LEU99       0.0001
    164  N          3.0840   37.9960   -1.5570 N.3   103  ASN103     -0.1225
    165  CA         4.4540   38.5100   -1.5750 C.3   103  ASN103      0.1785
    166  C          5.2540   37.9280   -0.4230 C.2   103  ASN103      0.2597
    167  O          6.4480   37.6550   -0.5580 O.2   103  ASN103     -0.2718
    168  CB         4.4790   40.0390   -1.4760 C.3   103  ASN103      0.1169
    169  CG         4.2080   40.7100   -2.7970 C.2   103  ASN103      0.2627
    170  OD1        3.4650   41.6850   -2.8650 O.2   103  ASN103     -0.2716
    171  ND2        4.8130   40.1960   -3.8620 N.am  103  ASN103     -0.0877
    172  N          4.5980   37.7450    0.7160 N.am  104  PHE104     -0.1976
    173  CA         5.2860   37.1940    1.8620 C.3   104  PHE104      0.1639
    174  C          5.7160   35.7600    1.6260 C.2   104  PHE104      0.2290
    175  O          6.6190   35.2730    2.3020 O.2   104  PHE104     -0.2864
    176  CB         4.4030   37.2970    3.1070 C.3   104  PHE104      0.0560
    177  CG         4.3980   38.6740    3.7240 C.ar  104  PHE104     -0.0200
    178  CD1        5.2000   38.9640    4.8300 C.ar  104  PHE104     -0.0042
    179  CD2        3.6380   39.6960    3.1710 C.ar  104  PHE104     -0.0042
    180  CE1        5.2380   40.2510    5.3670 C.ar  104  PHE104     -0.0003
    181  CE2        3.6780   40.9780    3.7040 C.ar  104  PHE104     -0.0003
    182  CZ         4.4720   41.2590    4.7960 C.ar  104  PHE104     -0.0000
    183  N          8.9420   36.1830   -0.3190 N.3   107  PHE107     -0.1241
    184  CA         9.9720   36.6230    0.6170 C.3   107  PHE107      0.1605
    185  C         10.5960   35.4210    1.3420 C.2   107  PHE107      0.2264
    186  O         11.8260   35.3380    1.5010 O.2   107  PHE107     -0.2867
    187  CB         9.3670   37.5940    1.6380 C.3   107  PHE107      0.0534
    188  CG        10.3530   38.1550    2.6250 C.ar  107  PHE107     -0.0203
    189  CD1       10.9190   37.3600    3.6150 C.ar  107  PHE107     -0.0042
    190  CD2       10.6750   39.5170    2.5910 C.ar  107  PHE107     -0.0042
    191  CE1       11.7880   37.9200    4.5620 C.ar  107  PHE107     -0.0003
    192  CE2       11.5380   40.0740    3.5270 C.ar  107  PHE107     -0.0003
    193  CZ        12.0940   39.2770    4.5130 C.ar  107  PHE107     -0.0000
    194  N          9.0500   30.0290    9.5040 N.3   132  TYR132     -0.1241
    195  CA         8.8410   31.2730    8.7940 C.3   132  TYR132      0.1605
    196  C          7.3520   31.5620    8.7500 C.2   132  TYR132      0.2264
    197  O          6.9300   32.7260    8.7360 O.2   132  TYR132     -0.2867
    198  CB         9.3790   31.2150    7.3700 C.3   132  TYR132      0.0534
    199  CG         9.0120   32.4510    6.5850 C.ar  132  TYR132     -0.0201
    200  CD1        7.9720   32.4340    5.6620 C.ar  132  TYR132     -0.0009
    201  CD2        9.6880   33.6440    6.7890 C.ar  132  TYR132     -0.0009
    202  CE1        7.6220   33.5760    4.9520 C.ar  132  TYR132      0.0417
    203  CE2        9.3460   34.7980    6.0880 C.ar  132  TYR132      0.0417
    204  CZ         8.3140   34.7530    5.1700 C.ar  132  TYR132      0.1957
    205  OH         7.9680   35.8750    4.4530 O.3   132  TYR132     -0.2866
    206  N          6.2590   33.6740   11.4870 N.3   135  ILE135     -0.1231
    207  CA         6.5200   35.0860   11.2710 C.3   135  ILE135      0.1692
    208  C          5.4970   35.7140   10.3200 C.2   135  ILE135      0.2591
    209  O          4.8620   36.7180   10.6450 O.2   135  ILE135     -0.2718
    210  CB         7.9530   35.3130   10.7370 C.3   135  ILE135      0.0266
    211  CG1        8.9690   34.7650   11.7550 C.3   135  ILE135      0.0019
    212  CG2        8.1820   36.8100   10.4960 C.3   135  ILE135      0.0020
    213  CD1       10.4350   34.8190   11.2960 C.3   135  ILE135      0.0001
    214  N          5.3370   35.1100    9.1520 N.am  136  ALA136     -0.1980
    215  CA         4.4070   35.6170    8.1570 C.3   136  ALA136      0.1597
    216  C          2.9970   35.7310    8.7270 C.2   136  ALA136      0.2287
    217  O          2.3030   36.7210    8.4970 O.2   136  ALA136     -0.2864
    218  CB         4.4180   34.7090    6.9270 C.3   136  ALA136      0.0319
    219  N          2.7860   38.6530   10.9740 N.3   139  ILE139     -0.1245
    220  CA         2.8530   39.9580   10.3240 C.3   139  ILE139      0.1561
    221  C          1.6590   40.2880    9.4290 C.2   139  ILE139      0.2260
    222  O          1.1780   41.4140    9.4290 O.2   139  ILE139     -0.2867
    223  CB         4.1670   40.0890    9.4960 C.3   139  ILE139      0.0252
    224  CG1        5.3630   39.9290   10.4350 C.3   139  ILE139      0.0019
    225  CG2        4.2230   41.4360    8.7540 C.3   139  ILE139      0.0019
    226  CD1        6.7160   40.1020    9.7810 C.3   139  ILE139      0.0001
@<TRIPOS>BOND
     1    23    24    1
     2    24    25    1
     3    24    27    1
     4    25    26    2
     5    18    17    2
     6    17    16    1
     7    28    29    1
     8    35    33    1
     9     4     3    2
    10    33    34    1
    11    33    32    1
    12    15    16    1
    13   171   169   am
    14    16    19    1
    15    29    32    1
    16    29    30    1
    17    36    30   am
    18    36    37    1
    19     3     2    1
    20    38    39    2
    21    38    37    1
    22   170   169    2
    23   169   168    1
    24    30    31    2
    25    21    19    1
    26    19    20    1
    27    37    40    1
    28    43    45   ar
    29    43    41   ar
    30    40    41    1
    31    47    48    1
    32     2     5    1
    33     2     1    1
    34    45    46   ar
    35   165   164    1
    36   165   168    1
    37   165   166    1
    38    41    42   ar
    39    20    22    1
    40    55    56    2
    41    55    54    1
    42     5     6    1
    43    11    13   ar
    44    11     8   ar
    45    48    49    1
    46    48    51    1
    47   167   166    2
    48    53    49   am
    49    53    54    1
    50   166   172   am
    51   183   184    1
    52    13    14   ar
    53    46    44   ar
    54    49    50    2
    55    42    44   ar
    56    54    57    1
    57    59    57    1
    58     6     8   ar
    59     6     7   ar
    60     8    10   ar
    61    51    52    1
    62   158   157    1
    63   158   159    2
    64   184   185    1
    65   184   187    1
    66   163   161    1
    67    57    58    1
    68   172   173    1
    69   157   156    1
    70   157   160    1
    71   148   147    2
    72    14    12   ar
    73     7     9   ar
    74   185   186    2
    75    10    12   ar
    76    10     9   ar
    77   160   161    1
    78   174   173    1
    79   174   175    2
    80   187   188    1
    81   173   176    1
    82   161   162    1
    83   147   146    1
    84    67    69   ar
    85    67    65   ar
    86    69    68   ar
    87   190   188   ar
    88   190   192   ar
    89   188   189   ar
    90    65    64    1
    91    65    66   ar
    92    64    61    1
    93   146   149    1
    94   146   145    1
    95   176   177    1
    96   149   150    1
    97   179   181   ar
    98   179   177   ar
    99    68    66   ar
   100   192   193   ar
   101   189   191   ar
   102   181   182   ar
   103   177   178   ar
   104   152   151    1
   105   152   153    2
   106   155   153    1
   107    60    61    1
   108   151   150    1
   109    61    62    1
   110    62    63    2
   111   205   204    1
   112   193   191   ar
   113   153   154    1
   114   182   180   ar
   115   178   180   ar
   116   202   204   ar
   117   202   200   ar
   118   204   203   ar
   119    87    85    1
   120   138   137    2
   121    80    78    1
   122   200   199   ar
   123    86    85    1
   124    85    82    1
   125   142   144   ar
   126   142   140   ar
   127   203   201   ar
   128   144   143   ar
   129   199   201   ar
   130   199   198    1
   131   137   136    1
   132    78    77    2
   133    78    79    1
   134   218   215    1
   135   140   139    1
   136   140   141   ar
   137   139   136    1
   138    98    97    1
   139   136   135    1
   140   198   195    1
   141    82    81    1
   142    82    83    1
   143    77    76    1
   144    81    72   am
   145   129   128    2
   146   143   141   ar
   147    70    71    1
   148    83    84    2
   149   215   216    1
   150   215   214    1
   151    97    99    1
   152    97    96    1
   153    74    71    1
   154    74    75    1
   155   217   216    2
   156   135   128   am
   157   128   127    1
   158   197   196    2
   159   196   195    1
   160   225   223    1
   161    72    71    1
   162    72    73    2
   163   195   194    1
   164    76    75    1
   165   214   208   am
   166   221   222    2
   167   221   220    1
   168   223   220    1
   169   223   224    1
   170    96    93    1
   171   226   224    1
   172   127   130    1
   173   127   126    1
   174   208   209    2
   175   208   207    1
   176   220   219    1
   177   130   131    1
   178   212   210    1
   179   121   120    2
   180   210   207    1
   181   210   211    1
   182    93    92    1
   183    93    94    1
   184    92    90   am
   185   207   206    1
   186   213   211    1
   187    88    89    1
   188   120   119    1
   189   131   132    1
   190    89    90    1
   191   133   132    2
   192   125   123    1
   193    90    91    2
   194   132   134   am
   195    94    95    2
   196   122   119    1
   197   122   123    1
   198   119   118    1
   199   124   123    1
   200   117   115    1
   201   116   115    1
   202   109   108    1
   203   115   112    1
   204   110   108    1
   205   108   107    2
   206   100   101    1
   207   111   112    1
   208   111   102   am
   209   112   113    1
   210   107   106    1
   211   105   106    1
   212   105   104    1
   213   113   114    2
   214   101   102    1
   215   101   104    1
   216   102   103    2
