@<TRIPOS>MOLECULE
tmp/3wcxA00.pdb
 112 111 0 0 0
SMALL
GASTEIGER

@<TRIPOS>ATOM
      1  N         -6.5010  -22.8570   -0.6370 N.3    85  LYS85      -0.1245
      2  CA        -6.1490  -23.5190   -1.9020 C.3    85  LYS85       0.1561
      3  C         -5.2640  -24.7460   -1.7140 C.2    85  LYS85       0.2260
      4  O         -4.2000  -24.8470   -2.3270 O.2    85  LYS85      -0.2867
      5  CB        -5.4750  -22.5330   -2.8650 C.3    85  LYS85       0.0271
      6  CG        -6.3730  -22.0950   -4.0120 C.3    85  LYS85       0.0035
      7  CD        -5.8620  -20.8460   -4.7120 C.3    85  LYS85       0.0206
      8  CE        -7.0120  -19.8940   -4.9960 C.3    85  LYS85       0.1093
      9  NZ        -6.5810  -18.6900   -5.7630 N.3    85  LYS85      -0.1314
     10  N         -3.5250  -28.2600   -1.9770 N.3    87  SER87      -0.1217
     11  CA        -3.2440  -29.1540   -3.0880 C.3    87  SER87       0.1889
     12  C         -2.8380  -30.5280   -2.5550 C.2    87  SER87       0.2288
     13  O         -1.9230  -30.6300   -1.7460 O.2    87  SER87      -0.2866
     14  CB        -2.1180  -28.5720   -3.9470 C.3    87  SER87       0.2089
     15  OG        -1.5110  -29.5690   -4.7560 O.3    87  SER87      -0.2183
     16  N         -1.5360  -32.8400   -4.3720 N.3    89  THR89      -0.1203
     17  CA        -0.4710  -33.3720   -5.2170 C.3    89  THR89       0.1994
     18  C          0.9010  -32.7100   -5.0300 C.2    89  THR89       0.2618
     19  O          1.9200  -33.3650   -5.2630 O.2    89  THR89      -0.2717
     20  CB        -0.8560  -33.3490   -6.7240 C.3    89  THR89       0.1784
     21  OG1       -0.8500  -32.0020   -7.2010 O.3    89  THR89      -0.2211
     22  CG2       -2.2350  -33.9550   -6.9500 C.3    89  THR89       0.0376
     23  N          0.9520  -31.4320   -4.6330 N.am   90  THR90      -0.1952
     24  CA         2.2640  -30.7770   -4.4470 C.3    90  THR90       0.1897
     25  C          3.0710  -31.4620   -3.3440 C.2    90  THR90       0.2313
     26  O          2.5680  -31.6490   -2.2440 O.2    90  THR90      -0.2863
     27  CB         2.1800  -29.2610   -4.1180 C.3    90  THR90       0.1794
     28  OG1        1.4110  -29.0530   -2.9240 O.3    90  THR90      -0.2208
     29  CG2        1.5560  -28.4970   -5.2510 C.3    90  THR90       0.0378
     30  N         -4.5530  -23.0190    3.4730 N.3   111  ILE111     -0.1231
     31  CA        -3.5190  -22.7550    2.4660 C.3   111  ILE111      0.1692
     32  C         -3.8240  -21.4100    1.8010 C.2   111  ILE111      0.2592
     33  O         -4.9730  -21.0950    1.5090 O.2   111  ILE111     -0.2718
     34  CB        -3.4400  -23.9010    1.4280 C.3   111  ILE111      0.0266
     35  CG1       -3.2150  -25.2640    2.1090 C.3   111  ILE111      0.0019
     36  CG2       -2.3980  -23.6360    0.3510 C.3   111  ILE111      0.0020
     37  CD1       -2.3420  -25.2650    3.3440 C.3   111  ILE111      0.0001
     38  N         -2.8070  -20.5850    1.6250 N.am  112  PHE112     -0.1976
     39  CA        -3.0100  -19.2530    1.0400 C.3   112  PHE112      0.1639
     40  C         -3.6390  -19.3230   -0.3590 C.2   112  PHE112      0.2290
     41  O         -3.2860  -20.1780   -1.1670 O.2   112  PHE112     -0.2864
     42  CB        -1.6830  -18.4850    0.9670 C.3   112  PHE112      0.0560
     43  CG        -1.1640  -18.0390    2.3060 C.ar  112  PHE112     -0.0200
     44  CD1       -1.9790  -17.3240    3.1820 C.ar  112  PHE112     -0.0042
     45  CD2        0.1450  -18.3120    2.6860 C.ar  112  PHE112     -0.0042
     46  CE1       -1.4960  -16.9030    4.4130 C.ar  112  PHE112     -0.0003
     47  CE2        0.6320  -17.8890    3.9160 C.ar  112  PHE112     -0.0003
     48  CZ        -0.1930  -17.1910    4.7810 C.ar  112  PHE112     -0.0000
     49  N         -0.2540  -16.2750   -3.8790 N.3   115  ALA115     -0.1245
     50  CA         1.1950  -16.4490   -3.7310 C.3   115  ALA115      0.1562
     51  C          1.8850  -16.3900   -5.0930 C.2   115  ALA115      0.2260
     52  O          1.2340  -16.5560   -6.1230 O.2   115  ALA115     -0.2867
     53  CB         1.5030  -17.7600   -3.0260 C.3   115  ALA115      0.0290
     54  N          6.6490  -19.9470   -3.7250 N.3   119  ASP119     -0.1225
     55  CA         5.6150  -20.1170   -2.7080 C.3   119  ASP119      0.1805
     56  C          4.2930  -20.6280   -3.2940 C.2   119  ASP119      0.2598
     57  O          3.5590  -21.3500   -2.6300 O.2   119  ASP119     -0.2718
     58  CB         5.3430  -18.7900   -1.9920 C.3   119  ASP119      0.1424
     59  CG         6.5710  -18.2050   -1.3280 C.2   119  ASP119      0.3668
     60  OD1        7.6300  -18.0910   -1.9950 O.co2 119  ASP119     -0.2456
     61  OD2        6.4510  -17.8280   -0.1400 O.co2 119  ASP119     -0.2456
     62  N          3.9700  -20.2130   -4.5130 N.am  120  TRP120     -0.1962
     63  CA         2.6980  -20.6160   -5.1310 C.3   120  TRP120      0.1771
     64  C          2.6060  -22.1130   -5.2520 C.2   120  TRP120      0.2620
     65  O          1.5450  -22.7060   -5.0310 O.2   120  TRP120     -0.2715
     66  CB         2.5140  -19.9570   -6.4960 C.3   120  TRP120      0.0590
     67  CG         1.2950  -20.4520   -7.2430 C.ar  120  TRP120      0.0006
     68  CD1        1.2600  -21.3410   -8.3080 C.ar  120  TRP120      0.0946
     69  CD2       -0.1110  -20.1060   -6.9940 C.ar  120  TRP120      0.0152
     70  NE1       -0.0270  -21.5740   -8.7140 N.ar  120  TRP120     -0.2442
     71  CE2       -0.8990  -20.8630   -7.9750 C.ar  120  TRP120      0.0810
     72  CE3       -0.7700  -19.2820   -6.0950 C.ar  120  TRP120      0.0012
     73  CZ2       -2.2860  -20.7750   -8.0360 C.ar  120  TRP120      0.0191
     74  CZ3       -2.1670  -19.2080   -6.1640 C.ar  120  TRP120      0.0001
     75  CH2       -2.9020  -19.9370   -7.1130 C.ar  120  TRP120      0.0015
     76  N          3.7210  -22.7460   -5.5970 N.am  121  TRP121     -0.1960
     77  CA         3.6970  -24.1500   -5.9840 C.3   121  TRP121      0.1771
     78  C          3.6450  -25.0600   -4.7950 C.2   121  TRP121      0.2620
     79  O          3.4210  -26.2540   -4.9390 O.2   121  TRP121     -0.2715
     80  CB         4.8780  -24.4690   -6.9070 C.3   121  TRP121      0.0590
     81  CG         4.8110  -23.6060   -8.1370 C.ar  121  TRP121      0.0006
     82  CD1        5.5940  -22.5010   -8.4440 C.ar  121  TRP121      0.0946
     83  CD2        3.8320  -23.6980   -9.2230 C.ar  121  TRP121      0.0152
     84  NE1        5.1930  -21.9390   -9.6320 N.ar  121  TRP121     -0.2442
     85  CE2        4.1410  -22.6060  -10.1460 C.ar  121  TRP121      0.0810
     86  CE3        2.7740  -24.5510   -9.5160 C.ar  121  TRP121      0.0012
     87  CZ2        3.4260  -22.4080  -11.3130 C.ar  121  TRP121      0.0191
     88  CZ3        2.0540  -24.3370  -10.6970 C.ar  121  TRP121      0.0001
     89  CH2        2.3720  -23.2900  -11.5690 C.ar  121  TRP121      0.0015
     90  N          3.8260  -24.5020   -3.6040 N.am  122  SER122     -0.1936
     91  CA         3.7540  -25.3000   -2.3890 C.3   122  SER122      0.2055
     92  C          2.5430  -24.9410   -1.5280 C.2   122  SER122      0.2643
     93  O          1.8810  -23.9240   -1.7550 O.2   122  SER122     -0.2714
     94  CB         5.0440  -25.1580   -1.5800 C.3   122  SER122      0.2130
     95  OG         5.1960  -23.8380   -1.1170 O.3   122  SER122     -0.2179
     96  N          2.2550  -25.7860   -0.5380 N.am  123  ASN123     -0.1957
     97  CA         1.0910  -25.5670    0.3120 C.3   123  ASN123      0.1819
     98  C          1.4190  -24.6260    1.4650 C.2   123  ASN123      0.2621
     99  O          1.1940  -24.9750    2.6280 O.2   123  ASN123     -0.2715
    100  CB         0.5660  -26.8930    0.8610 C.3   123  ASN123      0.1195
    101  CG        -0.3970  -27.5720   -0.0800 C.2   123  ASN123      0.2630
    102  OD1       -1.0050  -26.9300   -0.9440 O.2   123  ASN123     -0.2716
    103  ND2       -0.5580  -28.8810    0.0890 N.am  123  ASN123     -0.0877
    104  N          1.9600  -23.4460    1.1370 N.am  124  LYS124     -0.1977
    105  CA         2.1630  -22.3990    2.1280 C.3   124  LYS124      0.1596
    106  C          0.8210  -21.9050    2.6660 C.2   124  LYS124      0.2287
    107  O         -0.1520  -21.7710    1.9250 O.2   124  LYS124     -0.2864
    108  CB         2.9780  -21.2340    1.5350 C.3   124  LYS124      0.0298
    109  CG         4.4840  -21.4970    1.4590 C.3   124  LYS124      0.0038
    110  CD         5.1150  -21.3720    2.8430 C.3   124  LYS124      0.0206
    111  CE         6.5410  -21.8980    2.8830 C.3   124  LYS124      0.1093
    112  NZ         7.5280  -20.9520    2.2900 N.3   124  LYS124     -0.1314
@<TRIPOS>BOND
     1    89    87   ar
     2    89    88   ar
     3    87    85   ar
     4    88    86   ar
     5    85    84   ar
     6    85    83   ar
     7    84    82   ar
     8    86    83   ar
     9    83    81   ar
    10    70    68   ar
    11    70    71   ar
    12    82    81   ar
    13    68    67   ar
    14    81    80    1
    15    73    71   ar
    16    73    75   ar
    17    71    69   ar
    18    67    69   ar
    19    67    66    1
    20    21    20    1
    21    75    74   ar
    22    69    72   ar
    23    22    20    1
    24    80    77    1
    25    20    17    1
    26    66    63    1
    27    74    72   ar
    28    52    51    2
    29    77    76    1
    30    77    78    1
    31     9     8    1
    32    76    64   am
    33    19    18    2
    34    64    63    1
    35    64    65    2
    36    29    27    1
    37    17    18    1
    38    17    16    1
    39    63    62    1
    40    51    50    1
    41    18    23   am
    42     8     7    1
    43    79    78    2
    44    78    90   am
    45    15    14    1
    46     7     6    1
    47    23    24    1
    48    62    56   am
    49    24    27    1
    50    24    25    1
    51    27    28    1
    52     6     5    1
    53    14    11    1
    54    49    50    1
    55    50    53    1
    56    54    55    1
    57    90    91    1
    58    25    26    2
    59    56    55    1
    60    56    57    2
    61    11    12    1
    62    11    10    1
    63     5     2    1
    64    55    58    1
    65    12    13    2
    66    91    94    1
    67    91    92    1
    68     4     3    2
    69    60    59   ar
    70    58    59    1
    71     2     3    1
    72     2     1    1
    73    93    92    2
    74    94    95    1
    75    92    96   am
    76    59    61   ar
    77    41    40    2
    78   102   101    2
    79    96    97    1
    80    40    39    1
    81   101   103   am
    82   101   100    1
    83    97   100    1
    84    97    98    1
    85    36    34    1
    86    42    39    1
    87    42    43    1
    88    39    38    1
    89   104    98   am
    90   104   105    1
    91    34    35    1
    92    34    31    1
    93   109   108    1
    94   109   110    1
    95    98    99    2
    96    33    32    2
    97   108   105    1
    98    38    32   am
    99    32    31    1
   100   107   106    2
   101    35    37    1
   102   105   106    1
   103   112   111    1
   104    43    45   ar
   105    43    44   ar
   106    31    30    1
   107    45    47   ar
   108   110   111    1
   109    44    46   ar
   110    47    48   ar
   111    46    48   ar
