@<TRIPOS>MOLECULE
tmp/3wcxA01.pdb
 123 117 0 0 0
SMALL
GASTEIGER

@<TRIPOS>ATOM
      1  N         12.0970  -19.3120   12.5150 N.3    10  ASN10      -0.1240
      2  CA        12.2590  -19.9310   11.2120 C.3    10  ASN10       0.1653
      3  C         13.4570  -20.8790   11.2870 C.2    10  ASN10       0.2266
      4  O         14.5850  -20.4320   11.4850 O.2    10  ASN10      -0.2867
      5  CB        12.4640  -18.8500   10.1420 C.3    10  ASN10       0.1155
      6  CG        12.5560  -19.4090    8.7280 C.2    10  ASN10       0.2627
      7  OD1       13.2090  -20.4330    8.4890 O.2    10  ASN10      -0.2716
      8  ND2       11.9370  -18.7100    7.7670 N.am   10  ASN10      -0.0877
      9  N         14.8270  -23.0550    9.0600 N.3    12  PHE12      -0.1241
     10  CA        15.6240  -23.4050    7.8790 C.3    12  PHE12       0.1605
     11  C         15.9080  -24.9210    7.7990 C.2    12  PHE12       0.2264
     12  O         17.0550  -25.3450    7.6040 O.2    12  PHE12      -0.2867
     13  CB        16.9340  -22.5950    7.8770 C.3    12  PHE12       0.0534
     14  CG        17.7350  -22.7190    6.6050 C.ar   12  PHE12      -0.0203
     15  CD1       17.1330  -22.5290    5.3690 C.ar   12  PHE12      -0.0042
     16  CD2       19.0940  -23.0230    6.6480 C.ar   12  PHE12      -0.0042
     17  CE1       17.8680  -22.6320    4.1990 C.ar   12  PHE12      -0.0003
     18  CE2       19.8320  -23.1200    5.4810 C.ar   12  PHE12      -0.0003
     19  CZ        19.2200  -22.9340    4.2540 C.ar   12  PHE12      -0.0000
     20  N          9.5690  -23.1970    8.1030 N.3    47  GLU47      -0.1245
     21  CA        10.5220  -23.9660    7.2840 C.3    47  GLU47       0.1567
     22  C         10.8870  -25.3100    7.8750 C.2    47  GLU47       0.2260
     23  O         11.9920  -25.8090    7.6760 O.2    47  GLU47      -0.2867
     24  CB        11.7590  -23.1260    6.9140 C.3    47  GLU47       0.0388
     25  CG        11.3840  -21.8140    6.2310 C.3    47  GLU47       0.1160
     26  CD        12.5610  -21.1340    5.5450 C.2    47  GLU47       0.3649
     27  OE1       13.6590  -21.7410    5.4590 O.co2  47  GLU47      -0.2457
     28  OE2       12.3800  -19.9840    5.0820 O.co2  47  GLU47      -0.2457
     29  N          3.9550  -18.4290    7.7090 N.3   144  HIS144     -0.1241
     30  CA         5.1500  -17.9940    7.0080 C.3   144  HIS144      0.1621
     31  C          4.6550  -17.3590    5.7230 C.2   144  HIS144      0.2264
     32  O          4.1860  -18.0530    4.8210 O.2   144  HIS144     -0.2867
     33  CB         6.0370  -19.2190    6.7080 C.3   144  HIS144      0.0745
     34  CG         7.3730  -18.8840    6.0860 C.ar  144  HIS144      0.0817
     35  ND1        8.2170  -19.8380    5.6350 N.ar  144  HIS144     -0.2268
     36  CD2        8.0130  -17.6610    5.8730 C.ar  144  HIS144      0.1154
     37  CE1        9.3310  -19.2550    5.1320 C.ar  144  HIS144      0.1986
     38  NE2        9.2110  -17.9260    5.2860 N.ar  144  HIS144     -0.2212
     39  N          7.5040  -15.0220    0.3900 N.3   147  SER147     -0.1202
     40  CA         8.8820  -14.5570    0.3860 C.3   147  SER147      0.2020
     41  C          9.1150  -13.6480   -0.8240 C.2   147  SER147      0.2619
     42  O          8.3470  -13.6710   -1.7830 O.2   147  SER147     -0.2717
     43  CB         9.8470  -15.7470    0.3510 C.3   147  SER147      0.2103
     44  OG         9.7450  -16.3960   -0.9130 O.3   147  SER147     -0.2182
     45  N         10.1680  -12.8420   -0.7700 N.am  148  THR148     -0.1952
     46  CA        10.5350  -11.9880   -1.8980 C.3   148  THR148      0.1897
     47  C         11.3490  -12.7840   -2.9200 C.2   148  THR148      0.2313
     48  O         12.5760  -12.7390   -2.9360 O.2   148  THR148     -0.2863
     49  CB        11.2850  -10.7350   -1.4120 C.3   148  THR148      0.1794
     50  OG1       10.4860  -10.0970   -0.4100 O.3   148  THR148     -0.2208
     51  CG2       11.5170   -9.7350   -2.5700 C.3   148  THR148      0.0378
     52  N          7.1900  -15.7700   10.6550 N.3   188  ASP188     -0.1239
     53  CA         7.9980  -15.0900    9.6660 C.3   188  ASP188      0.1674
     54  C          7.0700  -14.4380    8.6420 C.2   188  ASP188      0.2266
     55  O          6.5730  -15.1050    7.7200 O.2   188  ASP188     -0.2867
     56  CB         8.9460  -16.1010    8.9950 C.3   188  ASP188      0.1410
     57  CG         9.8830  -15.4580    7.9780 C.2   188  ASP188      0.3668
     58  OD1        9.7270  -14.2560    7.7080 O.co2 188  ASP188     -0.2456
     59  OD2       10.7810  -16.1680    7.4530 O.co2 188  ASP188     -0.2456
     60  N          7.8050  -11.9390    6.6060 N.3   190  ASN190     -0.1240
     61  CA         8.5490  -11.4610    5.4430 C.3   190  ASN190      0.1653
     62  C          8.2960   -9.9890    5.1210 C.2   190  ASN190      0.2266
     63  O          8.3170   -9.5830    3.9630 O.2   190  ASN190     -0.2867
     64  CB         8.2940  -12.3540    4.2190 C.3   190  ASN190      0.1155
     65  CG         9.3400  -13.4420    4.0820 C.2   190  ASN190      0.2627
     66  OD1       10.5280  -13.1580    4.0720 O.2   190  ASN190     -0.2716
     67  ND2        8.9030  -14.6950    4.0010 N.am  190  ASN190     -0.0877
     68  N         16.5730  -11.0880   10.5750 N.3   220  PHE220     -0.1241
     69  CA        17.2750  -11.6830    9.4330 C.3   220  PHE220      0.1605
     70  C         18.5490  -10.9180    9.0770 C.2   220  PHE220      0.2264
     71  O         18.5590  -10.0740    8.1680 O.2   220  PHE220     -0.2867
     72  CB        16.3640  -11.8050    8.2080 C.3   220  PHE220      0.0534
     73  CG        16.9260  -12.6940    7.1290 C.ar  220  PHE220     -0.0203
     74  CD1       17.0860  -14.0590    7.3530 C.ar  220  PHE220     -0.0042
     75  CD2       17.3070  -12.1680    5.9030 C.ar  220  PHE220     -0.0042
     76  CE1       17.6140  -14.8860    6.3730 C.ar  220  PHE220     -0.0003
     77  CE2       17.8360  -12.9920    4.9140 C.ar  220  PHE220     -0.0003
     78  CZ        17.9870  -14.3470    5.1510 C.ar  220  PHE220     -0.0000
     79  N         24.2220  -17.2960    2.5800 N.3   231  ARG231     -0.1231
     80  CA        23.2020  -17.4830    1.5620 C.3   231  ARG231      0.1694
     81  C         22.8910  -16.1880    0.8250 C.2   231  ARG231      0.2592
     82  O         22.4830  -16.2210   -0.3340 O.2   231  ARG231     -0.2718
     83  CB        21.9220  -18.0310    2.1870 C.3   231  ARG231      0.0321
     84  CG        22.1000  -19.3590    2.9020 C.3   231  ARG231      0.0489
     85  CD        20.7650  -19.8700    3.4130 C.3   231  ARG231      0.2205
     86  NE        19.8390  -20.0730    2.3110 N.pl3 231  ARG231     -0.0865
     87  CZ        18.5470  -19.7660    2.3450 C.cat 231  ARG231      0.5346
     88  NH1       18.0070  -19.2400    3.4370 N.pl3 231  ARG231      0.1354
     89  NH2       17.7930  -19.9970    1.2790 N.pl3 231  ARG231      0.1354
     90  N         23.0600  -15.0570    1.5070 N.am  232  TYR232     -0.1976
     91  CA        22.6770  -13.7590    0.9540 C.3   232  TYR232      0.1639
     92  C         23.7190  -12.6860    1.2440 C.2   232  TYR232      0.2290
     93  O         23.4120  -11.6970    1.9040 O.2   232  TYR232     -0.2864
     94  CB        21.3170  -13.3200    1.5080 C.3   232  TYR232      0.0560
     95  CG        20.2040  -14.2790    1.1830 C.ar  232  TYR232     -0.0198
     96  CD1       19.6490  -15.0930    2.1680 C.ar  232  TYR232     -0.0009
     97  CD2       19.7220  -14.3900   -0.1160 C.ar  232  TYR232     -0.0009
     98  CE1       18.6310  -15.9800    1.8650 C.ar  232  TYR232      0.0417
     99  CE2       18.7090  -15.2750   -0.4280 C.ar  232  TYR232      0.0417
    100  CZ        18.1690  -16.0630    0.5620 C.ar  232  TYR232      0.1957
    101  OH        17.1650  -16.9360    0.2380 O.3   232  TYR232     -0.2866
    102  N         12.0760   -9.4380   10.2050 N.3   240  LEU240     -0.1245
    103  CA        10.9820  -10.0680    9.4590 C.3   240  LEU240      0.1561
    104  C          9.9720  -10.8470   10.3240 C.2   240  LEU240      0.2260
    105  O          8.9270  -11.2800    9.8230 O.2   240  LEU240     -0.2867
    106  CB        11.5460  -11.0040    8.3650 C.3   240  LEU240      0.0270
    107  CG        12.5300  -10.4420    7.3280 C.3   240  LEU240      0.0019
    108  CD1       12.9730  -11.5500    6.3740 C.3   240  LEU240      0.0001
    109  CD2       11.8990   -9.2820    6.5620 C.3   240  LEU240      0.0001
    110  N         19.0460  -19.1920    9.5520 N.3   282  GLY282     -0.1210
    111  CA        19.3300  -17.8800    8.9860 C.3   282  GLY282      0.1956
    112  C         18.6420  -16.7510    9.7410 C.2   282  GLY282      0.2611
    113  O         19.0470  -15.5900    9.6330 O.2   282  GLY282     -0.2717
    114  N         17.6240  -17.0930   10.5300 N.am  283  HIS283     -0.1975
    115  CA        16.9130  -16.1100   11.3520 C.3   283  HIS283      0.1656
    116  C         17.3480  -16.1500   12.8010 C.2   283  HIS283      0.2291
    117  O         17.8760  -17.1550   13.2870 O.2   283  HIS283     -0.2864
    118  CB        15.4150  -16.3560   11.2780 C.3   283  HIS283      0.0771
    119  CG        14.7960  -16.0240    9.9330 C.ar  283  HIS283      0.0820
    120  ND1       13.8910  -15.0340    9.7790 N.ar  283  HIS283     -0.2267
    121  CD2       14.9640  -16.6050    8.6740 C.ar  283  HIS283      0.1154
    122  CE1       13.5020  -14.9790    8.4870 C.ar  283  HIS283      0.1986
    123  NE2       14.1660  -15.9360    7.8110 N.ar  283  HIS283     -0.2212
@<TRIPOS>BOND
     1    48    47    2
     2    47    46    1
     3    51    49    1
     4    46    49    1
     5    46    45    1
     6    42    41    2
     7    49    50    1
     8    44    43    1
     9    41    45   am
    10    41    40    1
    11    99    97   ar
    12    99   100   ar
    13    82    81    2
    14    97    95   ar
    15   101   100    1
    16    43    40    1
    17    40    39    1
    18   100    98   ar
    19    81    90   am
    20    81    80    1
    21    91    92    1
    22    91    90    1
    23    91    94    1
    24    95    94    1
    25    95    96   ar
    26    92    93    2
    27    89    87    1
    28    80    83    1
    29    80    79    1
    30    98    96   ar
    31    83    84    1
    32    86    87    2
    33    86    85    1
    34    87    88    1
    35    84    85    1
    36    63    62    2
    37    67    65   am
    38    66    65    2
    39    65    64    1
    40    17    19   ar
    41    17    15   ar
    42    64    61    1
    43    19    18   ar
    44    32    31    2
    45    77    78   ar
    46    77    75   ar
    47    28    26   ar
    48    62    61    1
    49    37    38   ar
    50    37    35   ar
    51    78    76   ar
    52    38    36   ar
    53    15    14   ar
    54    61    60    1
    55    27    26   ar
    56    18    16   ar
    57    26    25    1
    58    35    34   ar
    59    31    30    1
    60    36    34   ar
    61    75    73   ar
    62    34    33    1
    63    25    24    1
    64    76    74   ar
    65   108   107    1
    66   109   107    1
    67    14    16   ar
    68    14    13    1
    69    33    30    1
    70    24    21    1
    71    30    29    1
    72    73    74   ar
    73    73    72    1
    74    21    22    1
    75    21    20    1
    76   107   106    1
    77    59    57   ar
    78    12    11    2
    79    23    22    2
    80    58    57   ar
    81    55    54    2
    82     8     6   am
    83    11    10    1
    84   123   122   ar
    85   123   121   ar
    86    13    10    1
    87    10     9    1
    88    57    56    1
    89    71    70    2
    90    72    69    1
    91   106   103    1
    92   122   120   ar
    93     7     6    2
    94    54    53    1
    95   121   119   ar
    96     6     5    1
    97   111   110    1
    98   111   112    1
    99    56    53    1
   100    70    69    1
   101    69    68    1
   102   103   102    1
   103   103   104    1
   104   113   112    2
   105    53    52    1
   106   112   114   am
   107   120   119   ar
   108   105   104    2
   109   119   118    1
   110     5     2    1
   111   114   115    1
   112     2     3    1
   113     2     1    1
   114   118   115    1
   115     3     4    2
   116   115   116    1
   117   116   117    2
