@<TRIPOS>MOLECULE
tmp/3wd1A00.pdb
 260 256 0 0 0
SMALL
GASTEIGER

@<TRIPOS>ATOM
      1  N        -18.0850   -9.2530  -38.0520 N.3     9  TYR9       -0.1241
      2  CA       -19.4770   -8.8580  -38.0290 C.3     9  TYR9        0.1605
      3  C        -19.8750   -8.2100  -39.3630 C.2     9  TYR9        0.2264
      4  O        -19.1190   -7.4830  -39.9490 O.2     9  TYR9       -0.2867
      5  CB       -19.7530   -7.8580  -36.8840 C.3     9  TYR9        0.0534
      6  CG       -20.0440   -8.4990  -35.5570 C.ar    9  TYR9       -0.0201
      7  CD1      -19.0300   -8.7660  -34.6590 C.ar    9  TYR9       -0.0009
      8  CD2      -21.3420   -8.8080  -35.1950 C.ar    9  TYR9       -0.0009
      9  CE1      -19.2900   -9.3620  -33.4320 C.ar    9  TYR9        0.0417
     10  CE2      -21.6160   -9.3580  -33.9770 C.ar    9  TYR9        0.0417
     11  CZ       -20.6010   -9.6460  -33.1040 C.ar    9  TYR9        0.1957
     12  OH       -20.9110  -10.2070  -31.8850 O.3     9  TYR9       -0.2866
     13  N        -23.1000   -6.0160  -40.2640 N.3    11  PHE11      -0.1241
     14  CA       -24.2400   -5.3160  -39.7040 C.3    11  PHE11       0.1605
     15  C        -25.0080   -4.6710  -40.8370 C.2    11  PHE11       0.2264
     16  O        -24.4060   -4.1280  -41.7260 O.2    11  PHE11      -0.2867
     17  CB       -23.8220   -4.2530  -38.6900 C.3    11  PHE11       0.0534
     18  CG       -24.9730   -3.4740  -38.2260 C.ar   11  PHE11      -0.0203
     19  CD1      -25.9380   -4.0830  -37.4460 C.ar   11  PHE11      -0.0042
     20  CD2      -25.2150   -2.2000  -38.7180 C.ar   11  PHE11      -0.0042
     21  CE1      -27.0960   -3.4310  -37.0850 C.ar   11  PHE11      -0.0003
     22  CE2      -26.3670   -1.5290  -38.3330 C.ar   11  PHE11      -0.0003
     23  CZ       -27.2900   -2.1350  -37.4830 C.ar   11  PHE11      -0.0000
     24  N        -28.3030   -7.3830  -36.6450 N.3    50  PHE50      -0.1241
     25  CA       -28.6790   -7.9430  -35.3420 C.3    50  PHE50       0.1605
     26  C        -30.1400   -8.4350  -35.3680 C.2    50  PHE50       0.2264
     27  O        -31.0230   -7.7110  -35.8580 O.2    50  PHE50      -0.2867
     28  CB       -28.5770   -6.8880  -34.1850 C.3    50  PHE50       0.0534
     29  CG       -27.1570   -6.6870  -33.6310 C.ar   50  PHE50      -0.0203
     30  CD1      -26.4840   -7.7290  -33.0190 C.ar   50  PHE50      -0.0042
     31  CD2      -26.4970   -5.4570  -33.7410 C.ar   50  PHE50      -0.0042
     32  CE1      -25.1700   -7.5870  -32.5410 C.ar   50  PHE50      -0.0003
     33  CE2      -25.1860   -5.3230  -33.2540 C.ar   50  PHE50      -0.0003
     34  CZ       -24.5370   -6.3920  -32.6750 C.ar   50  PHE50      -0.0000
     35  N        -26.8170   -6.7740  -29.2610 N.3    95  GLY95      -0.1210
     36  CA       -26.2050   -5.4750  -29.4600 C.3    95  GLY95       0.1956
     37  C        -26.5840   -4.3910  -28.4530 C.2    95  GLY95       0.2612
     38  O        -27.5460   -4.5250  -27.6760 O.2    95  GLY95      -0.2717
     39  N        -25.8550   -3.2810  -28.4690 N.am   96  TRP96      -0.1962
     40  CA       -26.1050   -2.1900  -27.4710 C.3    96  TRP96       0.1771
     41  C        -27.5220   -1.6230  -27.5600 C.2    96  TRP96       0.2619
     42  O        -28.2250   -1.5100  -26.5560 O.2    96  TRP96      -0.2715
     43  CB       -25.1030   -1.1170  -27.6260 C.3    96  TRP96       0.0590
     44  CG       -25.1960   -0.0460  -26.6280 C.ar   96  TRP96       0.0006
     45  CD1      -25.8230    1.1410  -26.8070 C.ar   96  TRP96       0.0946
     46  CD2      -24.6550   -0.0150  -25.3050 C.ar   96  TRP96       0.0152
     47  NE1      -25.7240    1.8950  -25.6920 N.ar   96  TRP96      -0.2442
     48  CE2      -24.9900    1.2370  -24.7580 C.ar   96  TRP96       0.0810
     49  CE3      -23.9370   -0.9170  -24.5210 C.ar   96  TRP96       0.0012
     50  CZ2      -24.6460    1.6100  -23.4650 C.ar   96  TRP96       0.0191
     51  CZ3      -23.5940   -0.5540  -23.2220 C.ar   96  TRP96       0.0001
     52  CH2      -23.9410    0.6970  -22.7060 C.ar   96  TRP96       0.0015
     53  N        -27.9580   -1.3290  -28.7490 N.am   97  TYR97      -0.1974
     54  CA       -29.2460   -0.6420  -28.9640 C.3    97  TYR97       0.1639
     55  C        -30.4120   -1.4470  -28.3220 C.2    97  TYR97       0.2290
     56  O        -31.1310   -0.9570  -27.4680 O.2    97  TYR97      -0.2864
     57  CB       -29.4710   -0.3590  -30.4860 C.3    97  TYR97       0.0560
     58  CG       -30.8010    0.3560  -30.7160 C.ar   97  TYR97      -0.0198
     59  CD1      -30.9900    1.7180  -30.3380 C.ar   97  TYR97      -0.0009
     60  CD2      -31.9110   -0.3550  -31.2350 C.ar   97  TYR97      -0.0009
     61  CE1      -32.2440    2.3200  -30.5160 C.ar   97  TYR97       0.0417
     62  CE2      -33.1310    0.2410  -31.4280 C.ar   97  TYR97       0.0417
     63  CZ       -33.2900    1.5680  -31.0640 C.ar   97  TYR97       0.1957
     64  OH       -34.5290    2.0790  -31.2560 O.3    97  TYR97      -0.2866
     65  N        -25.1950  -11.4780  -27.9790 N.3   141  ASP141     -0.1239
     66  CA       -24.5360  -10.2210  -27.6850 C.3   141  ASP141      0.1674
     67  C        -25.4520   -9.3160  -26.8110 C.2   141  ASP141      0.2266
     68  O        -25.7790   -8.1710  -27.1720 O.2   141  ASP141     -0.2867
     69  CB       -24.0800   -9.5210  -28.9570 C.3   141  ASP141      0.1410
     70  CG       -23.4470   -8.1090  -28.6930 C.2   141  ASP141      0.3668
     71  OD1      -23.4500   -7.3060  -29.6500 O.co2 141  ASP141     -0.2456
     72  OD2      -22.9510   -7.7950  -27.5470 O.co2 141  ASP141     -0.2456
     73  N        -25.4910   -6.9960  -23.7550 N.3   143  GLU143     -0.1231
     74  CA       -24.6420   -6.0900  -23.0340 C.3   143  GLU143      0.1699
     75  C        -25.3140   -5.3320  -21.8590 C.2   143  GLU143      0.2592
     76  O        -25.5770   -4.1370  -22.0060 O.2   143  GLU143     -0.2718
     77  CB       -24.1150   -5.0720  -24.0510 C.3   143  GLU143      0.0402
     78  CG       -23.3350   -5.7300  -25.2030 C.3   143  GLU143      0.1161
     79  CD       -22.8880   -4.7640  -26.2850 C.2   143  GLU143      0.3649
     80  OE1      -22.7950   -3.5130  -26.0080 O.co2 143  GLU143     -0.2457
     81  OE2      -22.5990   -5.2610  -27.4130 O.co2 143  GLU143     -0.2457
     82  N        -25.5150   -5.9320  -20.6730 N.am  144  TYR144     -0.1976
     83  CA       -24.9980   -7.2400  -20.2460 C.3   144  TYR144      0.1639
     84  C        -25.8760   -7.8350  -19.1540 C.2   144  TYR144      0.2290
     85  O        -26.4050   -7.0680  -18.3270 O.2   144  TYR144     -0.2864
     86  CB       -23.5690   -7.1030  -19.5900 C.3   144  TYR144      0.0560
     87  CG       -22.5350   -6.5570  -20.5170 C.ar  144  TYR144     -0.0198
     88  CD1      -21.7090   -7.3920  -21.2070 C.ar  144  TYR144     -0.0009
     89  CD2      -22.4510   -5.1660  -20.7990 C.ar  144  TYR144     -0.0009
     90  CE1      -20.7820   -6.8850  -22.1120 C.ar  144  TYR144      0.0417
     91  CE2      -21.5220   -4.6450  -21.7210 C.ar  144  TYR144      0.0417
     92  CZ       -20.7080   -5.4980  -22.3860 C.ar  144  TYR144      0.1957
     93  OH       -19.7460   -5.0350  -23.2870 O.3   144  TYR144     -0.2866
     94  N        -20.5870  -12.5540  -27.4170 N.3   183  ALA183     -0.1245
     95  CA       -19.7450  -11.3430  -27.3330 C.3   183  ALA183      0.1562
     96  C        -19.5880  -11.0380  -25.8680 C.2   183  ALA183      0.2260
     97  O        -20.5700  -10.7310  -25.1850 O.2   183  ALA183     -0.2867
     98  CB       -20.3800  -10.1510  -28.0680 C.3   183  ALA183      0.0290
     99  N        -17.8490   -4.0300  -16.6440 N.3   190  PHE190     -0.1241
    100  CA       -18.9570   -4.8690  -17.1120 C.3   190  PHE190      0.1605
    101  C        -18.7300   -6.3870  -16.8700 C.2   190  PHE190      0.2264
    102  O        -19.6780   -7.1520  -16.6180 O.2   190  PHE190     -0.2867
    103  CB       -19.1710   -4.6550  -18.5990 C.3   190  PHE190      0.0534
    104  CG       -19.8250   -3.3600  -18.9430 C.ar  190  PHE190     -0.0203
    105  CD1      -21.0770   -3.0560  -18.4440 C.ar  190  PHE190     -0.0042
    106  CD2      -19.2330   -2.4980  -19.8260 C.ar  190  PHE190     -0.0042
    107  CE1      -21.6970   -1.8980  -18.7920 C.ar  190  PHE190     -0.0003
    108  CE2      -19.8700   -1.3370  -20.1980 C.ar  190  PHE190     -0.0003
    109  CZ       -21.0950   -1.0220  -19.6650 C.ar  190  PHE190     -0.0000
    110  N        -14.9870   -8.2390  -26.3580 N.3   211  MET211     -0.1245
    111  CA       -15.0280   -6.8600  -26.9000 C.3   211  MET211      0.1570
    112  C        -13.9370   -6.0810  -26.3170 C.2   211  MET211      0.2261
    113  O        -14.1410   -5.1610  -25.5200 O.2   211  MET211     -0.2867
    114  CB       -16.3760   -6.2180  -26.6440 C.3   211  MET211      0.0387
    115  CG       -17.4070   -6.9260  -27.4580 C.3   211  MET211      0.0595
    116  SD       -19.0990   -6.3550  -27.4310 S.3   211  MET211     -0.1393
    117  CE       -19.7160   -7.2010  -25.9900 C.3   211  MET211      0.0692
    118  N        -12.3390   -3.5970  -26.9560 N.3   213  TYR213     -0.1227
    119  CA       -12.3030   -2.2890  -27.5090 C.3   213  TYR213      0.1736
    120  C        -13.3030   -1.4100  -26.7500 C.2   213  TYR213      0.2595
    121  O        -13.8830   -1.8470  -25.7490 O.2   213  TYR213     -0.2718
    122  CB       -12.6010   -2.3250  -29.0010 C.3   213  TYR213      0.0548
    123  CG       -13.6650   -3.2500  -29.4490 C.ar  213  TYR213     -0.0200
    124  CD1      -15.0070   -2.9780  -29.2140 C.ar  213  TYR213     -0.0009
    125  CD2      -13.3560   -4.4110  -30.1230 C.ar  213  TYR213     -0.0009
    126  CE1      -15.9940   -3.8290  -29.6650 C.ar  213  TYR213      0.0417
    127  CE2      -14.3370   -5.2320  -30.6130 C.ar  213  TYR213      0.0417
    128  CZ       -15.6670   -4.9200  -30.3510 C.ar  213  TYR213      0.1957
    129  OH       -16.6700   -5.7040  -30.8140 O.3   213  TYR213     -0.2866
    130  N        -13.4410   -0.1370  -27.1630 N.am  214  ASP214     -0.1974
    131  CA       -14.3230    0.7740  -26.4340 C.3   214  ASP214      0.1709
    132  C        -13.8580    0.9100  -25.0060 C.2   214  ASP214      0.2293
    133  O        -14.6920    1.0250  -24.0900 O.2   214  ASP214     -0.2864
    134  CB       -15.8010    0.2870  -26.3780 C.3   214  ASP214      0.1436
    135  CG       -16.4910    0.2330  -27.7170 C.2   214  ASP214      0.3671
    136  OD1      -15.9380    0.7800  -28.6960 O.co2 214  ASP214     -0.2456
    137  OD2      -17.6770   -0.2720  -27.7420 O.co2 214  ASP214     -0.2456
    138  N        -16.0400    9.0860  -24.6010 N.3   218  PRO218     -0.2102
    139  CA       -16.4410   10.4320  -24.1650 C.3   218  PRO218      0.1504
    140  C        -16.8350   10.3970  -22.7300 C.2   218  PRO218      0.2575
    141  O        -16.7550   11.4000  -22.0210 O.2   218  PRO218     -0.2718
    142  CB       -17.6590   10.6900  -25.0150 C.3   218  PRO218      0.0282
    143  CG       -17.2530   10.0900  -26.3170 C.3   218  PRO218      0.0208
    144  CD       -16.6780    8.7690  -25.9000 C.3   218  PRO218      0.0893
    145  N        -17.2470    9.1970  -22.3210 N.am  219  TRP219     -0.1977
    146  CA       -17.6910    8.9500  -20.9850 C.3   219  TRP219      0.1640
    147  C        -16.5460    8.9880  -19.9840 C.2   219  TRP219      0.2290
    148  O        -16.8010    9.3010  -18.8510 O.2   219  TRP219     -0.2864
    149  CB       -18.4900    7.6230  -20.9260 C.3   219  TRP219      0.0576
    150  CG       -17.7560    6.3580  -21.4640 C.ar  219  TRP219      0.0006
    151  CD1      -16.9560    5.5140  -20.7340 C.ar  219  TRP219      0.0946
    152  CD2      -17.7800    5.8140  -22.8170 C.ar  219  TRP219      0.0152
    153  NE1      -16.5190    4.4790  -21.5200 N.ar  219  TRP219     -0.2442
    154  CE2      -16.9840    4.6420  -22.8070 C.ar  219  TRP219      0.0810
    155  CE3      -18.3950    6.2050  -24.0420 C.ar  219  TRP219      0.0012
    156  CZ2      -16.7690    3.8330  -24.0000 C.ar  219  TRP219      0.0191
    157  CZ3      -18.1730    5.3850  -25.2500 C.ar  219  TRP219      0.0001
    158  CH2      -17.3690    4.2210  -25.1880 C.ar  219  TRP219      0.0015
    159  N        -12.6590    0.5850  -36.3590 N.3   291  TYR291     -0.1241
    160  CA       -13.0750    1.9840  -36.3170 C.3   291  TYR291      0.1605
    161  C        -12.2880    2.6490  -35.2150 C.2   291  TYR291      0.2264
    162  O        -11.7940    1.9630  -34.2750 O.2   291  TYR291     -0.2867
    163  CB       -14.6280    2.0770  -35.9760 C.3   291  TYR291      0.0534
    164  CG       -14.9660    1.4050  -34.6570 C.ar  291  TYR291     -0.0201
    165  CD1      -15.2280    0.0480  -34.5870 C.ar  291  TYR291     -0.0009
    166  CD2      -14.9190    2.1220  -33.4800 C.ar  291  TYR291     -0.0009
    167  CE1      -15.4500   -0.5810  -33.3440 C.ar  291  TYR291      0.0417
    168  CE2      -15.1550    1.5690  -32.2710 C.ar  291  TYR291      0.0417
    169  CZ       -15.4150    0.1780  -32.1950 C.ar  291  TYR291      0.1957
    170  OH       -15.6620   -0.4100  -30.9660 O.3   291  TYR291     -0.2866
    171  N        -12.3740    5.9190  -32.2350 N.3   293  ARG293     -0.1245
    172  CA       -13.1480    6.8610  -31.4810 C.3   293  ARG293      0.1563
    173  C        -12.4630    8.2080  -31.4690 C.2   293  ARG293      0.2260
    174  O        -11.2340    8.2960  -31.2710 O.2   293  ARG293     -0.2867
    175  CB       -13.3320    6.3090  -30.0780 C.3   293  ARG293      0.0307
    176  CG       -14.2270    5.0580  -30.0370 C.3   293  ARG293      0.0489
    177  CD       -14.9090    4.8510  -28.6850 C.3   293  ARG293      0.2205
    178  NE       -15.8980    3.7770  -28.7480 N.pl3 293  ARG293     -0.0865
    179  CZ       -17.2040    3.9710  -28.9630 C.cat 293  ARG293      0.5346
    180  NH1      -17.6880    5.1930  -29.0860 N.pl3 293  ARG293      0.1354
    181  NH2      -18.0520    2.9320  -29.0140 N.pl3 293  ARG293      0.1354
    182  N        -21.0720   13.2340  -24.6500 N.3   313  GLY313     -0.1210
    183  CA       -21.2450   11.8210  -24.3200 C.3   313  GLY313      0.1956
    184  C        -22.6590   11.3400  -24.5480 C.2   313  GLY313      0.2612
    185  O        -22.9350   10.1500  -24.4400 O.2   313  GLY313     -0.2717
    186  N        -23.5610   12.2460  -24.8990 N.am  314  GLU314     -0.1965
    187  CA       -24.9830   11.8710  -24.9490 C.3   314  GLU314      0.1733
    188  C        -25.2540   10.9720  -26.1340 C.2   314  GLU314      0.2616
    189  O        -24.4820   10.8380  -27.0990 O.2   314  GLU314     -0.2715
    190  CB       -25.9130   13.1170  -24.9620 C.3   314  GLU314      0.0429
    191  CG       -25.7550   14.0600  -23.7150 C.3   314  GLU314      0.1163
    192  CD       -24.4860   14.9910  -23.6850 C.2   314  GLU314      0.3649
    193  OE1      -23.7850   15.2260  -24.7130 O.co2 314  GLU314     -0.2457
    194  OE2      -24.1600   15.5320  -22.6100 O.co2 314  GLU314     -0.2457
    195  N        -26.4180   10.3960  -26.0770 N.am  315  ASP315     -0.1971
    196  CA       -26.8930    9.5580  -27.1370 C.3   315  ASP315      0.1709
    197  C        -28.3740    9.9020  -27.3690 C.2   315  ASP315      0.2293
    198  O        -29.1770    9.7540  -26.4890 O.2   315  ASP315     -0.2864
    199  CB       -26.6720    8.0680  -26.7000 C.3   315  ASP315      0.1436
    200  CG       -27.3960    7.1040  -27.5720 C.2   315  ASP315      0.3671
    201  OD1      -28.1380    7.5430  -28.4860 O.co2 315  ASP315     -0.2456
    202  OD2      -27.2620    5.9090  -27.3180 O.co2 315  ASP315     -0.2456
    203  N        -22.7520   11.7120  -36.4920 N.3   335  ASP335     -0.1239
    204  CA       -21.9850   11.4690  -35.2800 C.3   335  ASP335      0.1674
    205  C        -20.4820   11.5440  -35.6710 C.2   335  ASP335      0.2266
    206  O        -20.0200   10.7710  -36.5120 O.2   335  ASP335     -0.2867
    207  CB       -22.3370   10.0720  -34.7120 C.3   335  ASP335      0.1410
    208  CG       -22.0140    9.9120  -33.2380 C.2   335  ASP335      0.3668
    209  OD1      -20.9760   10.3930  -32.7400 O.co2 335  ASP335     -0.2456
    210  OD2      -22.8070    9.2800  -32.5430 O.co2 335  ASP335     -0.2456
    211  N        -18.1470   11.1550  -33.5540 N.3   337  ARG337     -0.1231
    212  CA       -17.3550   10.4560  -32.5730 C.3   337  ARG337      0.1694
    213  C        -16.8450    9.0910  -32.9620 C.2   337  ARG337      0.2591
    214  O        -16.0470    8.5270  -32.2100 O.2   337  ARG337     -0.2718
    215  CB       -18.1150   10.3130  -31.2680 C.3   337  ARG337      0.0321
    216  CG       -18.4880   11.6370  -30.6520 C.3   337  ARG337      0.0489
    217  CD       -19.4990   11.3960  -29.5110 C.3   337  ARG337      0.2205
    218  NE       -20.7490   10.8300  -30.0040 N.pl3 337  ARG337     -0.0865
    219  CZ       -21.8350   10.7200  -29.2570 C.cat 337  ARG337      0.5346
    220  NH1      -21.8700   11.2010  -28.0030 N.pl3 337  ARG337      0.1354
    221  NH2      -22.9190   10.2130  -29.8050 N.pl3 337  ARG337      0.1354
    222  N        -17.2900    8.5590  -34.0800 N.am  338  ILE338     -0.1980
    223  CA       -16.9090    7.1710  -34.5030 C.3   338  ILE338      0.1595
    224  C        -16.5860    7.2570  -35.9640 C.2   338  ILE338      0.2287
    225  O        -17.3760    7.7680  -36.7780 O.2   338  ILE338     -0.2864
    226  CB       -17.9690    6.1360  -34.2800 C.3   338  ILE338      0.0276
    227  CG1      -18.2010    5.9520  -32.7970 C.3   338  ILE338      0.0022
    228  CG2      -17.5530    4.7880  -34.8170 C.3   338  ILE338      0.0022
    229  CD1      -19.6880    5.9870  -32.4920 C.3   338  ILE338      0.0001
    230  N        -11.8010  -11.4650  -33.4290 N.3   400  MET400     -0.1245
    231  CA       -13.1350  -11.1170  -33.8560 C.3   400  MET400      0.1570
    232  C        -13.0630   -9.5890  -34.1310 C.2   400  MET400      0.2261
    233  O        -12.2120   -8.8880  -33.5840 O.2   400  MET400     -0.2867
    234  CB       -14.1580  -11.4970  -32.7830 C.3   400  MET400      0.0387
    235  CG       -15.5510  -10.8730  -32.8440 C.3   400  MET400      0.0595
    236  SD       -15.6720   -9.0350  -32.5320 S.3   400  MET400     -0.1393
    237  CE       -16.0540   -9.0770  -30.7630 C.3   400  MET400      0.0692
    238  N        -15.3840   -5.8190  -35.3520 N.3   402  TRP402     -0.1241
    239  CA       -16.5050   -5.0250  -35.7140 C.3   402  TRP402      0.1605
    240  C        -16.0440   -3.7870  -36.4680 C.2   402  TRP402      0.2264
    241  O        -15.2880   -2.9820  -35.8770 O.2   402  TRP402     -0.2867
    242  CB       -17.2680   -4.5550  -34.4520 C.3   402  TRP402      0.0550
    243  CG       -18.3430   -3.5770  -34.7680 C.ar  402  TRP402      0.0003
    244  CD1      -18.2060   -2.2110  -34.9430 C.ar  402  TRP402      0.0946
    245  CD2      -19.7490   -3.8600  -34.9280 C.ar  402  TRP402      0.0152
    246  NE1      -19.4650   -1.6410  -35.2260 N.ar  402  TRP402     -0.2442
    247  CE2      -20.4120   -2.6160  -35.2040 C.ar  402  TRP402      0.0810
    248  CE3      -20.5140   -5.0200  -34.8370 C.ar  402  TRP402      0.0012
    249  CZ2      -21.8020   -2.5240  -35.4110 C.ar  402  TRP402      0.0191
    250  CZ3      -21.9220   -4.9310  -35.0510 C.ar  402  TRP402      0.0001
    251  CH2      -22.5300   -3.7080  -35.3540 C.ar  402  TRP402      0.0015
    252  N        -16.2870   -1.5210  -42.3220 N.3   406  GLN406     -0.1245
    253  CA       -15.3630   -0.5080  -41.9210 C.3   406  GLN406      0.1566
    254  C        -13.9260   -0.7850  -42.4060 C.2   406  GLN406      0.2260
    255  O        -13.0730    0.0830  -42.2780 O.2   406  GLN406     -0.2867
    256  CB       -15.4540   -0.2720  -40.4260 C.3   406  GLN406      0.0367
    257  CG       -16.8520    0.1770  -39.9460 C.3   406  GLN406      0.0905
    258  CD       -16.9400    0.1620  -38.4310 C.2   406  GLN406      0.2608
    259  OE1      -16.4290   -0.7670  -37.7620 O.2   406  GLN406     -0.2717
    260  NE2      -17.5020    1.2110  -37.8680 N.am  406  GLN406     -0.0878
@<TRIPOS>BOND
     1   254   255    2
     2   254   253    1
     3   252   253    1
     4   253   256    1
     5    16    15    2
     6    15    14    1
     7   256   257    1
     8    13    14    1
     9     4     3    2
    10   257   258    1
    11    14    17    1
    12     3     2    1
    13    20    22   ar
    14    20    18   ar
    15    17    18    1
    16   258   260   am
    17   258   259    2
    18    22    23   ar
    19    18    19   ar
    20     1     2    1
    21     2     5    1
    22    23    21   ar
    23    19    21   ar
    24     5     6    1
    25   225   224    2
    26    24    25    1
    27   206   205    2
    28   203   204    1
    29   240   241    2
    30   240   239    1
    31   159   160    1
    32   160   163    1
    33   160   161    1
    34   163   164    1
    35   224   223    1
    36    27    26    2
    37   239   238    1
    38   239   242    1
    39   205   204    1
    40     6     8   ar
    41     6     7   ar
    42   249   251   ar
    43   249   247   ar
    44    26    25    1
    45   251   250   ar
    46    25    28    1
    47   204   207    1
    48   246   247   ar
    49   246   244   ar
    50   161   162    2
    51   247   245   ar
    52     8    10   ar
    53   250   248   ar
    54   244   243   ar
    55   245   248   ar
    56   245   243   ar
    57   228   226    1
    58   243   242    1
    59   207   208    1
    60     7     9   ar
    61   164   165   ar
    62   164   166   ar
    63   165   167   ar
    64   223   226    1
    65   223   222    1
    66   226   227    1
    67    28    29    1
    68   232   231    1
    69   232   233    2
    70   222   213   am
    71    10    11   ar
    72   231   230    1
    73   231   234    1
    74    31    29   ar
    75    31    33   ar
    76    29    30   ar
    77   211   212    1
    78   166   168   ar
    79     9    11   ar
    80   167   169   ar
    81    33    34   ar
    82   208   209   ar
    83   208   210   ar
    84    11    12    1
    85    30    32   ar
    86   213   212    1
    87   213   214    2
    88   235   234    1
    89   235   236    1
    90   227   229    1
    91    34    32   ar
    92   212   215    1
    93   236   237    1
    94   168   169   ar
    95   171   172    1
    96   169   170    1
    97   172   173    1
    98   172   175    1
    99   173   174    2
   100    62    60   ar
   101    62    63   ar
   102   215   216    1
   103    64    63    1
   104    60    58   ar
   105    63    61   ar
   106   129   128    1
   107    58    57    1
   108    58    59   ar
   109   216   217    1
   110   127   128   ar
   111   127   125   ar
   112    61    59   ar
   113    57    54    1
   114   128   126   ar
   115   125   123   ar
   116   175   176    1
   117   176   177    1
   118   218   217    1
   119   218   219    2
   120   221   219    1
   121   126   124   ar
   122    71    70   ar
   123    36    35    1
   124    36    37    1
   125   123   124   ar
   126   123   122    1
   127   219   220    1
   128   180   179    1
   129   181   179    1
   130   122   119    1
   131    54    53    1
   132    54    55    1
   133   179   178    2
   134    69    70    1
   135    69    66    1
   136    53    41   am
   137   178   177    1
   138   136   135   ar
   139    70    72   ar
   140   201   200   ar
   141    39    37   am
   142    39    40    1
   143    37    38    2
   144    55    56    2
   145    98    95    1
   146    65    66    1
   147   137   135   ar
   148   135   134    1
   149    66    67    1
   150    43    40    1
   151    43    44    1
   152   200   202   ar
   153   200   199    1
   154    41    40    1
   155    41    42    2
   156   119   118    1
   157   119   120    1
   158   115   116    1
   159   115   114    1
   160   116   117    1
   161    94    95    1
   162    81    79   ar
   163   197   196    1
   164   197   198    2
   165    95    96    1
   166    68    67    2
   167   130   120   am
   168   130   131    1
   169   196   199    1
   170   196   195    1
   171   189   188    2
   172   111   114    1
   173   111   110    1
   174   111   112    1
   175    45    44   ar
   176    45    47   ar
   177   120   121    2
   178    44    46   ar
   179   131   134    1
   180   131   132    1
   181   112   113    2
   182   143   144    1
   183   143   142    1
   184    79    80   ar
   185    79    78    1
   186   188   195   am
   187   188   187    1
   188   144   138    1
   189    96    97    2
   190    47    48   ar
   191    46    48   ar
   192    46    49   ar
   193   157   158   ar
   194   157   155   ar
   195    78    77    1
   196   158   156   ar
   197   142   139    1
   198   132   133    2
   199   190   187    1
   200   190   191    1
   201   187   186    1
   202   186   184   am
   203    48    50   ar
   204   193   192   ar
   205   182   183    1
   206   138   139    1
   207   184   185    2
   208   184   183    1
   209    49    51   ar
   210   139   140    1
   211    77    74    1
   212   155   152   ar
   213   156   154   ar
   214    73    74    1
   215   191   192    1
   216   192   194   ar
   217    50    52   ar
   218    93    92    1
   219    51    52   ar
   220    74    75    1
   221   152   154   ar
   222   152   150   ar
   223   154   153   ar
   224   140   145   am
   225   140   141    2
   226    92    90   ar
   227    92    91   ar
   228   145   146    1
   229    90    88   ar
   230    76    75    2
   231    75    82   am
   232    91    89   ar
   233   153   151   ar
   234   150   149    1
   235   150   151   ar
   236    88    87   ar
   237   146   149    1
   238   146   147    1
   239    89    87   ar
   240    82    83    1
   241    87    86    1
   242    83    86    1
   243    83    84    1
   244   108   106   ar
   245   108   109   ar
   246   147   148    2
   247   106   104   ar
   248   109   107   ar
   249    84    85    2
   250   104   103    1
   251   104   105   ar
   252   107   105   ar
   253   103   100    1
   254   100   101    1
   255   100    99    1
   256   101   102    2
