@<TRIPOS>MOLECULE
tmp/3wd4A01.pdb
 237 234 0 0 0
SMALL
GASTEIGER

@<TRIPOS>ATOM
      1  N        -18.1500   -9.3960  -37.8360 N.3     9  TYR9       -0.1241
      2  CA       -19.5510   -8.9950  -37.8590 C.3     9  TYR9        0.1605
      3  C        -19.9630   -8.4160  -39.2090 C.2     9  TYR9        0.2264
      4  O        -19.2330   -7.5800  -39.7720 O.2     9  TYR9       -0.2867
      5  CB       -19.8760   -7.9700  -36.7620 C.3     9  TYR9        0.0534
      6  CG       -20.1320   -8.6450  -35.4110 C.ar    9  TYR9       -0.0201
      7  CD1      -19.0770   -8.9130  -34.5220 C.ar    9  TYR9       -0.0009
      8  CD2      -21.4220   -8.9960  -35.0360 C.ar    9  TYR9       -0.0009
      9  CE1      -19.3170   -9.5380  -33.2790 C.ar    9  TYR9        0.0417
     10  CE2      -21.6790   -9.6050  -33.8030 C.ar    9  TYR9        0.0417
     11  CZ       -20.6210   -9.8650  -32.9330 C.ar    9  TYR9        0.1957
     12  OH       -20.8900  -10.4790  -31.7100 O.3     9  TYR9       -0.2866
     13  N        -23.0120   -6.1780  -40.1390 N.3    11  PHE11      -0.1241
     14  CA       -24.1730   -5.4860  -39.5710 C.3    11  PHE11       0.1605
     15  C        -24.9710   -4.8110  -40.6810 C.2    11  PHE11       0.2264
     16  O        -24.3910   -4.1240  -41.5300 O.2    11  PHE11      -0.2867
     17  CB       -23.7530   -4.4160  -38.5510 C.3    11  PHE11       0.0534
     18  CG       -24.9210   -3.6250  -38.0480 C.ar   11  PHE11      -0.0203
     19  CD1      -25.9010   -4.2390  -37.2950 C.ar   11  PHE11      -0.0042
     20  CD2      -25.0840   -2.2770  -38.3980 C.ar   11  PHE11      -0.0042
     21  CE1      -27.0280   -3.5510  -36.8700 C.ar   11  PHE11      -0.0003
     22  CE2      -26.2140   -1.5740  -37.9800 C.ar   11  PHE11      -0.0003
     23  CZ       -27.1940   -2.2060  -37.2150 C.ar   11  PHE11      -0.0000
     24  N        -28.3200   -7.4020  -36.4250 N.3    50  PHE50      -0.1241
     25  CA       -28.6690   -8.0680  -35.1660 C.3    50  PHE50       0.1605
     26  C        -30.1130   -8.5360  -35.2060 C.2    50  PHE50       0.2264
     27  O        -31.0090   -7.7970  -35.6950 O.2    50  PHE50      -0.2867
     28  CB       -28.5670   -7.1060  -33.9460 C.3    50  PHE50       0.0534
     29  CG       -27.1670   -6.8900  -33.4660 C.ar   50  PHE50      -0.0203
     30  CD1      -26.4920   -7.8830  -32.7710 C.ar   50  PHE50      -0.0042
     31  CD2      -26.5190   -5.6780  -33.7170 C.ar   50  PHE50      -0.0042
     32  CE1      -25.1840   -7.6910  -32.3200 C.ar   50  PHE50      -0.0003
     33  CE2      -25.2170   -5.4660  -33.2530 C.ar   50  PHE50      -0.0003
     34  CZ       -24.5470   -6.4710  -32.5660 C.ar   50  PHE50      -0.0000
     35  N        -25.8090   -3.5510  -28.3490 N.3    96  TRP96      -0.1227
     36  CA       -26.0210   -2.5170  -27.3420 C.3    96  TRP96       0.1737
     37  C        -27.4110   -1.9030  -27.4380 C.2    96  TRP96       0.2595
     38  O        -28.1030   -1.7420  -26.4350 O.2    96  TRP96      -0.2718
     39  CB       -24.9460   -1.4340  -27.4640 C.3    96  TRP96       0.0564
     40  CG       -25.1320   -0.3470  -26.4310 C.ar   96  TRP96       0.0003
     41  CD1      -25.8070    0.8820  -26.5840 C.ar   96  TRP96       0.0946
     42  CD2      -24.6450   -0.3490  -25.0460 C.ar   96  TRP96       0.0152
     43  NE1      -25.7740    1.6020  -25.4120 N.ar   96  TRP96      -0.2442
     44  CE2      -25.0980    0.9230  -24.4490 C.ar   96  TRP96       0.0810
     45  CE3      -23.9000   -1.2420  -24.2640 C.ar   96  TRP96       0.0012
     46  CZ2      -24.8070    1.2550  -23.1280 C.ar   96  TRP96       0.0191
     47  CZ3      -23.6220   -0.8990  -22.9310 C.ar   96  TRP96       0.0001
     48  CH2      -24.0670    0.3190  -22.3780 C.ar   96  TRP96       0.0015
     49  N        -27.8490   -1.5870  -28.6430 N.am   97  TYR97      -0.1976
     50  CA       -29.1350   -0.8600  -28.7860 C.3    97  TYR97       0.1639
     51  C        -30.3110   -1.6600  -28.1940 C.2    97  TYR97       0.2290
     52  O        -31.1180   -1.1300  -27.4220 O.2    97  TYR97      -0.2864
     53  CB       -29.3880   -0.5070  -30.2530 C.3    97  TYR97       0.0560
     54  CG       -30.7290    0.1730  -30.4770 C.ar   97  TYR97      -0.0198
     55  CD1      -30.9550    1.4960  -30.0600 C.ar   97  TYR97      -0.0009
     56  CD2      -31.7810   -0.5180  -31.1060 C.ar   97  TYR97      -0.0009
     57  CE1      -32.2040    2.0960  -30.2580 C.ar   97  TYR97       0.0417
     58  CE2      -33.0130    0.0720  -31.3140 C.ar   97  TYR97       0.0417
     59  CZ       -33.2180    1.3690  -30.8910 C.ar   97  TYR97       0.1957
     60  OH       -34.4520    1.9100  -31.1210 O.3    97  TYR97      -0.2866
     61  N        -25.2790  -11.5790  -27.8610 N.3   141  ASP141     -0.1239
     62  CA       -24.5320  -10.3590  -27.5250 C.3   141  ASP141      0.1674
     63  C        -25.4330   -9.5400  -26.5970 C.2   141  ASP141      0.2266
     64  O        -25.9360   -8.4810  -26.9790 O.2   141  ASP141     -0.2867
     65  CB       -24.2130   -9.5840  -28.8160 C.3   141  ASP141      0.1410
     66  CG       -23.4830   -8.2640  -28.5660 C.2   141  ASP141      0.3668
     67  OD1      -23.0030   -7.9800  -27.4250 O.co2 141  ASP141     -0.2456
     68  OD2      -23.3660   -7.4970  -29.5570 O.co2 141  ASP141     -0.2456
     69  N        -25.6000   -7.1820  -23.6280 N.3   143  GLU143     -0.1231
     70  CA       -24.6500   -6.2970  -22.9400 C.3   143  GLU143      0.1699
     71  C        -25.3400   -5.5700  -21.7620 C.2   143  GLU143      0.2592
     72  O        -25.7450   -4.4190  -21.9390 O.2   143  GLU143     -0.2718
     73  CB       -24.1020   -5.2760  -23.9730 C.3   143  GLU143      0.0402
     74  CG       -23.4320   -5.9770  -25.1820 C.3   143  GLU143      0.1161
     75  CD       -22.8400   -5.0450  -26.2290 C.2   143  GLU143      0.3649
     76  OE1      -22.7340   -3.8110  -25.9870 O.co2 143  GLU143     -0.2457
     77  OE2      -22.4930   -5.5610  -27.3280 O.co2 143  GLU143     -0.2457
     78  N        -25.4940   -6.1840  -20.5830 N.am  144  TYR144     -0.1976
     79  CA       -24.9290   -7.4900  -20.1830 C.3   144  TYR144      0.1639
     80  C        -25.8520   -8.0490  -19.1010 C.2   144  TYR144      0.2290
     81  O        -26.4310   -7.2690  -18.3180 O.2   144  TYR144     -0.2864
     82  CB       -23.5540   -7.2960  -19.5090 C.3   144  TYR144      0.0560
     83  CG       -22.5070   -6.7270  -20.4390 C.ar  144  TYR144     -0.0198
     84  CD1      -21.6860   -7.5710  -21.1920 C.ar  144  TYR144     -0.0009
     85  CD2      -22.3620   -5.3470  -20.5850 C.ar  144  TYR144     -0.0009
     86  CE1      -20.7370   -7.0570  -22.0560 C.ar  144  TYR144      0.0417
     87  CE2      -21.4140   -4.8110  -21.4560 C.ar  144  TYR144      0.0417
     88  CZ       -20.6160   -5.6730  -22.1920 C.ar  144  TYR144      0.1957
     89  OH       -19.6710   -5.1510  -23.0390 O.3   144  TYR144     -0.2866
     90  N        -20.6270  -12.6140  -27.3740 N.3   183  ALA183     -0.1245
     91  CA       -19.7430  -11.4440  -27.2820 C.3   183  ALA183      0.1562
     92  C        -19.6300  -11.1410  -25.8000 C.2   183  ALA183      0.2260
     93  O        -20.6240  -10.7780  -25.1700 O.2   183  ALA183     -0.2867
     94  CB       -20.3570  -10.2500  -28.0340 C.3   183  ALA183      0.0290
     95  N        -14.9900   -8.3850  -26.2140 N.3   211  MET211     -0.1245
     96  CA       -15.0970   -7.0640  -26.8590 C.3   211  MET211      0.1570
     97  C        -13.9830   -6.1860  -26.2900 C.2   211  MET211      0.2261
     98  O        -14.2330   -5.2570  -25.5010 O.2   211  MET211     -0.2867
     99  CB       -16.4780   -6.4810  -26.6070 C.3   211  MET211      0.0387
    100  CG       -17.5030   -7.1870  -27.4680 C.3   211  MET211      0.0595
    101  SD       -19.1800   -6.5520  -27.2850 S.3   211  MET211     -0.1393
    102  CE       -19.6390   -7.2130  -25.6810 C.3   211  MET211      0.0692
    103  N        -12.3310   -3.6420  -26.9510 N.3   213  TYR213     -0.1227
    104  CA       -12.3130   -2.3570  -27.5970 C.3   213  TYR213      0.1736
    105  C        -13.3830   -1.5210  -26.8990 C.2   213  TYR213      0.2595
    106  O        -13.9740   -1.9750  -25.9130 O.2   213  TYR213     -0.2718
    107  CB       -12.5700   -2.4550  -29.1170 C.3   213  TYR213      0.0548
    108  CG       -13.6940   -3.3930  -29.5510 C.ar  213  TYR213     -0.0200
    109  CD1      -15.0260   -3.0850  -29.2970 C.ar  213  TYR213     -0.0009
    110  CD2      -13.4120   -4.6200  -30.1790 C.ar  213  TYR213     -0.0009
    111  CE1      -16.0610   -3.9600  -29.6660 C.ar  213  TYR213      0.0417
    112  CE2      -14.4410   -5.4910  -30.5770 C.ar  213  TYR213      0.0417
    113  CZ       -15.7590   -5.1600  -30.3200 C.ar  213  TYR213      0.1957
    114  OH       -16.7860   -5.9960  -30.7280 O.3   213  TYR213     -0.2866
    115  N        -13.5710   -0.2690  -27.3220 N.am  214  ASP214     -0.1974
    116  CA       -14.4370    0.6190  -26.5550 C.3   214  ASP214      0.1709
    117  C        -13.9340    0.7370  -25.1000 C.2   214  ASP214      0.2293
    118  O        -14.7330    0.9880  -24.1820 O.2   214  ASP214     -0.2864
    119  CB       -15.8740    0.0850  -26.5490 C.3   214  ASP214      0.1436
    120  CG       -16.5370    0.1500  -27.9160 C.2   214  ASP214      0.3671
    121  OD1      -16.0410    0.8630  -28.8360 O.co2 214  ASP214     -0.2456
    122  OD2      -17.6040   -0.4830  -28.0630 O.co2 214  ASP214     -0.2456
    123  N        -16.1420    8.8310  -25.0020 N.3   218  PRO218     -0.2102
    124  CA       -16.4200   10.1620  -24.4470 C.3   218  PRO218      0.1504
    125  C        -16.9810   10.1120  -23.0380 C.2   218  PRO218      0.2575
    126  O        -16.9960   11.1450  -22.3510 O.2   218  PRO218     -0.2718
    127  CB       -17.4290   10.7710  -25.4260 C.3   218  PRO218      0.0282
    128  CG       -17.9250    9.6450  -26.2600 C.3   218  PRO218      0.0208
    129  CD       -16.9000    8.5350  -26.2210 C.3   218  PRO218      0.0893
    130  N        -17.3770    8.9130  -22.5860 N.am  219  TRP219     -0.1977
    131  CA       -17.8680    8.7430  -21.2130 C.3   219  TRP219      0.1640
    132  C        -16.7510    8.7840  -20.2240 C.2   219  TRP219      0.2290
    133  O        -17.0270    8.8310  -19.0330 O.2   219  TRP219     -0.2864
    134  CB       -18.6370    7.4240  -21.0420 C.3   219  TRP219      0.0576
    135  CG       -17.8100    6.2410  -21.5310 C.ar  219  TRP219      0.0006
    136  CD1      -16.8560    5.5100  -20.8250 C.ar  219  TRP219      0.0946
    137  CD2      -17.8030    5.6870  -22.8780 C.ar  219  TRP219      0.0152
    138  NE1      -16.2900    4.5410  -21.6210 N.ar  219  TRP219     -0.2442
    139  CE2      -16.8220    4.5930  -22.8730 C.ar  219  TRP219      0.0810
    140  CE3      -18.5010    5.9660  -24.0550 C.ar  219  TRP219      0.0012
    141  CZ2      -16.5560    3.8420  -24.0030 C.ar  219  TRP219      0.0191
    142  CZ3      -18.2310    5.1850  -25.1900 C.ar  219  TRP219      0.0001
    143  CH2      -17.2910    4.1280  -25.1520 C.ar  219  TRP219      0.0015
    144  N        -12.7350    0.3170  -36.4080 N.3   291  TYR291     -0.1241
    145  CA       -13.0670    1.7530  -36.3710 C.3   291  TYR291      0.1605
    146  C        -12.2620    2.4610  -35.2990 C.2   291  TYR291      0.2264
    147  O        -11.7250    1.8310  -34.3870 O.2   291  TYR291     -0.2867
    148  CB       -14.5480    1.9410  -36.0330 C.3   291  TYR291      0.0534
    149  CG       -14.8950    1.2920  -34.6900 C.ar  291  TYR291     -0.0201
    150  CD1      -15.2030   -0.0830  -34.6110 C.ar  291  TYR291     -0.0009
    151  CD2      -14.8730    2.0370  -33.5080 C.ar  291  TYR291     -0.0009
    152  CE1      -15.4900   -0.6900  -33.3830 C.ar  291  TYR291      0.0417
    153  CE2      -15.1500    1.4470  -32.2720 C.ar  291  TYR291      0.0417
    154  CZ       -15.4850    0.0800  -32.2260 C.ar  291  TYR291      0.1957
    155  OH       -15.7540   -0.5170  -30.9970 O.3   291  TYR291     -0.2866
    156  N        -12.2600    5.7830  -32.3690 N.3   293  ARG293     -0.1245
    157  CA       -13.0920    6.6950  -31.5960 C.3   293  ARG293      0.1563
    158  C        -12.4120    8.0640  -31.5280 C.2   293  ARG293      0.2260
    159  O        -11.1970    8.1450  -31.2340 O.2   293  ARG293     -0.2867
    160  CB       -13.2930    6.1490  -30.1760 C.3   293  ARG293      0.0307
    161  CG       -14.1870    4.8820  -30.2110 C.3   293  ARG293      0.0489
    162  CD       -14.7520    4.6400  -28.8250 C.3   293  ARG293      0.2205
    163  NE       -15.8120    3.6490  -28.8810 N.pl3 293  ARG293     -0.0865
    164  CZ       -17.1130    3.9700  -28.9010 C.cat 293  ARG293      0.5346
    165  NH1      -17.5000    5.2520  -28.8680 N.pl3 293  ARG293      0.1354
    166  NH2      -18.0110    3.0030  -28.9780 N.pl3 293  ARG293      0.1354
    167  N        -21.0890   13.0580  -24.9370 N.3   313  GLY313     -0.1210
    168  CA       -21.3120   11.6420  -24.6870 C.3   313  GLY313      0.1956
    169  C        -22.7630   11.2160  -24.8690 C.2   313  GLY313      0.2612
    170  O        -23.1000   10.0560  -24.6360 O.2   313  GLY313     -0.2717
    171  N        -23.6220   12.1280  -25.3130 N.am  314  GLU314     -0.1965
    172  CA       -25.0470   11.8340  -25.3950 C.3   314  GLU314      0.1733
    173  C        -25.3710   10.9920  -26.6200 C.2   314  GLU314      0.2616
    174  O        -24.6480   10.9880  -27.6240 O.2   314  GLU314     -0.2715
    175  CB       -25.8820   13.1390  -25.4200 C.3   314  GLU314      0.0429
    176  CG       -25.7960   13.9920  -24.1420 C.3   314  GLU314      0.1163
    177  CD       -24.4830   14.7950  -23.9980 C.2   314  GLU314      0.3649
    178  OE1      -23.7880   15.0070  -25.0210 O.co2 314  GLU314     -0.2457
    179  OE2      -24.1270   15.2200  -22.8610 O.co2 314  GLU314     -0.2457
    180  N        -26.4930   10.3040  -26.5540 N.am  315  ASP315     -0.1971
    181  CA       -26.9590    9.4950  -27.6650 C.3   315  ASP315      0.1709
    182  C        -28.4230    9.8630  -27.9020 C.2   315  ASP315      0.2293
    183  O        -29.2340    9.7050  -27.0040 O.2   315  ASP315     -0.2864
    184  CB       -26.8110    8.0170  -27.2750 C.3   315  ASP315      0.1436
    185  CG       -27.3900    7.0690  -28.3120 C.2   315  ASP315      0.3671
    186  OD1      -28.2140    7.5250  -29.1400 O.co2 315  ASP315     -0.2456
    187  OD2      -27.0190    5.8640  -28.2820 O.co2 315  ASP315     -0.2456
    188  N        -22.5960   11.6860  -36.9070 N.3   335  ASP335     -0.1239
    189  CA       -21.8840   11.4180  -35.6760 C.3   335  ASP335      0.1674
    190  C        -20.3750   11.4680  -35.9470 C.2   335  ASP335      0.2266
    191  O        -19.8250   10.6170  -36.6330 O.2   335  ASP335     -0.2867
    192  CB       -22.2800   10.0650  -35.0910 C.3   335  ASP335      0.1410
    193  CG       -21.9020    9.9420  -33.6350 C.2   335  ASP335      0.3668
    194  OD1      -20.8640   10.5080  -33.2320 O.co2 335  ASP335     -0.2456
    195  OD2      -22.6370    9.2780  -32.8730 O.co2 335  ASP335     -0.2456
    196  N        -18.0610   11.0010  -33.8350 N.3   337  ARG337     -0.1231
    197  CA       -17.3040   10.3600  -32.7410 C.3   337  ARG337      0.1694
    198  C        -16.7560    8.9840  -33.0850 C.2   337  ARG337      0.2591
    199  O        -15.9610    8.4330  -32.3370 O.2   337  ARG337     -0.2718
    200  CB       -18.1820   10.2580  -31.4700 C.3   337  ARG337      0.0321
    201  CG       -18.5100   11.6360  -30.8630 C.3   337  ARG337      0.0489
    202  CD       -19.6200   11.4840  -29.7850 C.3   337  ARG337      0.2205
    203  NE       -20.8670   10.9160  -30.3480 N.pl3 337  ARG337     -0.0865
    204  CZ       -21.9900   10.7490  -29.6480 C.cat 337  ARG337      0.5346
    205  NH1      -22.0070   11.1010  -28.3660 N.pl3 337  ARG337      0.1354
    206  NH2      -23.0860   10.2420  -30.2240 N.pl3 337  ARG337      0.1354
    207  N        -17.2110    8.4230  -34.2010 N.am  338  ILE338     -0.1980
    208  CA       -16.7440    7.1020  -34.6470 C.3   338  ILE338      0.1595
    209  C        -16.3800    7.1940  -36.1330 C.2   338  ILE338      0.2287
    210  O        -17.1660    7.7240  -36.9280 O.2   338  ILE338     -0.2864
    211  CB       -17.8570    6.0410  -34.5640 C.3   338  ILE338      0.0276
    212  CG1      -18.3780    5.9270  -33.1360 C.3   338  ILE338      0.0022
    213  CG2      -17.3560    4.6840  -35.0680 C.3   338  ILE338      0.0022
    214  CD1      -17.3820    5.2440  -32.2630 C.3   338  ILE338      0.0001
    215  N        -15.4310   -5.8920  -35.2580 N.3   402  TRP402     -0.1241
    216  CA       -16.6070   -5.1300  -35.6130 C.3   402  TRP402      0.1605
    217  C        -16.1180   -3.9210  -36.4130 C.2   402  TRP402      0.2264
    218  O        -15.2920   -3.1840  -35.8820 O.2   402  TRP402     -0.2867
    219  CB       -17.2520   -4.6060  -34.3110 C.3   402  TRP402      0.0550
    220  CG       -18.4120   -3.6850  -34.6310 C.ar  402  TRP402      0.0003
    221  CD1      -18.3780   -2.3050  -34.8490 C.ar  402  TRP402      0.0946
    222  CD2      -19.8090   -4.0680  -34.7920 C.ar  402  TRP402      0.0152
    223  NE1      -19.6350   -1.8240  -35.1500 N.ar  402  TRP402     -0.2442
    224  CE2      -20.5430   -2.8370  -35.1310 C.ar  402  TRP402      0.0810
    225  CE3      -20.5160   -5.2690  -34.6740 C.ar  402  TRP402      0.0012
    226  CZ2      -21.9270   -2.8350  -35.3430 C.ar  402  TRP402      0.0191
    227  CZ3      -21.9030   -5.2650  -34.9300 C.ar  402  TRP402      0.0001
    228  CH2      -22.5960   -4.0750  -35.2550 C.ar  402  TRP402      0.0015
    229  N        -16.3190   -1.6840  -42.2740 N.3   406  GLN406     -0.1245
    230  CA       -15.3620   -0.6660  -41.8630 C.3   406  GLN406      0.1566
    231  C        -13.9440   -0.9390  -42.3210 C.2   406  GLN406      0.2260
    232  O        -13.1060   -0.0330  -42.2640 O.2   406  GLN406     -0.2867
    233  CB       -15.4190   -0.4440  -40.3220 C.3   406  GLN406      0.0367
    234  CG       -16.7590    0.1350  -39.9010 C.3   406  GLN406      0.0905
    235  CD       -16.9450    0.1010  -38.3920 C.2   406  GLN406      0.2608
    236  OE1      -16.4630   -0.8220  -37.7180 O.2   406  GLN406     -0.2717
    237  NE2      -17.6340    1.1100  -37.8560 N.am  406  GLN406     -0.0878
@<TRIPOS>BOND
     1   231   232    2
     2   231   230    1
     3   229   230    1
     4   230   233    1
     5    16    15    2
     6    15    14    1
     7   233   234    1
     8    13    14    1
     9   234   235    1
    10     4     3    2
    11    14    17    1
    12     3     2    1
    13    17    18    1
    14    20    18   ar
    15    20    22   ar
    16   235   237   am
    17   235   236    2
    18    18    19   ar
    19    22    23   ar
    20     2     1    1
    21     2     5    1
    22    19    21   ar
    23    23    21   ar
    24   210   209    2
    25   188   189    1
    26     5     6    1
    27   191   190    2
    28    24    25    1
    29   217   218    2
    30   217   216    1
    31   144   145    1
    32   145   148    1
    33   145   146    1
    34   209   208    1
    35   148   149    1
    36   190   189    1
    37    27    26    2
    38   189   192    1
    39   216   215    1
    40   216   219    1
    41     6     8   ar
    42     6     7   ar
    43   226   228   ar
    44   226   224   ar
    45   146   147    2
    46   228   227   ar
    47    26    25    1
    48    25    28    1
    49   223   224   ar
    50   223   221   ar
    51   224   222   ar
    52   192   193    1
    53   213   211    1
    54     8    10   ar
    55   227   225   ar
    56   221   220   ar
    57   222   225   ar
    58   222   220   ar
    59   149   150   ar
    60   149   151   ar
    61   208   211    1
    62   208   207    1
    63   220   219    1
    64   150   152   ar
    65   211   212    1
    66     7     9   ar
    67   207   198   am
    68    28    29    1
    69   196   197    1
    70    10    11   ar
    71    31    29   ar
    72    31    33   ar
    73   193   194   ar
    74   193   195   ar
    75   151   153   ar
    76    29    30   ar
    77   152   154   ar
    78     9    11   ar
    79    33    34   ar
    80   212   214    1
    81   198   197    1
    82   198   199    2
    83    11    12    1
    84    30    32   ar
    85   197   200    1
    86    34    32   ar
    87   156   157    1
    88   153   154   ar
    89   154   155    1
    90   157   158    1
    91   157   160    1
    92   158   159    2
    93   200   201    1
    94    58    56   ar
    95    58    59   ar
    96    60    59    1
    97    56    54   ar
    98    59    57   ar
    99   201   202    1
   100   114   113    1
   101   112   113   ar
   102   112   110   ar
   103    54    53    1
   104    54    55   ar
   105   203   202    1
   106   203   204    2
   107   113   111   ar
   108    57    55   ar
   109    53    50    1
   110   206   204    1
   111   161   160    1
   112   161   162    1
   113   110   108   ar
   114   111   109   ar
   115   204   205    1
   116    68    66   ar
   117   108   109   ar
   118   108   107    1
   119   186   185   ar
   120   107   104    1
   121   166   164    1
   122   164   163    2
   123   164   165    1
   124   163   162    1
   125   121   120   ar
   126    65    66    1
   127    65    62    1
   128    50    49    1
   129    50    51    1
   130    49    37   am
   131    66    67   ar
   132    35    36    1
   133   185   187   ar
   134   185   184    1
   135    51    52    2
   136   122   120   ar
   137    94    91    1
   138   120   119    1
   139   182   181    1
   140   182   183    2
   141    61    62    1
   142   181   184    1
   143   181   180    1
   144   174   173    2
   145   104   103    1
   146   104   105    1
   147    62    63    1
   148   100   101    1
   149   100    99    1
   150    39    36    1
   151    39    40    1
   152    37    36    1
   153    37    38    2
   154    90    91    1
   155    77    75   ar
   156   115   105   am
   157   115   116    1
   158   101   102    1
   159    91    92    1
   160    64    63    2
   161   105   106    2
   162    96    99    1
   163    96    97    1
   164    96    95    1
   165   173   180   am
   166   173   172    1
   167    41    40   ar
   168    41    43   ar
   169   116   119    1
   170   116   117    1
   171    40    42   ar
   172    97    98    2
   173   128   129    1
   174   128   127    1
   175    75    76   ar
   176    75    74    1
   177   129   123    1
   178    92    93    2
   179   127   124    1
   180   175   172    1
   181   175   176    1
   182    43    44   ar
   183   172   171    1
   184   171   169   am
   185   142   143   ar
   186   142   140   ar
   187    74    73    1
   188   143   141   ar
   189   117   118    2
   190    42    44   ar
   191    42    45   ar
   192   178   177   ar
   193   123   124    1
   194   167   168    1
   195   169   168    1
   196   169   170    2
   197    44    46   ar
   198   124   125    1
   199    45    47   ar
   200   176   177    1
   201   140   137   ar
   202   141   139   ar
   203   177   179   ar
   204    73    70    1
   205    69    70    1
   206    46    48   ar
   207    89    88    1
   208   125   130   am
   209   125   126    2
   210    70    71    1
   211    47    48   ar
   212   137   139   ar
   213   137   135   ar
   214   139   138   ar
   215   130   131    1
   216    88    86   ar
   217    88    87   ar
   218    86    84   ar
   219    72    71    2
   220    71    78   am
   221   138   136   ar
   222   135   134    1
   223   135   136   ar
   224    87    85   ar
   225   131   134    1
   226   131   132    1
   227    84    83   ar
   228    85    83   ar
   229    78    79    1
   230    83    82    1
   231   132   133    2
   232    79    82    1
   233    79    80    1
   234    80    81    2
