@<TRIPOS>MOLECULE
tmp/3wd4A00.pdb
 109 108 0 0 0
SMALL
GASTEIGER

@<TRIPOS>ATOM
      1  N        -25.8090   -3.5510  -28.3490 N.3    96  TRP96      -0.1241
      2  CA       -26.0210   -2.5170  -27.3420 C.3    96  TRP96       0.1605
      3  C        -27.4110   -1.9030  -27.4380 C.2    96  TRP96       0.2264
      4  O        -28.1030   -1.7420  -26.4350 O.2    96  TRP96      -0.2867
      5  CB       -24.9460   -1.4340  -27.4640 C.3    96  TRP96       0.0550
      6  CG       -25.1320   -0.3470  -26.4310 C.ar   96  TRP96       0.0003
      7  CD1      -25.8070    0.8820  -26.5840 C.ar   96  TRP96       0.0946
      8  CD2      -24.6450   -0.3490  -25.0460 C.ar   96  TRP96       0.0152
      9  NE1      -25.7740    1.6020  -25.4120 N.ar   96  TRP96      -0.2442
     10  CE2      -25.0980    0.9230  -24.4490 C.ar   96  TRP96       0.0810
     11  CE3      -23.9000   -1.2420  -24.2640 C.ar   96  TRP96       0.0012
     12  CZ2      -24.8070    1.2550  -23.1280 C.ar   96  TRP96       0.0191
     13  CZ3      -23.6220   -0.8990  -22.9310 C.ar   96  TRP96       0.0001
     14  CH2      -24.0670    0.3190  -22.3780 C.ar   96  TRP96       0.0015
     15  N        -25.4940   -6.1840  -20.5830 N.3   144  TYR144     -0.1241
     16  CA       -24.9290   -7.4900  -20.1830 C.3   144  TYR144      0.1605
     17  C        -25.8520   -8.0490  -19.1010 C.2   144  TYR144      0.2264
     18  O        -26.4310   -7.2690  -18.3180 O.2   144  TYR144     -0.2867
     19  CB       -23.5540   -7.2960  -19.5090 C.3   144  TYR144      0.0534
     20  CG       -22.5070   -6.7270  -20.4390 C.ar  144  TYR144     -0.0201
     21  CD1      -21.6860   -7.5710  -21.1920 C.ar  144  TYR144     -0.0009
     22  CD2      -22.3620   -5.3470  -20.5850 C.ar  144  TYR144     -0.0009
     23  CE1      -20.7370   -7.0570  -22.0560 C.ar  144  TYR144      0.0417
     24  CE2      -21.4140   -4.8110  -21.4560 C.ar  144  TYR144      0.0417
     25  CZ       -20.6160   -5.6730  -22.1920 C.ar  144  TYR144      0.1957
     26  OH       -19.6710   -5.1510  -23.0390 O.3   144  TYR144     -0.2866
     27  N        -17.8570   -4.1210  -16.6430 N.3   190  PHE190     -0.1241
     28  CA       -18.9370   -5.0010  -17.0700 C.3   190  PHE190      0.1605
     29  C        -18.6540   -6.5000  -16.8210 C.2   190  PHE190      0.2264
     30  O        -19.5520   -7.2630  -16.4800 O.2   190  PHE190     -0.2867
     31  CB       -19.1970   -4.7830  -18.5540 C.3   190  PHE190      0.0534
     32  CG       -19.8610   -3.4810  -18.8390 C.ar  190  PHE190     -0.0203
     33  CD1      -21.0350   -3.1430  -18.1760 C.ar  190  PHE190     -0.0042
     34  CD2      -19.3320   -2.6200  -19.7740 C.ar  190  PHE190     -0.0042
     35  CE1      -21.6710   -1.9370  -18.4240 C.ar  190  PHE190     -0.0003
     36  CE2      -19.9640   -1.4020  -20.0270 C.ar  190  PHE190     -0.0003
     37  CZ       -21.1320   -1.0660  -19.3500 C.ar  190  PHE190     -0.0000
     38  N        -13.5710   -0.2690  -27.3220 N.3   214  ASP214     -0.1239
     39  CA       -14.4370    0.6190  -26.5550 C.3   214  ASP214      0.1674
     40  C        -13.9340    0.7370  -25.1000 C.2   214  ASP214      0.2266
     41  O        -14.7330    0.9880  -24.1820 O.2   214  ASP214     -0.2867
     42  CB       -15.8740    0.0850  -26.5490 C.3   214  ASP214      0.1410
     43  CG       -16.5370    0.1500  -27.9160 C.2   214  ASP214      0.3668
     44  OD1      -16.0410    0.8630  -28.8360 O.co2 214  ASP214     -0.2456
     45  OD2      -17.6040   -0.4830  -28.0630 O.co2 214  ASP214     -0.2456
     46  N        -16.1420    8.8310  -25.0020 N.3   218  PRO218     -0.2102
     47  CA       -16.4200   10.1620  -24.4470 C.3   218  PRO218      0.1504
     48  C        -16.9810   10.1120  -23.0380 C.2   218  PRO218      0.2575
     49  O        -16.9960   11.1450  -22.3510 O.2   218  PRO218     -0.2718
     50  CB       -17.4290   10.7710  -25.4260 C.3   218  PRO218      0.0282
     51  CG       -17.9250    9.6450  -26.2600 C.3   218  PRO218      0.0208
     52  CD       -16.9000    8.5350  -26.2210 C.3   218  PRO218      0.0893
     53  N        -17.3770    8.9130  -22.5860 N.am  219  TRP219     -0.1977
     54  CA       -17.8680    8.7430  -21.2130 C.3   219  TRP219      0.1640
     55  C        -16.7510    8.7840  -20.2240 C.2   219  TRP219      0.2290
     56  O        -17.0270    8.8310  -19.0330 O.2   219  TRP219     -0.2864
     57  CB       -18.6370    7.4240  -21.0420 C.3   219  TRP219      0.0576
     58  CG       -17.8100    6.2410  -21.5310 C.ar  219  TRP219      0.0006
     59  CD1      -16.8560    5.5100  -20.8250 C.ar  219  TRP219      0.0946
     60  CD2      -17.8030    5.6870  -22.8780 C.ar  219  TRP219      0.0152
     61  NE1      -16.2900    4.5410  -21.6210 N.ar  219  TRP219     -0.2442
     62  CE2      -16.8220    4.5930  -22.8730 C.ar  219  TRP219      0.0810
     63  CE3      -18.5010    5.9660  -24.0550 C.ar  219  TRP219      0.0012
     64  CZ2      -16.5560    3.8420  -24.0030 C.ar  219  TRP219      0.0191
     65  CZ3      -18.2310    5.1850  -25.1900 C.ar  219  TRP219      0.0001
     66  CH2      -17.2910    4.1280  -25.1520 C.ar  219  TRP219      0.0015
     67  N        -12.2600    5.7830  -32.3690 N.3   293  ARG293     -0.1245
     68  CA       -13.0920    6.6950  -31.5960 C.3   293  ARG293      0.1563
     69  C        -12.4120    8.0640  -31.5280 C.2   293  ARG293      0.2260
     70  O        -11.1970    8.1450  -31.2340 O.2   293  ARG293     -0.2867
     71  CB       -13.2930    6.1490  -30.1760 C.3   293  ARG293      0.0307
     72  CG       -14.1870    4.8820  -30.2110 C.3   293  ARG293      0.0489
     73  CD       -14.7520    4.6400  -28.8250 C.3   293  ARG293      0.2205
     74  NE       -15.8120    3.6490  -28.8810 N.pl3 293  ARG293     -0.0865
     75  CZ       -17.1130    3.9700  -28.9010 C.cat 293  ARG293      0.5346
     76  NH1      -17.5000    5.2520  -28.8680 N.pl3 293  ARG293      0.1354
     77  NH2      -18.0110    3.0030  -28.9780 N.pl3 293  ARG293      0.1354
     78  N        -21.0890   13.0580  -24.9370 N.3   313  GLY313     -0.1210
     79  CA       -21.3120   11.6420  -24.6870 C.3   313  GLY313      0.1956
     80  C        -22.7630   11.2160  -24.8690 C.2   313  GLY313      0.2612
     81  O        -23.1000   10.0560  -24.6360 O.2   313  GLY313     -0.2717
     82  N        -23.6220   12.1280  -25.3130 N.am  314  GLU314     -0.1965
     83  CA       -25.0470   11.8340  -25.3950 C.3   314  GLU314      0.1733
     84  C        -25.3710   10.9920  -26.6200 C.2   314  GLU314      0.2616
     85  O        -24.6480   10.9880  -27.6240 O.2   314  GLU314     -0.2715
     86  CB       -25.8820   13.1390  -25.4200 C.3   314  GLU314      0.0429
     87  CG       -25.7960   13.9920  -24.1420 C.3   314  GLU314      0.1163
     88  CD       -24.4830   14.7950  -23.9980 C.2   314  GLU314      0.3649
     89  OE1      -23.7880   15.0070  -25.0210 O.co2 314  GLU314     -0.2457
     90  OE2      -24.1270   15.2200  -22.8610 O.co2 314  GLU314     -0.2457
     91  N        -26.4930   10.3040  -26.5540 N.am  315  ASP315     -0.1971
     92  CA       -26.9590    9.4950  -27.6650 C.3   315  ASP315      0.1709
     93  C        -28.4230    9.8630  -27.9020 C.2   315  ASP315      0.2293
     94  O        -29.2340    9.7050  -27.0040 O.2   315  ASP315     -0.2864
     95  CB       -26.8110    8.0170  -27.2750 C.3   315  ASP315      0.1436
     96  CG       -27.3900    7.0690  -28.3120 C.2   315  ASP315      0.3671
     97  OD1      -28.2140    7.5250  -29.1400 O.co2 315  ASP315     -0.2456
     98  OD2      -27.0190    5.8640  -28.2820 O.co2 315  ASP315     -0.2456
     99  N        -18.0610   11.0010  -33.8350 N.3   337  ARG337     -0.1245
    100  CA       -17.3040   10.3600  -32.7410 C.3   337  ARG337      0.1563
    101  C        -16.7560    8.9840  -33.0850 C.2   337  ARG337      0.2260
    102  O        -15.9610    8.4330  -32.3370 O.2   337  ARG337     -0.2867
    103  CB       -18.1820   10.2580  -31.4700 C.3   337  ARG337      0.0307
    104  CG       -18.5100   11.6360  -30.8630 C.3   337  ARG337      0.0489
    105  CD       -19.6200   11.4840  -29.7850 C.3   337  ARG337      0.2205
    106  NE       -20.8670   10.9160  -30.3480 N.pl3 337  ARG337     -0.0865
    107  CZ       -21.9900   10.7490  -29.6480 C.cat 337  ARG337      0.5346
    108  NH1      -22.0070   11.1010  -28.3660 N.pl3 337  ARG337      0.1354
    109  NH2      -23.0860   10.2420  -30.2240 N.pl3 337  ARG337      0.1354
@<TRIPOS>BOND
     1    99   100    1
     2   101   100    1
     3   101   102    2
     4   100   103    1
     5    67    68    1
     6    68    69    1
     7    68    71    1
     8    69    70    2
     9   103   104    1
    10   104   105    1
    11   106   105    1
    12   106   107    2
    13   109   107    1
    14    72    71    1
    15    72    73    1
    16   107   108    1
    17    97    96   ar
    18    77    75    1
    19    75    74    2
    20    75    76    1
    21    74    73    1
    22    44    43   ar
    23     1     2    1
    24    96    98   ar
    25    96    95    1
    26    45    43   ar
    27    43    42    1
    28    93    92    1
    29    93    94    2
    30    92    95    1
    31    92    91    1
    32    85    84    2
    33     5     2    1
    34     5     6    1
    35     3     2    1
    36     3     4    2
    37    38    39    1
    38    84    91   am
    39    84    83    1
    40     7     6   ar
    41     7     9   ar
    42    39    42    1
    43    39    40    1
    44     6     8   ar
    45    51    52    1
    46    51    50    1
    47    52    46    1
    48    50    47    1
    49    86    83    1
    50    86    87    1
    51     9    10   ar
    52    83    82    1
    53    82    80   am
    54    65    66   ar
    55    65    63   ar
    56    66    64   ar
    57    40    41    2
    58     8    10   ar
    59     8    11   ar
    60    89    88   ar
    61    46    47    1
    62    78    79    1
    63    80    79    1
    64    80    81    2
    65    10    12   ar
    66    47    48    1
    67    11    13   ar
    68    87    88    1
    69    63    60   ar
    70    64    62   ar
    71    88    90   ar
    72    12    14   ar
    73    26    25    1
    74    48    53   am
    75    48    49    2
    76    13    14   ar
    77    60    62   ar
    78    60    58   ar
    79    62    61   ar
    80    53    54    1
    81    25    23   ar
    82    25    24   ar
    83    23    21   ar
    84    61    59   ar
    85    58    57    1
    86    58    59   ar
    87    24    22   ar
    88    54    57    1
    89    54    55    1
    90    21    20   ar
    91    22    20   ar
    92    15    16    1
    93    20    19    1
    94    55    56    2
    95    16    19    1
    96    16    17    1
    97    36    34   ar
    98    36    37   ar
    99    34    32   ar
   100    37    35   ar
   101    17    18    2
   102    32    31    1
   103    32    33   ar
   104    31    28    1
   105    35    33   ar
   106    28    29    1
   107    28    27    1
   108    29    30    2
