@<TRIPOS>MOLECULE
tmp/3wd6A01.pdb
 112 108 0 0 0
SMALL
GASTEIGER

@<TRIPOS>ATOM
      1  N        -34.2960   18.8300   -7.9690 N.3    27  MET27      -0.1245
      2  CA       -33.1400   18.0930   -7.4660 C.3    27  MET27       0.1570
      3  C        -32.1240   19.0690   -6.8940 C.2    27  MET27       0.2261
      4  O        -31.8510   20.1170   -7.4850 O.2    27  MET27      -0.2867
      5  CB       -32.5650   17.0880   -8.4580 C.3    27  MET27       0.0387
      6  CG       -31.4280   17.5730   -9.2710 C.3    27  MET27       0.0595
      7  SD       -29.7710   17.2580   -8.5700 S.3    27  MET27      -0.1393
      8  CE       -28.8460   17.6270  -10.0820 C.3    27  MET27       0.0692
      9  N        -29.6470   20.9620   -8.8020 N.3    30  CYS30      -0.1221
     10  CA       -30.0560   21.5440  -10.0740 C.3    30  CYS30       0.1794
     11  C        -30.1700   23.0810  -10.0170 C.2    30  CYS30       0.2443
     12  O        -31.0300   23.6290   -9.3060 O.2    30  CYS30      -0.2733
     13  CB       -31.3630   20.9250  -10.5850 C.3    30  CYS30       0.0970
     14  SG       -31.8860   21.6790  -12.1650 S.3    30  CYS30      -0.0800
     15  N        -29.3160   23.7890  -10.7850 N.am   31  PRO31      -0.2718
     16  CA       -29.4440   25.2580  -10.7060 C.3    31  PRO31       0.1535
     17  C        -30.7680   25.7400  -11.2700 C.2    31  PRO31       0.2598
     18  O        -31.2860   26.7570  -10.7710 O.2    31  PRO31      -0.2715
     19  CB       -28.2780   25.7890  -11.5620 C.3    31  PRO31       0.0310
     20  CG       -27.9390   24.6570  -12.4940 C.3    31  PRO31       0.0237
     21  CD       -28.2630   23.3640  -11.7230 C.3    31  PRO31       0.0939
     22  N        -31.2950   25.0520  -12.2900 N.am   32  TYR32      -0.1974
     23  CA       -32.5520   25.4960  -12.8930 C.3    32  TYR32       0.1639
     24  C        -33.6790   25.4050  -11.8810 C.2    32  TYR32       0.2290
     25  O        -34.4680   26.3490  -11.7180 O.2    32  TYR32      -0.2864
     26  CB       -32.8740   24.7210  -14.1770 C.3    32  TYR32       0.0560
     27  CG       -31.9170   25.0660  -15.2850 C.ar   32  TYR32      -0.0198
     28  CD1      -32.0500   26.2580  -16.0010 C.ar   32  TYR32      -0.0009
     29  CD2      -30.8420   24.2310  -15.5830 C.ar   32  TYR32      -0.0009
     30  CE1      -31.1550   26.5940  -17.0030 C.ar   32  TYR32       0.0417
     31  CE2      -29.9370   24.5590  -16.5900 C.ar   32  TYR32       0.0417
     32  CZ       -30.1020   25.7390  -17.2960 C.ar   32  TYR32       0.1957
     33  OH       -29.1980   26.0680  -18.2810 O.3    32  TYR32      -0.2866
     34  N        -33.8570   28.2220   -9.2080 N.3    35  ARG35      -0.1245
     35  CA       -34.6410   29.4060   -9.5540 C.3    35  ARG35       0.1563
     36  C        -36.0130   29.3690   -8.9080 C.2    35  ARG35       0.2260
     37  O        -36.4890   30.3870   -8.3790 O.2    35  ARG35      -0.2867
     38  CB       -34.8070   29.5110  -11.0730 C.3    35  ARG35       0.0307
     39  CG       -33.5710   29.9360  -11.7870 C.3    35  ARG35       0.0489
     40  CD       -33.7420   29.7200  -13.2490 C.3    35  ARG35       0.2205
     41  NE       -32.7960   30.5130  -14.0260 N.pl3  35  ARG35      -0.0865
     42  CZ       -32.7200   30.4850  -15.3480 C.cat  35  ARG35       0.5346
     43  NH1      -33.5310   29.6730  -16.0420 N.pl3  35  ARG35       0.1354
     44  NH2      -31.8410   31.2750  -15.9680 N.pl3  35  ARG35       0.1354
     45  N        -32.1030   11.9160  -11.0700 N.3    54  LEU54      -0.1245
     46  CA       -32.1600   12.1860  -12.5080 C.3    54  LEU54       0.1561
     47  C        -31.4050   11.1620  -13.3440 C.2    54  LEU54       0.2260
     48  O        -31.3430   11.2700  -14.5690 O.2    54  LEU54      -0.2867
     49  CB       -31.5770   13.5650  -12.8060 C.3    54  LEU54       0.0270
     50  CG       -32.3410   14.7590  -12.2670 C.3    54  LEU54       0.0019
     51  CD1      -31.6300   16.0260  -12.7000 C.3    54  LEU54       0.0001
     52  CD2      -33.7910   14.7440  -12.7690 C.3    54  LEU54       0.0001
     53  N        -34.6870    7.9110  -13.0610 N.3    57  LYS57      -0.1245
     54  CA       -35.9070    8.7020  -12.8730 C.3    57  LYS57       0.1561
     55  C        -37.0940    7.8550  -12.4640 C.2    57  LYS57       0.2260
     56  O        -37.2680    6.7330  -12.9630 O.2    57  LYS57      -0.2867
     57  CB       -36.2670    9.4760  -14.1440 C.3    57  LYS57       0.0271
     58  CG       -35.3470   10.6450  -14.4410 C.3    57  LYS57       0.0035
     59  CD       -35.7480   11.3560  -15.7360 C.3    57  LYS57       0.0206
     60  CE       -34.6040   12.2450  -16.2210 C.3    57  LYS57       0.1093
     61  NZ       -34.8700   12.8610  -17.5470 N.3    57  LYS57      -0.1314
     62  N        -39.4000   15.3650  -18.8520 N.3    68  ALA68      -0.1231
     63  CA       -38.5810   14.6400  -17.8690 C.3    68  ALA68       0.1694
     64  C        -37.4740   15.5110  -17.2260 C.2    68  ALA68       0.2592
     65  O        -36.3860   15.0300  -16.9060 O.2    68  ALA68      -0.2718
     66  CB       -37.9960   13.3470  -18.4730 C.3    68  ALA68       0.0304
     67  N        -37.7800   16.7850  -17.0120 N.am   69  LYS69      -0.1966
     68  CA       -36.8330   17.7000  -16.3870 C.3    69  LYS69       0.1728
     69  C        -37.3330   18.2390  -15.0560 C.2    69  LYS69       0.2616
     70  O        -38.5410   18.1460  -14.7440 O.2    69  LYS69      -0.2715
     71  CB       -36.5230   18.8690  -17.3240 C.3    69  LYS69       0.0311
     72  CG       -35.5900   18.5020  -18.4630 C.3    69  LYS69       0.0038
     73  CD       -35.5780   19.5870  -19.5260 C.3    69  LYS69       0.0206
     74  CE       -34.7890   19.1330  -20.7390 C.3    69  LYS69       0.1093
     75  NZ       -34.8350   20.1400  -21.8430 N.3    69  LYS69      -0.1314
     76  N        -36.3960   18.7890  -14.2770 N.am   70  VAL70      -0.1964
     77  CA       -36.7400   19.6300  -13.1210 C.3    70  VAL70       0.1712
     78  C        -36.3000   21.0570  -13.4320 C.2    70  VAL70       0.2458
     79  O        -35.3740   21.2590  -14.2260 O.2    70  VAL70      -0.2730
     80  CB       -36.0540   19.1490  -11.8250 C.3    70  VAL70       0.0289
     81  CG1      -36.7030   17.8640  -11.3140 C.3    70  VAL70       0.0023
     82  CG2      -34.5530   18.9650  -12.0460 C.3    70  VAL70       0.0023
     83  N        -36.9500   22.0590  -12.8220 N.am   71  PRO71      -0.2727
     84  CA       -38.0720   21.9050  -11.8850 C.3    71  PRO71       0.1402
     85  C        -39.4310   21.7210  -12.5820 C.2    71  PRO71       0.2269
     86  O        -39.6200   21.9990  -13.7910 O.2    71  PRO71      -0.2865
     87  CB       -38.1100   23.2720  -11.1850 C.3    71  PRO71       0.0296
     88  CG       -37.7340   24.2530  -12.3280 C.3    71  PRO71       0.0237
     89  CD       -36.6320   23.4840  -13.0880 C.3    71  PRO71       0.0939
     90  N        -40.4160   24.0840  -16.7240 N.3    83  GLU83      -0.1231
     91  CA       -39.5630   25.1340  -17.2900 C.3    83  GLU83       0.1699
     92  C        -39.3910   26.2280  -16.2460 C.2    83  GLU83       0.2593
     93  O        -40.3370   26.9590  -15.9340 O.2    83  GLU83      -0.2718
     94  CB       -40.1030   25.6950  -18.6060 C.3    83  GLU83       0.0402
     95  CG       -39.9790   24.7180  -19.7630 C.3    83  GLU83       0.1161
     96  CD       -38.5350   24.3730  -20.0600 C.2    83  GLU83       0.3649
     97  OE1      -37.7230   25.3070  -20.2830 O.co2  83  GLU83      -0.2457
     98  OE2      -38.2080   23.1610  -20.0680 O.co2  83  GLU83      -0.2457
     99  N        -38.1770   26.3090  -15.7000 N.am   84  SER84      -0.1938
    100  CA       -37.9000   27.1170  -14.5250 C.3    84  SER84       0.2055
    101  C        -38.4220   28.5500  -14.6300 C.2    84  SER84       0.2642
    102  O        -39.0780   29.0370  -13.7030 O.2    84  SER84      -0.2714
    103  CB       -36.4020   27.1130  -14.2310 C.3    84  SER84       0.2130
    104  OG       -35.6770   27.7550  -15.2600 O.3    84  SER84      -0.2179
    105  N        -38.1280   29.2200  -15.7460 N.am   85  LEU85      -0.1977
    106  CA       -38.5650   30.6030  -15.9270 C.3    85  LEU85       0.1596
    107  C        -40.0760   30.7010  -16.0960 C.2    85  LEU85       0.2287
    108  O        -40.6920   31.7200  -15.7520 O.2    85  LEU85      -0.2864
    109  CB       -37.8630   31.2530  -17.1220 C.3    85  LEU85       0.0297
    110  CG       -36.3490   31.4710  -16.9710 C.3    85  LEU85       0.0022
    111  CD1      -35.7900   32.2150  -18.1830 C.3    85  LEU85       0.0001
    112  CD2      -36.0390   32.2350  -15.6600 C.3    85  LEU85       0.0001
@<TRIPOS>BOND
     1    75    74    1
     2    74    73    1
     3    97    96   ar
     4    98    96   ar
     5    96    95    1
     6    95    94    1
     7    73    72    1
     8    62    63    1
     9    94    91    1
    10    66    63    1
    11    72    71    1
    12    33    32    1
    13   111   110    1
    14    63    64    1
    15    61    60    1
    16    71    68    1
    17    32    30   ar
    18    32    31   ar
    19    91    90    1
    20    91    92    1
    21    64    67   am
    22    64    65    2
    23   109   110    1
    24   109   106    1
    25    67    68    1
    26    30    28   ar
    27   110   112    1
    28    31    29   ar
    29    68    69    1
    30    92    93    2
    31    92    99   am
    32    60    59    1
    33   107   106    1
    34   107   108    2
    35    43    42    1
    36    28    27   ar
    37    44    42    1
    38   106   105    1
    39   105   101   am
    40    59    58    1
    41    99   100    1
    42    29    27   ar
    43    42    41    2
    44    27    26    1
    45   104   103    1
    46    69    70    2
    47    69    76   am
    48   101   100    1
    49   101   102    2
    50    48    47    2
    51   100   103    1
    52    58    57    1
    53    76    77    1
    54    79    78    2
    55    26    23    1
    56    57    54    1
    57    41    40    1
    58    86    85    2
    59    78    77    1
    60    78    83   am
    61    47    46    1
    62    40    39    1
    63    77    80    1
    64    89    83    1
    65    89    88    1
    66    53    54    1
    67    56    55    2
    68    23    22    1
    69    23    24    1
    70    54    55    1
    71    83    84    1
    72    49    46    1
    73    49    50    1
    74    52    50    1
    75    51    50    1
    76    85    84    1
    77    46    45    1
    78    20    21    1
    79    20    19    1
    80    88    87    1
    81    22    17   am
    82    14    13    1
    83    82    80    1
    84    84    87    1
    85    24    25    2
    86    80    81    1
    87    39    38    1
    88    21    15    1
    89    19    16    1
    90    17    18    2
    91    17    16    1
    92    38    35    1
    93    15    16    1
    94    15    11   am
    95    13    10    1
    96     8     7    1
    97    10    11    1
    98    10     9    1
    99    11    12    2
   100    35    34    1
   101    35    36    1
   102     6     7    1
   103     6     5    1
   104    36    37    2
   105     5     2    1
   106     1     2    1
   107     4     3    2
   108     2     3    1
