@<TRIPOS>MOLECULE
tmp/3wd6A00.pdb
 82 82 0 0 0
SMALL
GASTEIGER

@<TRIPOS>ATOM
      1  N        -44.2570   40.7650   -2.6520 N.3    98  ARG98      -0.1231
      2  CA       -42.8560   40.6670   -3.0490 C.3    98  ARG98       0.1679
      3  C        -42.7320   40.3900   -4.5630 C.2    98  ARG98       0.2434
      4  O        -42.2490   39.3440   -4.9840 O.2    98  ARG98      -0.2733
      5  CB       -42.1460   39.5840   -2.2200 C.3    98  ARG98       0.0321
      6  CG       -40.6430   39.5170   -2.4400 C.3    98  ARG98       0.0489
      7  CD       -39.9130   40.5950   -1.6390 C.3    98  ARG98       0.2205
      8  NE       -38.4740   40.3070   -1.5290 N.pl3  98  ARG98      -0.0865
      9  CZ       -37.6040   40.4650   -2.5310 C.cat  98  ARG98       0.5346
     10  NH1      -36.3080   40.1770   -2.3450 N.pl3  98  ARG98       0.1354
     11  NH2      -38.0380   40.9120   -3.7190 N.pl3  98  ARG98       0.1354
     12  N        -43.1870   41.3320   -5.3920 N.am   99  PRO99      -0.2718
     13  CA       -43.1170   41.0970   -6.8460 C.3    99  PRO99       0.1535
     14  C        -41.6660   40.9890   -7.3350 C.2    99  PRO99       0.2598
     15  O        -40.8400   41.8650   -7.0340 O.2    99  PRO99      -0.2715
     16  CB       -43.7890   42.3430   -7.4420 C.3    99  PRO99       0.0310
     17  CG       -43.6430   43.4120   -6.3710 C.3    99  PRO99       0.0237
     18  CD       -43.7010   42.6760   -5.0490 C.3    99  PRO99       0.0939
     19  N        -41.3630   39.9250   -8.0770 N.am  100  LEU100     -0.1964
     20  CA       -40.0100   39.7140   -8.5730 C.3   100  LEU100      0.1728
     21  C        -39.7390   40.4830   -9.8620 C.2   100  LEU100      0.2616
     22  O        -38.6330   41.0050  -10.0670 O.2   100  LEU100     -0.2715
     23  CB       -39.7450   38.2220   -8.7700 C.3   100  LEU100      0.0311
     24  CG       -39.8750   37.4690   -7.4480 C.3   100  LEU100      0.0022
     25  CD1      -39.6490   35.9720   -7.6310 C.3   100  LEU100      0.0001
     26  CD2      -38.9160   38.0710   -6.4040 C.3   100  LEU100      0.0001
     27  N        -40.7460   40.5470  -10.7270 N.am  101  LEU101     -0.1964
     28  CA       -40.5980   41.2420  -11.9920 C.3   101  LEU101      0.1713
     29  C        -41.0850   42.6850  -11.8560 C.2   101  LEU101      0.2458
     30  O        -42.1350   42.9420  -11.2480 O.2   101  LEU101     -0.2730
     31  CB       -41.3650   40.5060  -13.1000 C.3   101  LEU101      0.0310
     32  CG       -40.6790   39.2640  -13.7060 C.3   101  LEU101      0.0022
     33  CD1      -41.6580   38.3500  -14.4400 C.3   101  LEU101      0.0001
     34  CD2      -39.5280   39.6670  -14.6430 C.3   101  LEU101      0.0001
     35  N        -40.3000   43.6350  -12.3970 N.am  102  PRO102     -0.2716
     36  CA       -40.7290   45.0320  -12.5500 C.3   102  PRO102      0.1536
     37  C        -42.1220   45.0950  -13.1630 C.2   102  PRO102      0.2598
     38  O        -42.4380   44.3120  -14.0930 O.2   102  PRO102     -0.2715
     39  CB       -39.7280   45.5910  -13.5680 C.3   102  PRO102      0.0310
     40  CG       -38.4780   44.8080  -13.3440 C.3   102  PRO102      0.0237
     41  CD       -38.9250   43.4140  -12.8970 C.3   102  PRO102      0.0939
     42  N        -42.9470   46.0110  -12.6600 N.am  103  GLN103     -0.1978
     43  CA       -44.2690   46.2390  -13.2510 C.3   103  GLN103      0.1601
     44  C        -44.1620   46.9190  -14.6250 C.2   103  GLN103      0.2287
     45  O        -44.8830   46.5690  -15.5550 O.2   103  GLN103     -0.2864
     46  CB       -45.1710   47.0380  -12.2980 C.3   103  GLN103      0.0394
     47  CG       -46.0680   46.1630  -11.3590 C.3   103  GLN103      0.0908
     48  CD       -45.3040   45.4430  -10.2150 C.2   103  GLN103      0.2608
     49  OE1      -44.0620   45.4640  -10.1460 O.2   103  GLN103     -0.2717
     50  NE2      -46.0600   44.8060   -9.3130 N.am  103  GLN103     -0.0878
     51  N        -32.2270   44.3330   -9.1460 N.3   163  ASP163     -0.1225
     52  CA       -33.6170   44.7760   -9.0790 C.3   163  ASP163      0.1805
     53  C        -33.9150   45.8590   -8.0310 C.2   163  ASP163      0.2598
     54  O        -35.0650   46.2930   -7.9100 O.2   163  ASP163     -0.2718
     55  CB       -34.5670   43.5760   -8.9460 C.3   163  ASP163      0.1424
     56  CG       -34.7600   42.8520  -10.2720 C.2   163  ASP163      0.3668
     57  OD1      -35.1550   43.5280  -11.2510 O.co2 163  ASP163     -0.2456
     58  OD2      -34.4810   41.6280  -10.3590 O.co2 163  ASP163     -0.2456
     59  N        -32.8870   46.3280   -7.3240 N.am  164  GLY164     -0.1957
     60  CA       -33.0550   47.4350   -6.3900 C.3   164  GLY164      0.1869
     61  C        -32.2830   47.2190   -5.1000 C.2   164  GLY164      0.2309
     62  O        -31.1220   46.7820   -5.1480 O.2   164  GLY164     -0.2863
     63  N        -33.6050   45.1980   -2.6930 N.3   166  GLU166     -0.1231
     64  CA       -33.8700   43.7570   -2.5530 C.3   166  GLU166      0.1684
     65  C        -33.5930   43.0190   -3.8840 C.2   166  GLU166      0.2434
     66  O        -33.9420   43.5280   -4.9770 O.2   166  GLU166     -0.2733
     67  CB       -35.3540   43.5350   -2.2720 C.3   166  GLU166      0.0402
     68  CG       -35.7780   43.4600   -0.8590 C.3   166  GLU166      0.1161
     69  CD       -37.2760   43.4320   -0.7700 C.2   166  GLU166      0.3649
     70  OE1      -37.9260   43.8150   -1.7740 O.co2 166  GLU166     -0.2457
     71  OE2      -37.8120   43.0150    0.2820 O.co2 166  GLU166     -0.2457
     72  N        -33.0580   41.7840   -3.8060 N.am  167  PRO167     -0.2718
     73  CA       -32.8970   41.0280   -5.0620 C.3   167  PRO167      0.1535
     74  C        -34.2590   40.7380   -5.6990 C.2   167  PRO167      0.2599
     75  O        -35.2480   40.5100   -4.9940 O.2   167  PRO167     -0.2715
     76  CB       -32.2710   39.6920   -4.6150 C.3   167  PRO167      0.0310
     77  CG       -31.9620   39.8360   -3.1340 C.3   167  PRO167      0.0237
     78  CD       -32.8630   40.9360   -2.6160 C.3   167  PRO167      0.0939
     79  N        -34.3090   40.7530   -7.0230 N.am  168  GLY168     -0.1955
     80  CA       -35.5300   40.4510   -7.7330 C.3   168  GLY168      0.1869
     81  C        -35.3100   39.3500   -8.7580 C.2   168  GLY168      0.2309
     82  O        -34.4120   38.5040   -8.5950 O.2   168  GLY168     -0.2863
@<TRIPOS>BOND
     1    45    44    2
     2    34    32    1
     3    44    43    1
     4    33    32    1
     5    38    37    2
     6    32    31    1
     7    39    40    1
     8    39    36    1
     9    40    41    1
    10    43    42    1
    11    43    46    1
    12    37    42   am
    13    37    36    1
    14    31    28    1
    15    41    35    1
    16    36    35    1
    17    35    29   am
    18    46    47    1
    19    28    29    1
    20    28    27    1
    21    29    30    2
    22    47    48    1
    23    57    56   ar
    24    27    21   am
    25    58    56   ar
    26    56    55    1
    27    48    49    2
    28    48    50   am
    29    22    21    2
    30    21    20    1
    31    51    52    1
    32    52    55    1
    33    52    53    1
    34    23    20    1
    35    23    24    1
    36    81    82    2
    37    81    80    1
    38    20    19    1
    39    19    14   am
    40    53    54    2
    41    53    59   am
    42    80    79    1
    43    25    24    1
    44    24    26    1
    45    16    13    1
    46    16    17    1
    47    14    15    2
    48    14    13    1
    49    59    60    1
    50    79    74   am
    51    13    12    1
    52    60    61    1
    53    17    18    1
    54    74    73    1
    55    74    75    2
    56    12    18    1
    57    12     3   am
    58    62    61    2
    59    73    76    1
    60    73    72    1
    61     4     3    2
    62    66    65    2
    63    76    77    1
    64     3     2    1
    65    65    72   am
    66    65    64    1
    67    72    78    1
    68    11     9    1
    69    77    78    1
    70     2     1    1
    71     2     5    1
    72    63    64    1
    73    64    67    1
    74     9    10    1
    75     9     8    2
    76     6     5    1
    77     6     7    1
    78    67    68    1
    79    70    69   ar
    80     7     8    1
    81    68    69    1
    82    69    71   ar
