@<TRIPOS>MOLECULE
tmp/3wd7A00.pdb
 188 177 0 0 0
SMALL
GASTEIGER

@<TRIPOS>ATOM
      1  N         12.5390   29.9210  -31.8800 N.3    67  LYS67      -0.1245
      2  CA        12.5610   30.8440  -30.7500 C.3    67  LYS67       0.1561
      3  C         13.5830   30.4220  -29.6900 C.2    67  LYS67       0.2260
      4  O         14.3680   31.2520  -29.2290 O.2    67  LYS67      -0.2867
      5  CB        11.1800   30.9640  -30.1010 C.3    67  LYS67       0.0271
      6  CG        10.1830   31.7820  -30.8940 C.3    67  LYS67       0.0035
      7  CD         8.8900   32.0140  -30.1050 C.3    67  LYS67       0.0206
      8  CE         7.9170   32.8660  -30.9070 C.3    67  LYS67       0.1093
      9  NZ         6.5040   32.6970  -30.4500 N.3    67  LYS67      -0.1314
     10  N         17.0270   31.3650  -30.4650 N.3    70  LEU70      -0.1231
     11  CA        17.3410   32.7630  -30.1790 C.3    70  LEU70       0.1693
     12  C         17.5790   32.9660  -28.6870 C.2    70  LEU70       0.2591
     13  O         18.4510   33.7380  -28.2980 O.2    70  LEU70      -0.2718
     14  CB        16.2420   33.7010  -30.6760 C.3    70  LEU70       0.0284
     15  CG        16.0580   33.6630  -32.1970 C.3    70  LEU70       0.0019
     16  CD1       14.9460   34.6120  -32.6440 C.3    70  LEU70       0.0001
     17  CD2       17.3830   33.9490  -32.9290 C.3    70  LEU70       0.0001
     18  N         16.8040   32.2760  -27.8550 N.am   71  LEU71      -0.1980
     19  CA        16.9940   32.3630  -26.4130 C.3    71  LEU71       0.1596
     20  C         18.3930   31.8770  -26.0370 C.2    71  LEU71       0.2287
     21  O         19.1090   32.5520  -25.3010 O.2    71  LEU71      -0.2864
     22  CB        15.9160   31.5640  -25.6720 C.3    71  LEU71       0.0297
     23  CG        14.4860   32.1280  -25.7240 C.3    71  LEU71       0.0022
     24  CD1       13.4640   31.1810  -25.0780 C.3    71  LEU71       0.0001
     25  CD2       14.4220   33.4980  -25.0530 C.3    71  LEU71       0.0001
     26  N         21.1020   34.3530  -27.2080 N.3    74  LYS74      -0.1231
     27  CA        21.1160   35.5860  -26.4170 C.3    74  LYS74       0.1693
     28  C         21.5330   35.3520  -24.9580 C.2    74  LYS74       0.2592
     29  O         21.7740   36.2990  -24.2170 O.2    74  LYS74      -0.2718
     30  CB        19.7360   36.2540  -26.4490 C.3    74  LYS74       0.0285
     31  CG        19.3030   36.7360  -27.8120 C.3    74  LYS74       0.0035
     32  CD        20.1850   37.8970  -28.2290 C.3    74  LYS74       0.0206
     33  CE        19.6520   38.6160  -29.4560 C.3    74  LYS74       0.1093
     34  NZ        20.5280   39.7830  -29.7900 N.3    74  LYS74      -0.1314
     35  N         21.5790   34.0900  -24.5450 N.am   75  SER75      -0.1952
     36  CA        21.7890   33.7430  -23.1420 C.3    75  SER75       0.1924
     37  C         23.1540   34.1790  -22.6180 C.2    75  SER75       0.2314
     38  O         23.3450   34.3030  -21.4030 O.2    75  SER75      -0.2863
     39  CB        21.6280   32.2410  -22.9510 C.3    75  SER75       0.2116
     40  OG        22.7570   31.5550  -23.4700 O.3    75  SER75      -0.2180
     41  N         17.0790   31.8840   -6.2690 N.3   176  CYS176     -0.1235
     42  CA        18.2650   32.5320   -6.8320 C.3   176  CYS176      0.1677
     43  C         18.8990   33.6460   -5.9790 C.2   176  CYS176      0.2270
     44  O         20.0020   34.1050   -6.2890 O.2   176  CYS176     -0.2867
     45  CB        17.9320   33.0970   -8.2330 C.3   176  CYS176      0.0956
     46  SG        17.5150   31.8630   -9.5380 S.3   176  CYS176     -0.0801
     47  N          6.5160   30.1560  -22.6210 N.3   218  ILE218     -0.1231
     48  CA         7.7930   30.5410  -23.1930 C.3   218  ILE218      0.1692
     49  C          8.7640   30.8170  -22.0580 C.2   218  ILE218      0.2592
     50  O          9.9750   30.6440  -22.2240 O.2   218  ILE218     -0.2718
     51  CB         7.6580   31.7980  -24.0800 C.3   218  ILE218      0.0266
     52  CG1        6.4880   31.6180  -25.0520 C.3   218  ILE218      0.0019
     53  CG2        8.9670   32.1230  -24.8030 C.3   218  ILE218      0.0020
     54  CD1        6.7820   30.6220  -26.1470 C.3   218  ILE218      0.0001
     55  N          8.2300   31.2570  -20.9090 N.am  219  ASP219     -0.1974
     56  CA         9.0710   31.5200  -19.7470 C.3   219  ASP219      0.1709
     57  C          9.7900   30.2350  -19.3380 C.2   219  ASP219      0.2293
     58  O         10.8970   30.2960  -18.8130 O.2   219  ASP219     -0.2864
     59  CB         8.2950   32.1310  -18.5630 C.3   219  ASP219      0.1436
     60  CG         7.0570   31.3430  -18.1750 C.2   219  ASP219      0.3671
     61  OD1        6.4520   30.6590  -19.0210 O.co2 219  ASP219     -0.2456
     62  OD2        6.7000   31.4100  -16.9880 O.co2 219  ASP219     -0.2456
     63  N         12.7840   29.9080  -21.3760 N.3   222  VAL222     -0.1245
     64  CA        13.8230   30.7760  -20.8310 C.3   222  VAL222      0.1561
     65  C         14.6090   30.0260  -19.7620 C.2   222  VAL222      0.2260
     66  O         15.8480   30.0280  -19.7660 O.2   222  VAL222     -0.2867
     67  CB        13.2370   32.0760  -20.2560 C.3   222  VAL222      0.0252
     68  CG1       14.2910   32.8450  -19.4530 C.3   222  VAL222      0.0019
     69  CG2       12.6770   32.9330  -21.4000 C.3   222  VAL222      0.0019
     70  N         16.9640   27.4580  -21.1350 N.3   225  ALA225     -0.1231
     71  CA        18.1360   28.0620  -21.7590 C.3   225  ALA225      0.1694
     72  C         19.1880   28.4770  -20.7320 C.2   225  ALA225      0.2592
     73  O         20.3540   28.6890  -21.0910 O.2   225  ALA225     -0.2718
     74  CB        17.7270   29.2720  -22.6040 C.3   225  ALA225      0.0304
     75  N         18.7850   28.6160  -19.4660 N.am  226  LEU226     -0.1966
     76  CA        19.6680   29.2290  -18.4720 C.3   226  LEU226      0.1728
     77  C         20.0930   28.3200  -17.3130 C.2   226  LEU226      0.2616
     78  O         21.2680   28.3110  -16.9390 O.2   226  LEU226     -0.2715
     79  CB        19.0080   30.4930  -17.8930 C.3   226  LEU226      0.0311
     80  CG        18.5280   31.5630  -18.8850 C.3   226  LEU226      0.0022
     81  CD1       17.7350   32.6380  -18.1660 C.3   226  LEU226      0.0001
     82  CD2       19.6880   32.1760  -19.6540 C.3   226  LEU226      0.0001
     83  N         19.1530   27.5710  -16.7420 N.am  227  PHE227     -0.1974
     84  CA        19.4050   26.8410  -15.4850 C.3   227  PHE227      0.1639
     85  C         20.4860   25.7700  -15.6280 C.2   227  PHE227      0.2290
     86  O         20.5510   25.0820  -16.6580 O.2   227  PHE227     -0.2864
     87  CB        18.1040   26.2120  -14.9610 C.3   227  PHE227      0.0560
     88  CG        17.0110   27.2190  -14.6890 C.ar  227  PHE227     -0.0200
     89  CD1       17.3230   28.5460  -14.4080 C.ar  227  PHE227     -0.0042
     90  CD2       15.6740   26.8410  -14.7180 C.ar  227  PHE227     -0.0042
     91  CE1       16.3150   29.4870  -14.1590 C.ar  227  PHE227     -0.0003
     92  CE2       14.6560   27.7660  -14.4680 C.ar  227  PHE227     -0.0003
     93  CZ        14.9750   29.0940  -14.1920 C.ar  227  PHE227     -0.0000
     94  N          8.4930   36.3050  -10.2320 N.3   266  ILE266     -0.1245
     95  CA         9.2020   35.0290  -10.2870 C.3   266  ILE266      0.1561
     96  C          8.5370   34.0570   -9.3350 C.2   266  ILE266      0.2260
     97  O          8.4220   34.3430   -8.1310 O.2   266  ILE266     -0.2867
     98  CB        10.6920   35.1540   -9.9050 C.3   266  ILE266      0.0252
     99  CG1       11.4480   35.9810  -10.9540 C.3   266  ILE266      0.0019
    100  CG2       11.3230   33.7510   -9.7510 C.3   266  ILE266      0.0019
    101  CD1       12.8810   36.2320  -10.6070 C.3   266  ILE266      0.0001
    102  N          8.7420   26.6340  -12.9720 N.3   277  VAL277     -0.1245
    103  CA         9.2710   27.9700  -12.8110 C.3   277  VAL277      0.1561
    104  C          8.5870   28.9340  -13.7810 C.2   277  VAL277      0.2260
    105  O          8.4750   28.6570  -14.9850 O.2   277  VAL277     -0.2867
    106  CB        10.7950   28.0000  -13.0390 C.3   277  VAL277      0.0252
    107  CG1       11.3310   29.4040  -12.8500 C.3   277  VAL277      0.0019
    108  CG2       11.4970   27.0150  -12.0840 C.3   277  VAL277      0.0019
    109  N          8.3990   33.0530  -15.0960 N.3   279  LEU279     -0.1231
    110  CA         9.1350   34.3050  -15.1250 C.3   279  LEU279      0.1693
    111  C          8.3570   35.3520  -15.9490 C.2   279  LEU279      0.2592
    112  O          8.0790   35.1270  -17.1180 O.2   279  LEU279     -0.2718
    113  CB        10.5350   34.0760  -15.7110 C.3   279  LEU279      0.0284
    114  CG        11.3530   32.8950  -15.1390 C.3   279  LEU279      0.0019
    115  CD1       12.5110   32.4840  -16.0600 C.3   279  LEU279      0.0001
    116  CD2       11.8870   33.1680  -13.7400 C.3   279  LEU279      0.0001
    117  N          7.9480   36.4610  -15.3400 N.am  280  LYS280     -0.1966
    118  CA         7.3700   37.5680  -16.1220 C.3   280  LYS280      0.1728
    119  C          8.4470   38.2550  -16.9640 C.2   280  LYS280      0.2616
    120  O          9.6300   38.2680  -16.5910 O.2   280  LYS280     -0.2715
    121  CB         6.6790   38.5860  -15.2100 C.3   280  LYS280      0.0311
    122  CG         5.4000   38.0700  -14.5320 C.3   280  LYS280      0.0038
    123  CD         4.3550   37.6750  -15.5670 C.3   280  LYS280      0.0206
    124  CE         2.9680   37.4320  -14.9480 C.3   280  LYS280      0.1093
    125  NZ         1.9600   37.1690  -16.0330 N.3   280  LYS280     -0.1314
    126  N          8.0420   38.8390  -18.0910 N.am  281  LYS281     -0.1977
    127  CA         8.9940   39.5320  -18.9600 C.3   281  LYS281      0.1596
    128  C          9.5670   40.7960  -18.3070 C.2   281  LYS281      0.2287
    129  O         10.6430   41.2610  -18.7000 O.2   281  LYS281     -0.2864
    130  CB         8.3360   39.8970  -20.2910 C.3   281  LYS281      0.0298
    131  CG         7.7010   38.7090  -21.0080 C.3   281  LYS281      0.0038
    132  CD         7.2420   39.0910  -22.4250 C.3   281  LYS281      0.0206
    133  CE         6.4920   37.9460  -23.1240 C.3   281  LYS281      0.1093
    134  NZ         5.1150   37.7140  -22.5770 N.3   281  LYS281     -0.1314
    135  N         10.8630   41.1360  -15.4030 N.3   283  VAL283     -0.1231
    136  CA        11.7760   40.8770  -14.2920 C.3   283  VAL283      0.1678
    137  C         13.0410   41.7590  -14.3390 C.2   283  VAL283      0.2434
    138  O         13.3840   42.3750  -13.3250 O.2   283  VAL283     -0.2733
    139  CB        12.1650   39.3720  -14.2030 C.3   283  VAL283      0.0265
    140  CG1       13.3740   39.1730  -13.3090 C.3   283  VAL283      0.0020
    141  CG2       10.9870   38.5440  -13.6940 C.3   283  VAL283      0.0020
    142  N         13.7150   41.8670  -15.5000 N.am  284  PRO284     -0.2729
    143  CA        14.8970   42.7450  -15.4570 C.3   284  PRO284      0.1401
    144  C         14.5690   44.2170  -15.1670 C.2   284  PRO284      0.2269
    145  O         15.3420   44.8960  -14.4970 O.2   284  PRO284     -0.2865
    146  CB        15.5010   42.5940  -16.8630 C.3   284  PRO284      0.0296
    147  CG        14.9240   41.2930  -17.3810 C.3   284  PRO284      0.0237
    148  CD        13.5500   41.2400  -16.8260 C.3   284  PRO284      0.0939
    149  N         21.1790   35.8970  -13.0950 N.3   317  GLY317     -0.1210
    150  CA        20.0190   35.0660  -13.3580 C.3   317  GLY317      0.1956
    151  C         19.6320   35.1950  -14.8120 C.2   317  GLY317      0.2612
    152  O         19.3380   34.2130  -15.4940 O.2   317  GLY317     -0.2717
    153  N         19.6210   36.4340  -15.2670 N.am  318  GLY318     -0.1942
    154  CA        19.4710   36.7750  -16.6630 C.3   318  GLY318      0.1998
    155  C         20.5570   37.7470  -17.0780 C.2   318  GLY318      0.2481
    156  O         20.8540   38.6850  -16.3360 O.2   318  GLY318     -0.2729
    157  N         21.1910   37.5050  -18.2310 N.am  319  PRO319     -0.2715
    158  CA        22.0770   38.5350  -18.7800 C.3   319  PRO319      0.1536
    159  C         21.3520   39.8900  -18.9260 C.2   319  PRO319      0.2598
    160  O         21.9970   40.9320  -18.7880 O.2   319  PRO319     -0.2715
    161  CB        22.4750   37.9730  -20.1500 C.3   319  PRO319      0.0310
    162  CG        21.4420   36.9040  -20.4560 C.3   319  PRO319      0.0237
    163  CD        21.0720   36.3350  -19.1140 C.3   319  PRO319      0.0939
    164  N         20.0440   39.8800  -19.2020 N.am  320  ALA320     -0.1964
    165  CA        19.2940   41.1340  -19.3250 C.3   320  ALA320      0.1728
    166  C         19.2900   41.9160  -18.0150 C.2   320  ALA320      0.2616
    167  O         19.2700   43.1470  -18.0190 O.2   320  ALA320     -0.2715
    168  CB        17.8630   40.8730  -19.7830 C.3   320  ALA320      0.0334
    169  N         19.2650   41.2040  -16.8930 N.am  321  ILE321     -0.1977
    170  CA        19.2810   41.8640  -15.5890 C.3   321  ILE321      0.1596
    171  C         20.5770   42.6340  -15.3820 C.2   321  ILE321      0.2287
    172  O         20.5630   43.8080  -15.0220 O.2   321  ILE321     -0.2864
    173  CB        19.1150   40.8650  -14.4440 C.3   321  ILE321      0.0276
    174  CG1       17.7390   40.2000  -14.5150 C.3   321  ILE321      0.0022
    175  CG2       19.3320   41.5570  -13.1070 C.3   321  ILE321      0.0022
    176  CD1       17.5660   39.0710  -13.5150 C.3   321  ILE321      0.0001
    177  N         23.2170   29.6920  -15.3170 N.3   348  ASN348     -0.1240
    178  CA        22.5530   30.0700  -14.0660 C.3   348  ASN348      0.1653
    179  C         22.4290   28.9030  -13.0990 C.2   348  ASN348      0.2266
    180  O         21.4650   28.1280  -13.1480 O.2   348  ASN348     -0.2867
    181  CB        21.1760   30.6650  -14.3630 C.3   348  ASN348      0.1155
    182  CG        20.4580   31.1470  -13.1110 C.2   348  ASN348      0.2627
    183  OD1       20.9340   30.9780  -11.9800 O.2   348  ASN348     -0.2716
    184  ND2       19.3070   31.7650  -13.3110 N.am  348  ASN348     -0.0877
    185  N         15.8880   37.1710   -6.8070 N.3   386  GLY386     -0.1225
    186  CA        14.9920   36.0330   -6.8510 C.3   386  GLY386      0.1811
    187  C         13.5600   36.3380   -6.4660 C.2   386  GLY386      0.2280
    188  O         13.1540   37.4990   -6.4180 O.2   386  GLY386     -0.2866
@<TRIPOS>BOND
     1    17    15    1
     2    16    15    1
     3    15    14    1
     4     1     2    1
     5     8     9    1
     6     8     7    1
     7     6     7    1
     8     6     5    1
     9     2     5    1
    10     2     3    1
    11    14    11    1
    12    10    11    1
    13    11    12    1
    14    34    33    1
    15     3     4    2
    16    33    32    1
    17    12    13    2
    18    12    18   am
    19    32    31    1
    20    18    19    1
    21    31    30    1
    22    26    27    1
    23    30    27    1
    24    27    28    1
    25    19    20    1
    26    19    22    1
    27    54    52    1
    28    20    21    2
    29    23    22    1
    30    23    24    1
    31    23    25    1
    32    52    51    1
    33    28    35   am
    34    28    29    2
    35    53    51    1
    36    35    36    1
    37    51    48    1
    38    40    39    1
    39    48    47    1
    40    48    49    1
    41    36    39    1
    42    36    37    1
    43   133   134    1
    44   133   132    1
    45    37    38    2
    46    74    71    1
    47   132   131    1
    48    50    49    2
    49    49    55   am
    50    71    70    1
    51    71    72    1
    52    69    67    1
    53    63    64    1
    54    73    72    2
    55   131   130    1
    56    55    56    1
    57    64    67    1
    58    64    65    1
    59    72    75   am
    60   162   161    1
    61   162   163    1
    62   130   127    1
    63    67    68    1
    64   161   158    1
    65   168   165    1
    66    66    65    2
    67    56    57    1
    68    56    59    1
    69    82    80    1
    70    75    76    1
    71    57    58    2
    72   165   164    1
    73   165   166    1
    74   164   159   am
    75   163   157    1
    76    61    60   ar
    77   127   128    1
    78   127   126    1
    79   159   160    2
    80   159   158    1
    81    80    81    1
    82    80    79    1
    83   158   157    1
    84   129   128    2
    85    59    60    1
    86    76    79    1
    87    76    77    1
    88   157   155   am
    89    60    62   ar
    90   126   119   am
    91   167   166    2
    92   166   169   am
    93   147   146    1
    94   147   148    1
    95    77    78    2
    96    77    83   am
    97   112   111    2
    98   155   154    1
    99   155   156    2
   100   119   120    2
   101   119   118    1
   102   169   170    1
   103   146   143    1
   104   148   142    1
   105    83    84    1
   106   154   153    1
   107    86    85    2
   108   118   117    1
   109   118   121    1
   110   115   114    1
   111   125   124    1
   112   111   117   am
   113   111   110    1
   114   113   114    1
   115   113   110    1
   116    85    84    1
   117   170   171    1
   118   170   173    1
   119   123   124    1
   120   123   122    1
   121   142   143    1
   122   142   137   am
   123   152   151    2
   124    84    87    1
   125   143   144    1
   126   135   136    1
   127   171   172    2
   128   177   178    1
   129   153   151   am
   130   121   122    1
   131   144   145    2
   132   114   116    1
   133   110   109    1
   134   105   104    2
   135    87    88    1
   136   151   150    1
   137    90    88   ar
   138    90    92   ar
   139    88    89   ar
   140   174   173    1
   141   174   176    1
   142    92    93   ar
   143   173   175    1
   144    89    91   ar
   145   181   178    1
   146   181   182    1
   147   137   136    1
   148   137   138    2
   149   136   139    1
   150   139   141    1
   151   139   140    1
   152    93    91   ar
   153   178   179    1
   154   104   103    1
   155   150   149    1
   156   184   182   am
   157   180   179    2
   158   182   183    2
   159   106   107    1
   160   106   103    1
   161   106   108    1
   162   102   103    1
   163    99   101    1
   164    99    98    1
   165    95    94    1
   166    95    98    1
   167    95    96    1
   168    98   100    1
   169    46    45    1
   170    96    97    2
   171    45    42    1
   172   186   185    1
   173   186   187    1
   174    42    41    1
   175    42    43    1
   176   187   188    2
   177    44    43    2
