@<TRIPOS>MOLECULE
tmp/3wd9A00.pdb
 240 233 0 0 0
SMALL
GASTEIGER

@<TRIPOS>ATOM
      1  N         26.6170    8.0460  -15.0680 N.3    80  TYR80      -0.1227
      2  CA        26.4880    9.1640  -14.1160 C.3    80  TYR80       0.1736
      3  C         25.2350    9.0170  -13.2630 C.2    80  TYR80       0.2595
      4  O         25.2970    9.1620  -12.0330 O.2    80  TYR80      -0.2718
      5  CB        26.4600   10.5000  -14.8750 C.3    80  TYR80       0.0548
      6  CG        26.1750   11.7030  -14.0260 C.ar   80  TYR80      -0.0200
      7  CD1       27.2140   12.4920  -13.5360 C.ar   80  TYR80      -0.0009
      8  CD2       24.8640   12.0630  -13.7100 C.ar   80  TYR80      -0.0009
      9  CE1       26.9560   13.5950  -12.7440 C.ar   80  TYR80       0.0417
     10  CE2       24.5960   13.1630  -12.9210 C.ar   80  TYR80       0.0417
     11  CZ        25.6440   13.9340  -12.4570 C.ar   80  TYR80       0.1957
     12  OH        25.3830   15.0260  -11.6750 O.3    80  TYR80      -0.2866
     13  N         24.1070    8.7440  -13.9290 N.am   81  HIS81      -0.1975
     14  CA        22.7770    8.7130  -13.2950 C.3    81  HIS81       0.1656
     15  C         22.4790    7.4020  -12.6590 C.2    81  HIS81       0.2291
     16  O         21.5210    6.7610  -13.0210 O.2    81  HIS81      -0.2864
     17  CB        21.6540    9.0540  -14.2930 C.3    81  HIS81       0.0771
     18  CG        21.6120   10.5190  -14.6980 C.ar   81  HIS81       0.0820
     19  ND1       21.9710   10.9410  -15.9160 N.ar   81  HIS81      -0.2267
     20  CD2       21.2170   11.6520  -13.9980 C.ar   81  HIS81       0.1154
     21  CE1       21.8230   12.2750  -16.0040 C.ar   81  HIS81       0.1986
     22  NE2       21.3460   12.7100  -14.8370 N.ar   81  HIS81      -0.2212
     23  N         16.5350    5.8180  -14.1300 N.3   125  HIS125     -0.1241
     24  CA        17.0430    6.6040  -15.2690 C.3   125  HIS125      0.1621
     25  C         17.7540    5.7610  -16.3030 C.2   125  HIS125      0.2264
     26  O         18.7670    5.1240  -16.0060 O.2   125  HIS125     -0.2867
     27  CB        17.9860    7.6710  -14.7590 C.3   125  HIS125      0.0745
     28  CG        18.1680    8.8250  -15.6920 C.ar  125  HIS125      0.0817
     29  ND1       18.5030    8.6670  -16.9750 N.ar  125  HIS125     -0.2268
     30  CD2       18.1060   10.1950  -15.4690 C.ar  125  HIS125      0.1154
     31  CE1       18.6110    9.8690  -17.5620 C.ar  125  HIS125      0.1986
     32  NE2       18.3580   10.8020  -16.6360 N.ar  125  HIS125     -0.2212
     33  N         19.5140    8.2160  -20.8270 N.3   128  VAL128     -0.1231
     34  CA        19.2640    9.1480  -21.9080 C.3   128  VAL128      0.1692
     35  C         18.3270   10.3030  -21.5320 C.2   128  VAL128      0.2593
     36  O         17.5880   10.2150  -20.5600 O.2   128  VAL128     -0.2718
     37  CB        18.7720    8.4170  -23.1520 C.3   128  VAL128      0.0266
     38  CG1       19.7660    7.3410  -23.5270 C.3   128  VAL128      0.0020
     39  CG2       17.4070    7.7920  -22.9040 C.3   128  VAL128      0.0020
     40  N         18.3670   11.3790  -22.3190 N.am  129  SER129     -0.1938
     41  CA        17.6250   12.5840  -22.0280 C.3   129  SER129      0.2055
     42  C         16.1410   12.4300  -22.3170 C.2   129  SER129      0.2643
     43  O         15.7100   11.4760  -22.9350 O.2   129  SER129     -0.2714
     44  CB        18.1830   13.7240  -22.8760 C.3   129  SER129      0.2130
     45  OG        18.0270   13.4500  -24.2570 O.3   129  SER129     -0.2179
     46  N         15.3630   13.4120  -21.8940 N.am  130  ASN130     -0.1971
     47  CA        13.9460   13.4350  -22.2040 C.3   130  ASN130      0.1688
     48  C         13.7340   13.4000  -23.7050 C.2   130  ASN130      0.2292
     49  O         12.8650   12.6740  -24.1870 O.2   130  ASN130     -0.2864
     50  CB        13.2430   14.6670  -21.5800 C.3   130  ASN130      0.1181
     51  CG        12.8250   14.4290  -20.1260 C.2   130  ASN130      0.2629
     52  OD1       12.3430   13.3520  -19.7730 O.2   130  ASN130     -0.2716
     53  ND2       13.0050   15.4330  -19.2790 N.am  130  ASN130     -0.0877
     54  N         15.3510   20.3040  -16.6640 N.3   194  MET194     -0.1245
     55  CA        16.2090   21.4360  -17.0700 C.3   194  MET194      0.1570
     56  C         15.5330   22.4490  -17.9610 C.2   194  MET194      0.2261
     57  O         15.9600   23.5920  -18.0160 O.2   194  MET194     -0.2867
     58  CB        17.4640   20.9660  -17.7890 C.3   194  MET194      0.0387
     59  CG        18.3640   20.0610  -16.9500 C.3   194  MET194      0.0595
     60  SD        19.2050   20.9110  -15.5830 S.3   194  MET194     -0.1393
     61  CE        19.7430   19.4270  -14.6980 C.3   194  MET194      0.0692
     62  N         21.0400   19.2920   -7.3310 N.3   239  ASP239     -0.1225
     63  CA        21.1530   18.5480   -8.5730 C.3   239  ASP239      0.1805
     64  C         22.2670   19.0770   -9.4590 C.2   239  ASP239      0.2597
     65  O         22.8820   18.3120  -10.2150 O.2   239  ASP239     -0.2718
     66  CB        19.8650   18.6170   -9.3520 C.3   239  ASP239      0.1424
     67  CG        19.7510   17.5200  -10.3620 C.2   239  ASP239      0.3668
     68  OD1       20.4190   16.4850  -10.2410 O.co2 239  ASP239     -0.2456
     69  OD2       18.9630   17.6670  -11.2970 O.co2 239  ASP239     -0.2456
     70  N         22.4850   20.3930   -9.3750 N.am  240  LEU240     -0.1979
     71  CA        23.4440   21.0950  -10.2050 C.3   240  LEU240      0.1596
     72  C         24.7230   21.4410   -9.4420 C.2   240  LEU240      0.2287
     73  O         25.3710   22.4320   -9.7540 O.2   240  LEU240     -0.2864
     74  CB        22.7890   22.3630  -10.7760 C.3   240  LEU240      0.0297
     75  CG        22.4580   22.2560  -12.2600 C.3   240  LEU240      0.0022
     76  CD1       22.2460   20.7940  -12.6370 C.3   240  LEU240      0.0001
     77  CD2       21.2900   23.0980  -12.7050 C.3   240  LEU240      0.0001
     78  N         27.6320   19.5340   -8.7690 N.3   242  ASN242     -0.1226
     79  CA        28.9270   18.9080   -9.0450 C.3   242  ASN242      0.1770
     80  C         30.0670   19.9220   -9.0660 C.2   242  ASN242      0.2439
     81  O         31.0480   19.7870   -8.3190 O.2   242  ASN242     -0.2733
     82  CB        28.9120   18.1600  -10.3720 C.3   242  ASN242      0.1168
     83  CG        28.2370   16.7920  -10.2760 C.2   242  ASN242      0.2627
     84  OD1       28.1240   16.0910  -11.2710 O.2   242  ASN242     -0.2716
     85  ND2       27.8040   16.4090   -9.0860 N.am  242  ASN242     -0.0877
     86  N         29.9230   20.9650   -9.8910 N.am  243  PRO243     -0.2729
     87  CA        31.0190   21.8790  -10.1040 C.3   243  PRO243      0.1401
     88  C         31.3300   22.7810   -8.8860 C.2   243  PRO243      0.2269
     89  O         32.2460   23.6050   -8.9430 O.2   243  PRO243     -0.2865
     90  CB        30.5330   22.6980  -11.3240 C.3   243  PRO243      0.0296
     91  CG        29.3560   21.9350  -11.8800 C.3   243  PRO243      0.0237
     92  CD        28.7350   21.4040  -10.6450 C.3   243  PRO243      0.0939
     93  N         34.7480   17.1120   -8.6500 N.3   250  TYR250     -0.1241
     94  CA        34.1550   17.6310   -9.8810 C.3   250  TYR250      0.1605
     95  C         34.7090   16.9710  -11.1550 C.2   250  TYR250      0.2264
     96  O         34.0020   16.8070  -12.1430 O.2   250  TYR250     -0.2867
     97  CB        34.3530   19.1370   -9.9240 C.3   250  TYR250      0.0534
     98  CG        33.8370   19.8610  -11.1580 C.ar  250  TYR250     -0.0201
     99  CD1       32.7260   19.4060  -11.8600 C.ar  250  TYR250     -0.0009
    100  CD2       34.4500   21.0410  -11.5890 C.ar  250  TYR250     -0.0009
    101  CE1       32.2500   20.1000  -12.9640 C.ar  250  TYR250      0.0417
    102  CE2       33.9810   21.7430  -12.6840 C.ar  250  TYR250      0.0417
    103  CZ        32.8750   21.2750  -13.3680 C.ar  250  TYR250      0.1957
    104  OH        32.4100   21.9810  -14.4720 O.3   250  TYR250     -0.2866
    105  N         33.0340   13.5670  -11.5610 N.3   253  TRP253     -0.1227
    106  CA        31.6580   13.6870  -11.9960 C.3   253  TRP253      0.1737
    107  C         31.6530   13.9250  -13.4590 C.2   253  TRP253      0.2596
    108  O         30.8240   13.3580  -14.1630 O.2   253  TRP253     -0.2718
    109  CB        30.8980   14.8400  -11.2890 C.3   253  TRP253      0.0564
    110  CG        30.6160   14.5630   -9.8320 C.ar  253  TRP253      0.0003
    111  CD1       31.0310   15.3070   -8.7340 C.ar  253  TRP253      0.0946
    112  CD2       29.8960   13.4220   -9.2680 C.ar  253  TRP253      0.0152
    113  NE1       30.6330   14.7260   -7.5700 N.ar  253  TRP253     -0.2442
    114  CE2       29.9530   13.5850   -7.8130 C.ar  253  TRP253      0.0810
    115  CE3       29.2330   12.3100   -9.8030 C.ar  253  TRP253      0.0012
    116  CZ2       29.3730   12.6570   -6.9440 C.ar  253  TRP253      0.0191
    117  CZ3       28.6460   11.4010   -8.9220 C.ar  253  TRP253      0.0001
    118  CH2       28.7160   11.5760   -7.5310 C.ar  253  TRP253      0.0015
    119  N         32.5560   14.8020  -13.9150 N.am  254  THR254     -0.1953
    120  CA        32.6170   15.1980  -15.3070 C.3   254  THR254      0.1897
    121  C         32.9690   13.9890  -16.1830 C.2   254  THR254      0.2313
    122  O         32.3540   13.7780  -17.2240 O.2   254  THR254     -0.2863
    123  CB        33.6270   16.3420  -15.5000 C.3   254  THR254      0.1794
    124  OG1       33.2650   17.4350  -14.6610 O.3   254  THR254     -0.2208
    125  CG2       33.6740   16.8150  -16.9360 C.3   254  THR254      0.0378
    126  N         29.6750   11.8920  -16.4670 N.3   257  ILE257     -0.1231
    127  CA        28.5890   12.5160  -17.2070 C.3   257  ILE257      0.1692
    128  C         28.9040   12.6110  -18.6940 C.2   257  ILE257      0.2591
    129  O         28.0250   12.4960  -19.5350 O.2   257  ILE257     -0.2718
    130  CB        28.2730   13.9160  -16.6450 C.3   257  ILE257      0.0266
    131  CG1       26.9980   14.4980  -17.2480 C.3   257  ILE257      0.0019
    132  CG2       29.3970   14.8900  -16.9370 C.3   257  ILE257      0.0020
    133  CD1       25.7530   13.7100  -16.9730 C.3   257  ILE257      0.0001
    134  N         30.1660   12.8310  -19.0110 N.am  258  MET258     -0.1979
    135  CA        30.6120   12.8630  -20.3910 C.3   258  MET258      0.1605
    136  C         30.5250   11.4650  -20.9840 C.2   258  MET258      0.2287
    137  O         30.1110   11.2920  -22.1370 O.2   258  MET258     -0.2864
    138  CB        32.0420   13.3850  -20.4660 C.3   258  MET258      0.0413
    139  CG        32.1710   14.8670  -20.1530 C.3   258  MET258      0.0598
    140  SD        31.2270   15.8780  -21.3150 S.3   258  MET258     -0.1393
    141  CE        29.8430   16.3830  -20.2940 C.3   258  MET258      0.0692
    142  N         26.8290   11.0580  -21.7520 N.3   261  PHE261     -0.1241
    143  CA        26.3740   11.8160  -22.9260 C.3   261  PHE261      0.1605
    144  C         26.8530   11.1960  -24.2350 C.2   261  PHE261      0.2264
    145  O         26.0810   11.0880  -25.1600 O.2   261  PHE261     -0.2867
    146  CB        26.7760   13.3010  -22.8940 C.3   261  PHE261      0.0534
    147  CG        26.1360   14.0790  -21.7900 C.ar  261  PHE261     -0.0203
    148  CD1       26.7770   15.1770  -21.2460 C.ar  261  PHE261     -0.0042
    149  CD2       24.8920   13.7230  -21.2760 C.ar  261  PHE261     -0.0042
    150  CE1       26.2030   15.9180  -20.2220 C.ar  261  PHE261     -0.0003
    151  CE2       24.3190   14.4440  -20.2390 C.ar  261  PHE261     -0.0003
    152  CZ        24.9760   15.5480  -19.7150 C.ar  261  PHE261     -0.0000
    153  N         24.9930    8.2460  -25.0790 N.3   264  GLN264     -0.1245
    154  CA        23.7710    8.6240  -25.7570 C.3   264  GLN264      0.1566
    155  C         24.0110    8.8930  -27.2680 C.2   264  GLN264      0.2260
    156  O         23.1700    8.5870  -28.0880 O.2   264  GLN264     -0.2867
    157  CB        23.1540    9.8410  -25.0800 C.3   264  GLN264      0.0367
    158  CG        21.9010   10.3580  -25.7690 C.3   264  GLN264      0.0905
    159  CD        21.0140   11.1480  -24.8270 C.2   264  GLN264      0.2608
    160  OE1       21.0780   10.9830  -23.6010 O.2   264  GLN264     -0.2717
    161  NE2       20.1600   11.9990  -25.3900 N.am  264  GLN264     -0.0878
    162  N         25.8500   14.1500  -32.8170 N.3   278  MET278     -0.1245
    163  CA        26.4690   14.8990  -31.7330 C.3   278  MET278      0.1570
    164  C         27.9630   14.6400  -31.8040 C.2   278  MET278      0.2261
    165  O         28.3740   13.5530  -32.1910 O.2   278  MET278     -0.2867
    166  CB        25.8530   14.5510  -30.3550 C.3   278  MET278      0.0387
    167  CG        26.4160   13.3110  -29.6700 C.3   278  MET278      0.0595
    168  SD        26.2830   13.1800  -27.8560 S.3   278  MET278     -0.1393
    169  CE        26.2770   14.8800  -27.2810 C.3   278  MET278      0.0692
    170  N         32.6490   22.9010  -22.9070 N.3   289  SER289     -0.1202
    171  CA        31.2550   22.6310  -22.5380 C.3   289  SER289      0.2020
    172  C         31.0250   22.8930  -21.0570 C.2   289  SER289      0.2618
    173  O         29.9780   23.4350  -20.6650 O.2   289  SER289     -0.2717
    174  CB        30.8320   21.2030  -22.8920 C.3   289  SER289      0.2103
    175  OG        31.1040   20.3060  -21.8070 O.3   289  SER289     -0.2182
    176  N         32.0170   22.5430  -20.2450 N.am  290  GLN290     -0.1979
    177  CA        31.9360   22.8220  -18.8260 C.3   290  GLN290      0.1601
    178  C         31.8190   24.3020  -18.5590 C.2   290  GLN290      0.2287
    179  O         30.9050   24.7460  -17.8630 O.2   290  GLN290     -0.2864
    180  CB        33.1300   22.2190  -18.0840 C.3   290  GLN290      0.0394
    181  CG        32.9990   20.7210  -17.9860 C.3   290  GLN290      0.0908
    182  CD        31.5960   20.3240  -17.5640 C.2   290  GLN290      0.2608
    183  OE1       31.2290   20.4900  -16.4170 O.2   290  GLN290     -0.2717
    184  NE2       30.8000   19.8180  -18.5050 N.am  290  GLN290     -0.0878
    185  N         28.5620   25.6290  -19.5720 N.3   293  PHE293     -0.1241
    186  CA        27.5140   25.2440  -18.6290 C.3   293  PHE293      0.1605
    187  C         27.5600   26.0920  -17.3520 C.2   293  PHE293      0.2264
    188  O         26.5460   26.6170  -16.9050 O.2   293  PHE293     -0.2867
    189  CB        27.6090   23.7440  -18.3140 C.3   293  PHE293      0.0534
    190  CG        26.3540   23.1640  -17.7430 C.ar  293  PHE293     -0.0203
    191  CD1       25.1580   23.2320  -18.4450 C.ar  293  PHE293     -0.0042
    192  CD2       26.3640   22.5400  -16.5000 C.ar  293  PHE293     -0.0042
    193  CE1       23.9840   22.7010  -17.9200 C.ar  293  PHE293     -0.0003
    194  CE2       25.1900   22.0170  -15.9600 C.ar  293  PHE293     -0.0003
    195  CZ        24.0020   22.0910  -16.6760 C.ar  293  PHE293     -0.0000
    196  N         28.2880   19.4930  -27.3530 N.3   336  LEU336     -0.1231
    197  CA        27.6000   19.3760  -26.0850 C.3   336  LEU336      0.1693
    198  C         26.5510   20.4490  -25.8440 C.2   336  LEU336      0.2591
    199  O         25.3750   20.1370  -25.6850 O.2   336  LEU336     -0.2718
    200  CB        28.6340   19.3810  -24.9610 C.3   336  LEU336      0.0284
    201  CG        29.0630   18.0830  -24.2590 C.3   336  LEU336      0.0019
    202  CD1       28.6320   18.1570  -22.8080 C.3   336  LEU336      0.0001
    203  CD2       28.5680   16.7950  -24.9120 C.3   336  LEU336      0.0001
    204  N         26.9730   21.7090  -25.8430 N.am  337  MET337     -0.1979
    205  CA        26.1090   22.8150  -25.4280 C.3   337  MET337      0.1605
    206  C         25.1580   23.2450  -26.5300 C.2   337  MET337      0.2287
    207  O         24.0570   23.7450  -26.2580 O.2   337  MET337     -0.2864
    208  CB        26.9560   23.9940  -24.9610 C.3   337  MET337      0.0413
    209  CG        26.1710   25.1950  -24.4560 C.3   337  MET337      0.0598
    210  SD        25.4560   24.9990  -22.8130 S.3   337  MET337     -0.1393
    211  CE        26.9300   24.6000  -21.8980 C.3   337  MET337      0.0692
    212  N         23.7820   21.1380  -28.4370 N.3   339  LYS339     -0.1231
    213  CA        22.7360   20.1460  -28.3070 C.3   339  LYS339      0.1693
    214  C         21.8220   20.4100  -27.1230 C.2   339  LYS339      0.2592
    215  O         20.6070   20.3680  -27.2690 O.2   339  LYS339     -0.2718
    216  CB        23.3410   18.7600  -28.1870 C.3   339  LYS339      0.0285
    217  CG        22.3090   17.6450  -28.1390 C.3   339  LYS339      0.0035
    218  CD        22.8960   16.4260  -28.8160 C.3   339  LYS339      0.0206
    219  CE        22.3190   15.1480  -28.2660 C.3   339  LYS339      0.1093
    220  NZ        21.1640   14.6740  -29.0790 N.3   339  LYS339     -0.1314
    221  N         22.4070   20.6780  -25.9550 N.am  340  PHE340     -0.1976
    222  CA        21.6260   20.9890  -24.7570 C.3   340  PHE340      0.1639
    223  C         20.7150   22.2110  -24.9290 C.2   340  PHE340      0.2290
    224  O         19.5850   22.2110  -24.4480 O.2   340  PHE340     -0.2864
    225  CB        22.5380   21.1820  -23.5480 C.3   340  PHE340      0.0560
    226  CG        21.8460   21.7930  -22.3610 C.ar  340  PHE340     -0.0200
    227  CD1       21.1670   20.9940  -21.4460 C.ar  340  PHE340     -0.0042
    228  CD2       21.8620   23.1790  -22.1620 C.ar  340  PHE340     -0.0042
    229  CE1       20.5250   21.5660  -20.3520 C.ar  340  PHE340     -0.0003
    230  CE2       21.2150   23.7480  -21.0730 C.ar  340  PHE340     -0.0003
    231  CZ        20.5490   22.9440  -20.1630 C.ar  340  PHE340     -0.0000
    232  N         17.7770   21.6680  -27.9420 N.3   343  GLU343     -0.1245
    233  CA        16.6770   20.8560  -27.4350 C.3   343  GLU343      0.1567
    234  C         16.1200   21.3640  -26.0910 C.2   343  GLU343      0.2260
    235  O         15.5650   20.5960  -25.3060 O.2   343  GLU343     -0.2867
    236  CB        17.0760   19.3730  -27.3870 C.3   343  GLU343      0.0388
    237  CG        18.1160   19.0170  -26.3390 C.3   343  GLU343      0.1160
    238  CD        18.3620   17.5180  -26.2400 C.2   343  GLU343      0.3649
    239  OE1       18.5750   16.8590  -27.2850 O.co2 343  GLU343     -0.2457
    240  OE2       18.3320   16.9940  -25.1110 O.co2 343  GLU343     -0.2457
@<TRIPOS>BOND
     1   162   163    1
     2   165   164    2
     3   164   163    1
     4   163   166    1
     5   166   167    1
     6   167   168    1
     7   220   219    1
     8   218   219    1
     9   218   217    1
    10   212   213    1
    11   213   216    1
    12   213   214    1
    13   216   217    1
    14   156   155    2
    15   232   233    1
    16   168   169    1
    17   233   236    1
    18   233   234    1
    19   236   237    1
    20   196   197    1
    21   239   238   ar
    22   215   214    2
    23   155   154    1
    24   214   221   am
    25   206   207    2
    26   206   205    1
    27   237   238    1
    28   238   240   ar
    29   234   235    2
    30   197   198    1
    31   197   200    1
    32   221   222    1
    33   198   204   am
    34   198   199    2
    35   204   205    1
    36   158   157    1
    37   158   159    1
    38   154   157    1
    39   154   153    1
    40   205   208    1
    41   161   159   am
    42   145   144    2
    43   200   201    1
    44   208   209    1
    45   223   222    1
    46   223   224    2
    47   203   201    1
    48   159   160    2
    49   222   225    1
    50   209   210    1
    51   201   202    1
    52    45    44    1
    53   144   143    1
    54    49    48    2
    55    48    47    1
    56   225   226    1
    57    38    37    1
    58    37    39    1
    59    37    34    1
    60    43    42    2
    61   143   146    1
    62   143   142    1
    63   170   171    1
    64   146   147    1
    65   174   171    1
    66   174   175    1
    67    44    41    1
    68   210   211    1
    69   171   172    1
    70   226   228   ar
    71   226   227   ar
    72    40    41    1
    73    40    35   am
    74    42    41    1
    75    42    46   am
    76    47    46    1
    77    47    50    1
    78   228   230   ar
    79   137   136    2
    80    34    35    1
    81    34    33    1
    82   147   149   ar
    83   147   148   ar
    84    50    51    1
    85    35    36    2
    86   227   229   ar
    87   140   141    1
    88   140   139    1
    89   149   151   ar
    90   148   150   ar
    91   230   231   ar
    92   172   173    2
    93   172   176   am
    94   136   135    1
    95   138   135    1
    96   138   139    1
    97   135   134    1
    98   229   231   ar
    99   176   177    1
   100   151   152   ar
   101   150   152   ar
   102    51    52    2
   103    51    53   am
   104   185   186    1
   105   129   128    2
   106   134   128   am
   107   177   178    1
   108   177   180    1
   109   128   127    1
   110   186   189    1
   111   186   187    1
   112   178   179    2
   113   184   182   am
   114   191   193   ar
   115   191   190   ar
   116   189   190    1
   117   180   181    1
   118    57    56    2
   119   181   182    1
   120    56    55    1
   121   193   195   ar
   122    58    55    1
   123    58    59    1
   124   190   192   ar
   125   182   183    2
   126    31    29   ar
   127    31    32   ar
   128   187   188    2
   129   131   133    1
   130   131   130    1
   131   122   121    2
   132   127   130    1
   133   127   126    1
   134    55    54    1
   135    29    28   ar
   136    59    60    1
   137   132   130    1
   138   125   123    1
   139   195   194   ar
   140    32    30   ar
   141   192   194   ar
   142    25    26    2
   143    25    24    1
   144   121   120    1
   145    21    19   ar
   146    21    22   ar
   147    19    18   ar
   148    28    30   ar
   149    28    27    1
   150    60    61    1
   151   123   120    1
   152   123   124    1
   153   120   119    1
   154    24    27    1
   155    24    23    1
   156     1     2    1
   157     5     2    1
   158     5     6    1
   159    22    20   ar
   160    18    17    1
   161    18    20   ar
   162   104   103    1
   163    17    14    1
   164   108   107    2
   165     2     3    1
   166     6     8   ar
   167     6     7   ar
   168    13    14    1
   169    13     3   am
   170   119   107   am
   171     8    10   ar
   172     7     9   ar
   173   107   106    1
   174   103   101   ar
   175   103   102   ar
   176    14    15    1
   177     3     4    2
   178    16    15    2
   179   101    99   ar
   180    10    11   ar
   181     9    11   ar
   182    77    75    1
   183   102   100   ar
   184    76    75    1
   185    11    12    1
   186    75    74    1
   187    96    95    2
   188   106   105    1
   189   106   109    1
   190    91    90    1
   191    91    92    1
   192    99    98   ar
   193   100    98   ar
   194    90    87    1
   195    69    67   ar
   196   109   110    1
   197    84    83    2
   198    98    97    1
   199    95    94    1
   200    74    71    1
   201    92    86    1
   202    82    83    1
   203    82    79    1
   204    67    68   ar
   205    67    66    1
   206    83    85   am
   207    65    64    2
   208    71    72    1
   209    71    70    1
   210    87    86    1
   211    87    88    1
   212    97    94    1
   213    86    80   am
   214    94    93    1
   215   110   112   ar
   216   110   111   ar
   217   115   112   ar
   218   115   117   ar
   219    73    72    2
   220    64    70   am
   221    64    63    1
   222    66    63    1
   223   112   114   ar
   224    80    79    1
   225    80    81    2
   226    79    78    1
   227    89    88    2
   228   117   118   ar
   229   111   113   ar
   230    63    62    1
   231   114   113   ar
   232   114   116   ar
   233   118   116   ar
