@<TRIPOS>MOLECULE
tmp/3wdeA00.pdb
 152 147 0 0 0
SMALL
GASTEIGER

@<TRIPOS>ATOM
      1  N        -26.1420    6.3740   -4.2820 N.3     1  MET1       -0.1230
      2  CA       -25.4050    5.1420   -4.6480 C.3     1  MET1        0.1702
      3  C        -24.0220    5.0650   -4.0280 C.2     1  MET1        0.2592
      4  O        -23.3860    4.0240   -4.0720 O.2     1  MET1       -0.2718
      5  CB       -25.3310    4.9580   -6.1680 C.3     1  MET1        0.0401
      6  CG       -26.7280    4.7270   -6.7620 C.3     1  MET1        0.0596
      7  SD       -27.8220    6.1860   -6.5560 S.3     1  MET1       -0.1393
      8  CE       -29.0170    5.6500   -5.3260 C.3     1  MET1        0.0692
      9  N        -23.5400    6.1660   -3.4350 N.am    2  PHE2       -0.1962
     10  CA       -22.1830    6.0920   -2.8230 C.3     2  PHE2        0.1771
     11  C        -22.1260    5.1100   -1.6590 C.2     2  PHE2        0.2619
     12  O        -21.0500    4.6190   -1.3220 O.2     2  PHE2       -0.2715
     13  CB       -21.6730    7.4560   -2.3590 C.3     2  PHE2        0.0574
     14  CG       -21.2810    8.3880   -3.4920 C.ar    2  PHE2       -0.0200
     15  CD1      -20.3520    8.0090   -4.4760 C.ar    2  PHE2       -0.0042
     16  CD2      -21.8470    9.6550   -3.5980 C.ar    2  PHE2       -0.0042
     17  CE1      -19.9670    8.9010   -5.4920 C.ar    2  PHE2       -0.0003
     18  CE2      -21.4830   10.5370   -4.6240 C.ar    2  PHE2       -0.0003
     19  CZ       -20.5440   10.1640   -5.5870 C.ar    2  PHE2       -0.0000
     20  N        -23.2770    4.8030   -1.0530 N.am    3  GLU3       -0.1977
     21  CA       -23.3330    3.7460   -0.0200 C.3     3  GLU3        0.1602
     22  C        -22.8460    2.3810   -0.5260 C.2     3  GLU3        0.2287
     23  O        -22.4800    1.5080    0.2760 O.2     3  GLU3       -0.2864
     24  CB       -24.7520    3.6060    0.5920 C.3     3  GLU3        0.0415
     25  CG       -25.8100    3.0650   -0.3370 C.3     3  GLU3        0.1163
     26  CD       -26.4740    4.0900   -1.2210 C.2     3  GLU3        0.3649
     27  OE1      -25.9980    5.2500   -1.3560 O.co2   3  GLU3       -0.2457
     28  OE2      -27.5150    3.7120   -1.7980 O.co2   3  GLU3       -0.2457
     29  N        -20.2970    2.0720   -2.6430 N.3     5  PHE5       -0.1241
     30  CA       -18.8610    2.1340   -2.9430 C.3     5  PHE5        0.1605
     31  C        -18.0820    1.5160   -1.7870 C.2     5  PHE5        0.2264
     32  O        -18.4310    1.7360   -0.6070 O.2     5  PHE5       -0.2867
     33  CB       -18.4100    3.6010   -3.1220 C.3     5  PHE5        0.0534
     34  CG       -18.7290    4.1730   -4.4820 C.ar    5  PHE5       -0.0203
     35  CD1      -19.9970    4.0160   -5.1120 C.ar    5  PHE5       -0.0042
     36  CD2      -17.7560    4.9390   -5.1420 C.ar    5  PHE5       -0.0042
     37  CE1      -20.2480    4.5640   -6.3870 C.ar    5  PHE5       -0.0003
     38  CE2      -18.0290    5.5090   -6.3890 C.ar    5  PHE5       -0.0003
     39  CZ       -19.2590    5.3060   -7.0180 C.ar    5  PHE5       -0.0000
     40  N        -14.5520    5.0770   -2.1110 N.3    10  ARG10      -0.1245
     41  CA       -14.9640    6.3870   -1.5730 C.3    10  ARG10       0.1563
     42  C        -13.7280    7.2730   -1.3760 C.2    10  ARG10       0.2260
     43  O        -13.7860    8.4780   -1.6370 O.2    10  ARG10      -0.2867
     44  CB       -15.6980    6.2320   -0.2250 C.3    10  ARG10       0.0307
     45  CG       -17.0670    5.5680   -0.3610 C.3    10  ARG10       0.0489
     46  CD       -17.7260    5.4750    1.0250 C.3    10  ARG10       0.2205
     47  NE       -18.8110    4.4900    1.0040 N.pl3  10  ARG10      -0.0865
     48  CZ       -19.4590    4.0610    2.0820 C.cat  10  ARG10       0.5346
     49  NH1      -19.1630    4.5540    3.2800 N.pl3  10  ARG10       0.1354
     50  NH2      -20.4140    3.1390    1.9580 N.pl3  10  ARG10       0.1354
     51  N        -12.7600    8.9980   -4.5860 N.3    13  VAL13      -0.1231
     52  CA       -13.5990   10.1310   -4.9600 C.3    13  VAL13       0.1692
     53  C        -13.2690   11.3490   -4.0790 C.2    13  VAL13       0.2591
     54  O        -13.1590   12.4790   -4.5690 O.2    13  VAL13      -0.2718
     55  CB       -15.0850    9.7460   -4.8660 C.3    13  VAL13       0.0266
     56  CG1      -16.0010   10.9570   -5.1880 C.3    13  VAL13       0.0020
     57  CG2      -15.3560    8.5940   -5.8390 C.3    13  VAL13       0.0020
     58  N        -13.0890   11.1180   -2.7840 N.am   14  VAL14      -0.1980
     59  CA       -12.6960   12.1920   -1.8570 C.3    14  VAL14       0.1595
     60  C        -11.3370   12.7930   -2.3030 C.2    14  VAL14       0.2287
     61  O        -11.1390   14.0350   -2.3280 O.2    14  VAL14      -0.2864
     62  CB       -12.6210   11.6220   -0.4230 C.3    14  VAL14       0.0276
     63  CG1      -11.9070   12.5880    0.5320 C.3    14  VAL14       0.0022
     64  CG2      -14.0220   11.3010    0.0750 C.3    14  VAL14       0.0022
     65  N        -11.4820   15.1210   -5.4400 N.3    17  GLN17      -0.1245
     66  CA       -11.8200   16.5290   -5.1610 C.3    17  GLN17       0.1566
     67  C        -10.5810   17.3390   -4.7900 C.2    17  GLN17       0.2260
     68  O        -10.4480   18.4780   -5.1760 O.2    17  GLN17      -0.2867
     69  CB       -12.8830   16.6240   -4.0340 C.3    17  GLN17       0.0367
     70  CG       -13.2630   18.0870   -3.7330 C.3    17  GLN17       0.0905
     71  CD       -14.4700   18.2440   -2.8270 C.2    17  GLN17       0.2608
     72  OE1      -15.3040   19.0950   -3.0820 O.2    17  GLN17      -0.2717
     73  NE2      -14.5380   17.4840   -1.7160 N.am   17  GLN17      -0.0878
     74  N        -14.6680   18.7890  -10.5730 N.3    28  ILE28      -0.1245
     75  CA       -14.0110   17.4720  -10.4750 C.3    28  ILE28       0.1561
     76  C        -14.3090   16.7600  -11.7900 C.2    28  ILE28       0.2260
     77  O        -15.4570   16.3670  -12.0510 O.2    28  ILE28      -0.2867
     78  CB       -14.5830   16.6320   -9.3060 C.3    28  ILE28       0.0252
     79  CG1      -14.4870   17.3790   -7.9720 C.3    28  ILE28       0.0019
     80  CG2      -13.8170   15.3170   -9.2160 C.3    28  ILE28       0.0019
     81  CD1      -15.0970   16.6270   -6.8140 C.3    28  ILE28       0.0001
     82  N        -17.3910   22.9010   -1.6620 N.3    77  HIS77      -0.1226
     83  CA       -17.6260   21.7230   -2.4840 C.3    77  HIS77       0.1752
     84  C        -17.4220   21.9910   -3.9620 C.2    77  HIS77       0.2596
     85  O        -17.9950   22.9300   -4.5390 O.2    77  HIS77      -0.2718
     86  CB       -19.0710   21.2760   -2.3240 C.3    77  HIS77       0.0759
     87  CG       -19.4760   20.8590   -0.9300 C.ar   77  HIS77       0.0818
     88  ND1      -18.7640   20.0200   -0.1720 N.ar   77  HIS77      -0.2268
     89  CD2      -20.6350   21.1570   -0.2080 C.ar   77  HIS77       0.1154
     90  CE1      -19.3960   19.8120    1.0000 C.ar   77  HIS77       0.1986
     91  NE2      -20.5470   20.5060    0.9800 N.ar   77  HIS77      -0.2212
     92  N        -16.6160   21.1530   -4.6070 N.am   78  ILE78      -0.1966
     93  CA       -16.2990   21.2880   -6.0180 C.3    78  ILE78       0.1712
     94  C        -17.2260   20.2940   -6.7670 C.2    78  ILE78       0.2458
     95  O        -17.2570   19.1170   -6.4630 O.2    78  ILE78      -0.2730
     96  CB       -14.8100   20.9380   -6.2830 C.3    78  ILE78       0.0289
     97  CG1      -13.8660   21.8160   -5.4140 C.3    78  ILE78       0.0022
     98  CG2      -14.4690   21.1140   -7.7590 C.3    78  ILE78       0.0023
     99  CD1      -12.3870   21.5570   -5.6630 C.3    78  ILE78       0.0001
    100  N        -18.0030   20.7640   -7.7600 N.am   79  PRO79      -0.2716
    101  CA       -18.9790   19.8760   -8.4100 C.3    79  PRO79       0.1536
    102  C        -18.3500   18.9500   -9.4390 C.2    79  PRO79       0.2598
    103  O        -17.3750   19.3180  -10.1250 O.2    79  PRO79      -0.2715
    104  CB       -19.9140   20.8660   -9.1450 C.3    79  PRO79       0.0310
    105  CG       -19.0260   22.0740   -9.4190 C.3    79  PRO79       0.0237
    106  CD       -18.1460   22.1800   -8.1790 C.3    79  PRO79       0.0939
    107  N        -18.9450   17.7500   -9.5970 N.am   80  TYR80      -0.1974
    108  CA       -18.5270   16.8970  -10.7340 C.3    80  TYR80       0.1639
    109  C        -18.8780   17.5270  -12.0720 C.2    80  TYR80       0.2290
    110  O        -19.9610   18.1280  -12.2210 O.2    80  TYR80      -0.2864
    111  CB       -19.2780   15.5310  -10.6930 C.3    80  TYR80       0.0560
    112  CG       -19.1290   14.7810   -9.3780 C.ar   80  TYR80      -0.0198
    113  CD1      -17.8780   14.4310   -8.8710 C.ar   80  TYR80      -0.0009
    114  CD2      -20.2660   14.4530   -8.6310 C.ar   80  TYR80      -0.0009
    115  CE1      -17.7490   13.7850   -7.6540 C.ar   80  TYR80       0.0417
    116  CE2      -20.1650   13.8160   -7.4240 C.ar   80  TYR80       0.0417
    117  CZ       -18.9130   13.4900   -6.9250 C.ar   80  TYR80       0.1957
    118  OH       -18.7860   12.8730   -5.7050 O.3    80  TYR80      -0.2866
    119  N        -19.7510   12.7310  -13.8100 N.3    85  LYS85      -0.1245
    120  CA       -21.0220   12.1290  -13.3720 C.3    85  LYS85       0.1561
    121  C        -21.2750   10.8090  -14.1300 C.2    85  LYS85       0.2260
    122  O        -21.6830    9.7990  -13.5460 O.2    85  LYS85      -0.2867
    123  CB       -22.1900   13.0990  -13.6150 C.3    85  LYS85       0.0271
    124  CG       -22.1850   14.3140  -12.7020 C.3    85  LYS85       0.0035
    125  CD       -23.1330   15.4510  -13.1360 C.3    85  LYS85       0.0206
    126  CE       -24.5650   15.0600  -13.3700 C.3    85  LYS85       0.1093
    127  NZ       -25.1860   14.5960  -12.1220 N.3    85  LYS85      -0.1314
    128  N        -19.1550    7.9140  -12.9210 N.3    88  LEU88      -0.1231
    129  CA       -19.6100    7.3430  -11.6300 C.3    88  LEU88       0.1693
    130  C        -20.8980    6.5590  -11.8240 C.2    88  LEU88       0.2591
    131  O        -21.0560    5.4890  -11.2390 O.2    88  LEU88      -0.2718
    132  CB       -19.7510    8.4690  -10.6120 C.3    88  LEU88       0.0284
    133  CG       -18.3980    9.0800  -10.2360 C.3    88  LEU88       0.0019
    134  CD1      -18.6360   10.3510   -9.4420 C.3    88  LEU88       0.0001
    135  CD2      -17.4820    8.1070   -9.4800 C.3    88  LEU88       0.0001
    136  N        -21.7930    7.0210  -12.7080 N.am   89  GLU89      -0.1979
    137  CA       -22.9920    6.2260  -13.0480 C.3    89  GLU89       0.1602
    138  C        -22.6200    4.8750  -13.6740 C.2    89  GLU89       0.2287
    139  O        -23.1690    3.8130  -13.3040 O.2    89  GLU89      -0.2864
    140  CB       -23.8940    6.9870  -14.0330 C.3    89  GLU89       0.0415
    141  CG       -24.5360    8.2010  -13.4020 C.3    89  GLU89       0.1163
    142  CD       -25.3400    9.0080  -14.3860 C.2    89  GLU89       0.3649
    143  OE1      -25.5570    8.5310  -15.5510 O.co2  89  GLU89      -0.2457
    144  OE2      -25.7710   10.0970  -13.9680 O.co2  89  GLU89      -0.2457
    145  N        -21.3710    1.7210  -11.5630 N.3    92  LEU92      -0.1245
    146  CA       -22.3770    0.8360  -10.9700 C.3    92  LEU92       0.1561
    147  C        -22.6130   -0.4080  -11.8410 C.2    92  LEU92       0.2260
    148  O        -22.7100   -1.5430  -11.3600 O.2    92  LEU92      -0.2867
    149  CB       -23.6990    1.5930  -10.7360 C.3    92  LEU92       0.0270
    150  CG       -23.5980    2.9980  -10.0920 C.3    92  LEU92       0.0019
    151  CD1      -25.0120    3.5070   -9.9710 C.3    92  LEU92       0.0001
    152  CD2      -23.0150    2.8570   -8.7210 C.3    92  LEU92       0.0001
@<TRIPOS>BOND
     1   143   142   ar
     2   142   144   ar
     3   142   141    1
     4   121   122    2
     5   121   120    1
     6   140   141    1
     7   140   137    1
     8   119   120    1
     9   138   139    2
    10   138   137    1
    11   123   120    1
    12   123   124    1
    13   126   125    1
    14   126   127    1
    15   125   124    1
    16   137   136    1
    17   128   129    1
    18   136   130   am
    19   110   109    2
    20   109   108    1
    21    77    76    2
    22   147   148    2
    23   147   146    1
    24   130   129    1
    25   130   131    2
    26    76    75    1
    27   129   132    1
    28   145   146    1
    29   146   149    1
    30   149   150    1
    31   108   111    1
    32   108   107    1
    33   111   112    1
    34   132   133    1
    35    74    75    1
    36    75    78    1
    37   133   135    1
    38   133   134    1
    39   103   102    2
    40   150   151    1
    41   150   152    1
    42   107   102   am
    43   102   101    1
    44   105   104    1
    45   105   106    1
    46   112   113   ar
    47   112   114   ar
    48    78    80    1
    49    78    79    1
    50   104   101    1
    51   113   115   ar
    52   114   116   ar
    53   101   100    1
    54   106   100    1
    55    79    81    1
    56   100    94   am
    57    98    96    1
    58   115   117   ar
    59   116   117   ar
    60    39    38   ar
    61    39    37   ar
    62   117   118    1
    63    94    95    2
    64    94    93    1
    65     6     7    1
    66     6     5    1
    67     7     8    1
    68    38    36   ar
    69    37    35   ar
    70    96    93    1
    71    96    97    1
    72     5     2    1
    73    93    92    1
    74    57    55    1
    75    99    97    1
    76    19    17   ar
    77    19    18   ar
    78    17    15   ar
    79    65    66    1
    80    56    55    1
    81    68    67    2
    82    66    67    1
    83    66    69    1
    84    36    34   ar
    85    35    34   ar
    86    52    55    1
    87    52    51    1
    88    52    53    1
    89     2     1    1
    90     2     3    1
    91    18    16   ar
    92    92    84   am
    93    54    53    2
    94    85    84    2
    95    34    33    1
    96    15    14   ar
    97    53    58   am
    98     4     3    2
    99    69    70    1
   100     3     9   am
   101    84    83    1
   102    70    71    1
   103    16    14   ar
   104    14    13    1
   105     9    10    1
   106    33    30    1
   107    72    71    2
   108    30    29    1
   109    30    31    1
   110    71    73   am
   111    10    13    1
   112    10    11    1
   113    58    59    1
   114    83    86    1
   115    83    82    1
   116    61    60    2
   117    86    87    1
   118    60    59    1
   119    40    41    1
   120    59    62    1
   121    28    26   ar
   122    31    32    2
   123    11    12    2
   124    11    20   am
   125    43    42    2
   126    41    42    1
   127    41    44    1
   128    27    26   ar
   129    26    25    1
   130    20    21    1
   131    87    89   ar
   132    87    88   ar
   133    22    21    1
   134    22    23    2
   135    62    64    1
   136    62    63    1
   137    45    44    1
   138    45    46    1
   139    25    24    1
   140    89    91   ar
   141    88    90   ar
   142    21    24    1
   143    91    90   ar
   144    47    46    1
   145    47    48    2
   146    50    48    1
   147    48    49    1
