@<TRIPOS>MOLECULE
tmp/3wdkC00.pdb
 212 203 0 0 0
SMALL
GASTEIGER

@<TRIPOS>ATOM
      1  N         28.9950   18.2750   24.4290 N.3    22  ALA22      -0.1245
      2  CA        28.2080   17.4390   25.3190 C.3    22  ALA22       0.1562
      3  C         28.8980   17.4400   26.6700 C.2    22  ALA22       0.2260
      4  O         30.0930   17.7090   26.7570 O.2    22  ALA22      -0.2867
      5  CB        28.1280   16.0290   24.7750 C.3    22  ALA22       0.0290
      6  N         29.4290   14.8720   28.4480 N.3    24  ALA24      -0.1231
      7  CA        30.3390   13.7340   28.4110 C.3    24  ALA24       0.1694
      8  C         31.6470   14.2400   27.8190 C.2    24  ALA24       0.2592
      9  O         32.7270   13.7270   28.1220 O.2    24  ALA24      -0.2718
     10  CB        29.7670   12.6240   27.5420 C.3    24  ALA24       0.0304
     11  N         31.5300   15.2660   26.9810 N.am   25  GLY25      -0.1957
     12  CA        32.6890   15.8550   26.3380 C.3    25  GLY25       0.1869
     13  C         33.6490   16.5250   27.2960 C.2    25  GLY25       0.2309
     14  O         34.8410   16.6320   27.0020 O.2    25  GLY25      -0.2863
     15  N         35.5600   13.6590   28.7270 N.3    28  ALA28      -0.1231
     16  CA        36.4630   13.1740   27.6870 C.3    28  ALA28       0.1694
     17  C         37.6990   14.0660   27.6620 C.2    28  ALA28       0.2592
     18  O         38.8260   13.5820   27.6090 O.2    28  ALA28      -0.2718
     19  CB        35.7660   13.1970   26.3230 C.3    28  ALA28       0.0304
     20  N         37.4770   15.3760   27.7160 N.am   29  HIS29      -0.1976
     21  CA        38.5700   16.3430   27.7130 C.3    29  HIS29       0.1656
     22  C         39.5460   16.0740   28.8620 C.2    29  HIS29       0.2291
     23  O         40.7540   16.2580   28.7200 O.2    29  HIS29      -0.2864
     24  CB        38.0100   17.7640   27.8490 C.3    29  HIS29       0.0771
     25  CG        39.0380   18.8350   27.6670 C.ar   29  HIS29       0.0820
     26  ND1       39.3860   19.3290   26.4280 N.ar   29  HIS29      -0.2267
     27  CD2       39.8330   19.4670   28.5610 C.ar   29  HIS29       0.1154
     28  CE1       40.3540   20.2180   26.5670 C.ar   29  HIS29       0.1986
     29  NE2       40.6440   20.3200   27.8520 N.ar   29  HIS29      -0.2212
     30  N         40.1030   13.0980   30.3850 N.3    31  ARG31      -0.1231
     31  CA        40.8190   11.8730   30.0850 C.3    31  ARG31       0.1694
     32  C         41.9810   12.2400   29.1750 C.2    31  ARG31       0.2592
     33  O         43.1000   11.7490   29.3430 O.2    31  ARG31      -0.2718
     34  CB        39.8850   10.8810   29.3980 C.3    31  ARG31       0.0321
     35  CG        39.0960   10.0450   30.3840 C.3    31  ARG31       0.0489
     36  CD        38.0710    9.1410   29.7250 C.3    31  ARG31       0.2205
     37  NE        36.9290    9.9050   29.2340 N.pl3  31  ARG31      -0.0865
     38  CZ        35.7030    9.4100   29.0780 C.cat  31  ARG31       0.5346
     39  NH1       35.4480    8.1400   29.3800 N.pl3  31  ARG31       0.1354
     40  NH2       34.7270   10.1880   28.6190 N.pl3  31  ARG31       0.1354
     41  N         41.7140   13.1330   28.2260 N.am   32  GLY32      -0.1957
     42  CA        42.7530   13.5680   27.3140 C.3    32  GLY32       0.1869
     43  C         43.8740   14.2690   28.0520 C.2    32  GLY32       0.2309
     44  O         45.0530   14.0610   27.7510 O.2    32  GLY32      -0.2863
     45  N         33.0330   16.9630   15.8380 N.3    69  ASN69      -0.1225
     46  CA        32.1490   16.7210   16.9660 C.3    69  ASN69       0.1785
     47  C         32.1610   17.9200   17.8940 C.2    69  ASN69       0.2598
     48  O         32.8420   18.9130   17.6280 O.2    69  ASN69      -0.2718
     49  CB        32.5300   15.4390   17.7350 C.3    69  ASN69       0.1169
     50  CG        33.9150   15.4940   18.3540 C.2    69  ASN69       0.2627
     51  OD1       34.3970   16.5520   18.7620 O.2    69  ASN69      -0.2716
     52  ND2       34.5540   14.3310   18.4550 N.am   69  ASN69      -0.0877
     53  N         31.3990   17.8220   18.9790 N.am   70  GLY70      -0.1942
     54  CA        31.3150   18.9040   19.9370 C.3    70  GLY70       0.2014
     55  C         32.6350   19.3800   20.5060 C.2    70  GLY70       0.2638
     56  O         32.8120   20.5740   20.7480 O.2    70  GLY70      -0.2714
     57  N         33.5650   18.4590   20.7360 N.am   71  ASN71      -0.1972
     58  CA        34.8660   18.8390   21.2810 C.3    71  ASN71       0.1688
     59  C         35.7160   19.5440   20.2370 C.2    71  ASN71       0.2292
     60  O         36.4100   20.5130   20.5430 O.2    71  ASN71      -0.2864
     61  CB        35.6010   17.6070   21.8190 C.3    71  ASN71       0.1181
     62  CG        34.9880   17.0800   23.1100 C.2    71  ASN71       0.2629
     63  OD1       33.7940   16.7820   23.1710 O.2    71  ASN71      -0.2716
     64  ND2       35.8080   16.9650   24.1470 N.am   71  ASN71      -0.0877
     65  N         37.3660   23.3540   20.3200 N.3    75  LEU75      -0.1245
     66  CA        38.8190   23.5120   20.3770 C.3    75  LEU75       0.1561
     67  C         39.5230   23.9910   19.1100 C.2    75  LEU75       0.2260
     68  O         40.3220   24.9250   19.1530 O.2    75  LEU75      -0.2867
     69  CB        39.4570   22.1930   20.8200 C.3    75  LEU75       0.0270
     70  CG        39.0650   21.6520   22.1980 C.3    75  LEU75       0.0019
     71  CD1       39.6020   20.2410   22.3660 C.3    75  LEU75       0.0001
     72  CD2       39.6170   22.5630   23.2740 C.3    75  LEU75       0.0001
     73  N         29.3210   15.0250   12.8990 N.3    94  ASN94      -0.1225
     74  CA        28.8250   13.7040   13.2580 C.3    94  ASN94       0.1785
     75  C         28.9410   13.5620   14.7690 C.2    94  ASN94       0.2597
     76  O         30.0380   13.5020   15.3200 O.2    94  ASN94      -0.2718
     77  CB        29.6400   12.6320   12.5280 C.3    94  ASN94       0.1169
     78  CG        29.0760   11.2440   12.7210 C.2    94  ASN94       0.2627
     79  OD1       29.3420   10.5870   13.7290 O.2    94  ASN94      -0.2716
     80  ND2       28.2810   10.7900   11.7580 N.am   94  ASN94      -0.0877
     81  N         27.7930   13.5280   15.4330 N.am   95  LEU95      -0.1966
     82  CA        27.7430   13.4430   16.8870 C.3    95  LEU95       0.1728
     83  C         27.3770   12.0750   17.4490 C.2    95  LEU95       0.2616
     84  O         26.6340   11.3130   16.8310 O.2    95  LEU95      -0.2715
     85  CB        26.7520   14.4790   17.4200 C.3    95  LEU95       0.0311
     86  CG        27.1730   15.9470   17.5280 C.3    95  LEU95       0.0022
     87  CD1       28.2860   16.2830   16.5470 C.3    95  LEU95       0.0001
     88  CD2       25.9390   16.8180   17.2910 C.3    95  LEU95       0.0001
     89  N         27.9150   11.7790   18.6290 N.am   96  PHE96      -0.1960
     90  CA        27.6330   10.5250   19.3170 C.3    96  PHE96       0.1771
     91  C         26.3250   10.7640   20.0730 C.2    96  PHE96       0.2619
     92  O         25.3880    9.9700   19.9940 O.2    96  PHE96      -0.2715
     93  CB        28.7590   10.1960   20.3030 C.3    96  PHE96       0.0574
     94  CG        28.6590    8.8220   20.9030 C.ar   96  PHE96      -0.0200
     95  CD1       28.8080    7.6880   20.1080 C.ar   96  PHE96      -0.0042
     96  CD2       28.4270    8.6590   22.2630 C.ar   96  PHE96      -0.0042
     97  CE1       28.7270    6.4090   20.6610 C.ar   96  PHE96      -0.0003
     98  CE2       28.3440    7.3860   22.8300 C.ar   96  PHE96      -0.0003
     99  CZ        28.4950    6.2580   22.0270 C.ar   96  PHE96      -0.0000
    100  N         26.2780   11.8740   20.8020 N.am   97  TYR97      -0.1974
    101  CA        25.0900   12.2610   21.5550 C.3    97  TYR97       0.1639
    102  C         24.3950   13.3350   20.7180 C.2    97  TYR97       0.2290
    103  O         24.2600   14.4860   21.1370 O.2    97  TYR97      -0.2864
    104  CB        25.5010   12.8190   22.9210 C.3    97  TYR97       0.0560
    105  CG        26.2820   11.8290   23.7570 C.ar   97  TYR97      -0.0198
    106  CD1       25.6970   10.6340   24.1840 C.ar   97  TYR97      -0.0009
    107  CD2       27.6120   12.0700   24.0980 C.ar   97  TYR97      -0.0009
    108  CE1       26.4150    9.7020   24.9280 C.ar   97  TYR97       0.0417
    109  CE2       28.3420   11.1430   24.8420 C.ar   97  TYR97       0.0417
    110  CZ        27.7380    9.9610   25.2520 C.ar   97  TYR97       0.1957
    111  OH        28.4570    9.0340   25.9730 O.3    97  TYR97      -0.2866
    112  N         22.1680   20.6280   18.8200 N.3   102  ARG102     -0.1245
    113  CA        23.6270   20.6970   18.9180 C.3   102  ARG102      0.1563
    114  C         24.2680   20.8170   17.5400 C.2   102  ARG102      0.2260
    115  O         25.2070   21.5950   17.3390 O.2   102  ARG102     -0.2867
    116  CB        24.1870   19.4570   19.6200 C.3   102  ARG102      0.0307
    117  CG        24.0060   19.4430   21.1270 C.3   102  ARG102      0.0489
    118  CD        24.7470   18.2660   21.7270 C.3   102  ARG102      0.2205
    119  NE        26.1800   18.3420   21.4530 N.pl3 102  ARG102     -0.0865
    120  CZ        26.9600   17.2810   21.2570 C.cat 102  ARG102      0.5346
    121  NH1       26.4440   16.0580   21.3050 N.pl3 102  ARG102      0.1354
    122  NH2       28.2530   17.4440   21.0050 N.pl3 102  ARG102      0.1354
    123  N         38.8320   12.2130   18.6080 N.3   150  LEU150     -0.1231
    124  CA        38.1400   12.1430   19.8950 C.3   150  LEU150      0.1693
    125  C         36.8180   11.4060   19.7410 C.2   150  LEU150      0.2592
    126  O         35.7620   11.9160   20.0950 O.2   150  LEU150     -0.2718
    127  CB        37.9030   13.5600   20.4150 C.3   150  LEU150      0.0284
    128  CG        39.1620   14.3030   20.8780 C.3   150  LEU150      0.0019
    129  CD1       40.1140   14.5370   19.7040 C.3   150  LEU150      0.0001
    130  CD2       38.7600   15.6310   21.5130 C.3   150  LEU150      0.0001
    131  N         36.9030   10.1880   19.2210 N.am  151  GLU151     -0.1966
    132  CA        35.7340    9.3700   18.9380 C.3   151  GLU151      0.1733
    133  C         35.5160    8.2020   19.8870 C.2   151  GLU151      0.2616
    134  O         36.4570    7.6730   20.4690 O.2   151  GLU151     -0.2715
    135  CB        35.8510    8.8340   17.5060 C.3   151  GLU151      0.0429
    136  CG        34.6120    8.1310   17.0020 C.3   151  GLU151      0.1163
    137  CD        33.4410    9.0840   16.8550 C.2   151  GLU151      0.3649
    138  OE1       33.3930    9.8080   15.8360 O.co2 151  GLU151     -0.2457
    139  OE2       32.5810    9.1170   17.7650 O.co2 151  GLU151     -0.2457
    140  N         34.2640    7.7950   20.0420 N.am  152  ASP152     -0.1957
    141  CA        33.9640    6.6560   20.8920 C.3   152  ASP152      0.1840
    142  C         34.4000    5.4200   20.1040 C.2   152  ASP152      0.2622
    143  O         34.0500    5.2670   18.9290 O.2   152  ASP152     -0.2715
    144  CB        32.4670    6.5980   21.2050 C.3   152  ASP152      0.1450
    145  CG        32.0920    5.3810   22.0310 C.2   152  ASP152      0.3671
    146  OD1       31.8760    4.3000   21.4370 O.co2 152  ASP152     -0.2456
    147  OD2       32.0270    5.5040   23.2770 O.co2 152  ASP152     -0.2456
    148  N         35.1800    4.5560   20.7480 N.am  153  GLY153     -0.1954
    149  CA        35.6730    3.3550   20.0940 C.3   153  GLY153      0.1869
    150  C         34.6530    2.5470   19.3120 C.2   153  GLY153      0.2309
    151  O         34.9330    2.0890   18.2040 O.2   153  GLY153     -0.2863
    152  N         42.5630   10.9900   15.9610 N.3   169  VAL169     -0.1231
    153  CA        43.4770   11.7140   16.8240 C.3   169  VAL169      0.1692
    154  C         42.9090   11.3760   18.1960 C.2   169  VAL169      0.2592
    155  O         41.7450   11.6620   18.4800 O.2   169  VAL169     -0.2718
    156  CB        43.4130   13.2290   16.5900 C.3   169  VAL169      0.0266
    157  CG1       44.1920   13.9580   17.6910 C.3   169  VAL169      0.0020
    158  CG2       43.9700   13.5550   15.2080 C.3   169  VAL169      0.0020
    159  N         43.7200   10.7320   19.0250 N.am  170  ASP170     -0.1960
    160  CA        43.2730   10.3320   20.3490 C.3   170  ASP170      0.1840
    161  C         44.4730   10.2530   21.2810 C.2   170  ASP170      0.2622
    162  O         45.3930    9.4670   21.0550 O.2   170  ASP170     -0.2715
    163  CB        42.5740    8.9720   20.2640 C.3   170  ASP170      0.1450
    164  CG        41.7180    8.6740   21.4830 C.2   170  ASP170      0.3671
    165  OD1       42.1690    8.9720   22.6060 O.co2 170  ASP170     -0.2456
    166  OD2       40.6000    8.1320   21.3130 O.co2 170  ASP170     -0.2456
    167  N         44.4540   11.0730   22.3270 N.am  171  LEU171     -0.1963
    168  CA        45.5400   11.1160   23.2970 C.3   171  LEU171      0.1728
    169  C         45.7230    9.8240   24.0910 C.2   171  LEU171      0.2616
    170  O         46.7980    9.5900   24.6490 O.2   171  LEU171     -0.2715
    171  CB        45.3300   12.2920   24.2580 C.3   171  LEU171      0.0311
    172  CG        45.9190   13.6300   23.8070 C.3   171  LEU171      0.0022
    173  CD1       45.3320   14.7620   24.6390 C.3   171  LEU171      0.0001
    174  CD2       47.4350   13.5890   23.9410 C.3   171  LEU171      0.0001
    175  N         44.6780    8.9990   24.1560 N.am  172  ASN172     -0.1972
    176  CA        44.7530    7.7280   24.8730 C.3   172  ASN172      0.1688
    177  C         45.0620    6.5930   23.9040 C.2   172  ASN172      0.2292
    178  O         44.1810    6.1010   23.2080 O.2   172  ASN172     -0.2864
    179  CB        43.4420    7.4180   25.5990 C.3   172  ASN172      0.1181
    180  CG        43.4810    6.0740   26.3100 C.2   172  ASN172      0.2629
    181  OD1       44.4990    5.3820   26.2980 O.2   172  ASN172     -0.2716
    182  ND2       42.3720    5.7010   26.9340 N.am  172  ASN172     -0.0877
    183  N         42.7910    3.4170   24.2830 N.3   175  SER175     -0.1217
    184  CA        41.3500    3.4550   24.0390 C.3   175  SER175      0.1889
    185  C         40.9710    2.4930   22.9290 C.2   175  SER175      0.2288
    186  O         41.8150    2.1090   22.1220 O.2   175  SER175     -0.2866
    187  CB        40.8940    4.8730   23.6690 C.3   175  SER175      0.2089
    188  OG        41.3090    5.2430   22.3630 O.3   175  SER175     -0.2183
    189  N         48.3430   12.5770   19.9680 N.3   187  ASP187     -0.1225
    190  CA        48.7700   13.9510   20.1790 C.3   187  ASP187      0.1805
    191  C         47.5110   14.7500   20.4890 C.2   187  ASP187      0.2598
    192  O         46.4160   14.3450   20.1080 O.2   187  ASP187     -0.2718
    193  CB        49.4230   14.4580   18.8860 C.3   187  ASP187      0.1424
    194  CG        50.2320   15.7170   19.0790 C.2   187  ASP187      0.3668
    195  OD1       50.4370   16.1430   20.2310 O.co2 187  ASP187     -0.2456
    196  OD2       50.6810   16.2800   18.0580 O.co2 187  ASP187     -0.2456
    197  N         47.6550   15.8650   21.1950 N.am  188  ASN188     -0.1960
    198  CA        46.4960   16.6990   21.5060 C.3   188  ASN188      0.1819
    199  C         45.9940   17.2790   20.1800 C.2   188  ASN188      0.2621
    200  O         46.7870   17.7230   19.3500 O.2   188  ASN188     -0.2715
    201  CB        46.8910   17.8290   22.4570 C.3   188  ASN188      0.1195
    202  CG        45.6820   18.5000   23.1030 C.2   188  ASN188      0.2630
    203  OD1       45.5950   18.6010   24.3320 O.2   188  ASN188     -0.2716
    204  ND2       44.7480   18.9600   22.2780 N.am  188  ASN188     -0.0877
    205  N         44.6830   17.2760   19.9720 N.am  189  ILE189     -0.1977
    206  CA        44.1510   17.7950   18.7210 C.3   189  ILE189      0.1596
    207  C         44.5080   19.2640   18.4600 C.2   189  ILE189      0.2287
    208  O         44.5240   19.6890   17.3060 O.2   189  ILE189     -0.2864
    209  CB        42.6090   17.6190   18.6340 C.3   189  ILE189      0.0276
    210  CG1       42.1480   17.8540   17.1880 C.3   189  ILE189      0.0022
    211  CG2       41.9080   18.6010   19.5810 C.3   189  ILE189      0.0022
    212  CD1       40.7010   17.4760   16.9190 C.3   189  ILE189      0.0001
@<TRIPOS>BOND
     1    80    78   am
     2    77    78    1
     3    77    74    1
     4    78    79    2
     5    73    74    1
     6    74    75    1
     7    75    76    2
     8    75    81   am
     9   158   156    1
    10    81    82    1
    11   138   137   ar
    12    45    46    1
    13   152   153    1
    14    87    86    1
    15   156   153    1
    16   156   157    1
    17   153   154    1
    18    84    83    2
    19   137   136    1
    20   137   139   ar
    21    82    85    1
    22    82    83    1
    23   212   210    1
    24    46    49    1
    25    46    47    1
    26   136   135    1
    27   210   209    1
    28    88    86    1
    29   208   207    2
    30   115   114    2
    31    85    86    1
    32    83    89   am
    33   135   132    1
    34   114   113    1
    35    48    47    2
    36    49    50    1
    37    47    53   am
    38   196   194   ar
    39   154   155    2
    40   154   159   am
    41   151   150    2
    42    50    52   am
    43    50    51    2
    44   207   206    1
    45   123   124    1
    46    89    90    1
    47   209   206    1
    48   209   211    1
    49   206   205    1
    50   112   113    1
    51   193   194    1
    52   193   190    1
    53   113   116    1
    54   143   142    2
    55   132   131    1
    56   132   133    1
    57    53    54    1
    58   159   160    1
    59   194   195   ar
    60    67    68    2
    61    67    66    1
    62   131   125   am
    63   150   149    1
    64    90    91    1
    65    90    93    1
    66   200   199    2
    67   116   117    1
    68   129   128    1
    69   125   124    1
    70   125   126    2
    71   133   140   am
    72   133   134    2
    73   124   127    1
    74    54    55    1
    75   189   190    1
    76   205   199   am
    77    92    91    2
    78   140   141    1
    79    91   100   am
    80   149   148    1
    81   142   148   am
    82   142   141    1
    83    95    97   ar
    84    95    94   ar
    85   192   191    2
    86   190   191    1
    87   199   198    1
    88    59    60    2
    89    59    58    1
    90   163   160    1
    91   163   164    1
    92    93    94    1
    93    65    66    1
    94   160   161    1
    95    66    69    1
    96   127   128    1
    97   191   197   am
    98    55    57   am
    99    55    56    2
   100    97    99   ar
   101   102   103    2
   102   102   101    1
   103    57    58    1
   104   100   101    1
   105    69    70    1
   106   128   130    1
   107   141   144    1
   108    94    96   ar
   109   122   120    1
   110   162   161    2
   111   117   118    1
   112   197   198    1
   113   144   145    1
   114   120   121    1
   115   120   119    2
   116    58    61    1
   117   161   167   am
   118   166   164   ar
   119   146   145   ar
   120   119   118    1
   121   164   165   ar
   122   198   201    1
   123   101   104    1
   124    61    62    1
   125    99    98   ar
   126   145   147   ar
   127   186   185    2
   128    70    71    1
   129    70    72    1
   130    96    98   ar
   131   204   202   am
   132   167   168    1
   133   188   187    1
   134   201   202    1
   135   104   105    1
   136   185   184    1
   137   202   203    2
   138    62    63    2
   139    62    64   am
   140   178   177    2
   141   168   169    1
   142   168   171    1
   143   187   184    1
   144   105   107   ar
   145   105   106   ar
   146   172   174    1
   147   172   171    1
   148   172   173    1
   149   177   176    1
   150   184   183    1
   151   169   175   am
   152   169   170    2
   153   107   109   ar
   154   175   176    1
   155   106   108   ar
   156     1     2    1
   157     5     2    1
   158   109   110   ar
   159   176   179    1
   160   108   110   ar
   161   110   111    1
   162     2     3    1
   163   179   180    1
   164   181   180    2
   165   180   182   am
   166    19    16    1
   167    12    11    1
   168    12    13    1
   169    26    28   ar
   170    26    25   ar
   171    28    29   ar
   172     3     4    2
   173    11     8   am
   174    14    13    2
   175    42    43    1
   176    42    41    1
   177    10     7    1
   178    18    17    2
   179    17    16    1
   180    17    20   am
   181    25    24    1
   182    25    27   ar
   183    16    15    1
   184    21    20    1
   185    21    24    1
   186    21    22    1
   187    44    43    2
   188     8     9    2
   189     8     7    1
   190    29    27   ar
   191    41    32   am
   192     7     6    1
   193    40    38    1
   194    23    22    2
   195    38    37    2
   196    38    39    1
   197    32    33    2
   198    32    31    1
   199    37    36    1
   200    34    31    1
   201    34    35    1
   202    36    35    1
   203    31    30    1
