@<TRIPOS>MOLECULE
tmp/3wdmA00.pdb
 143 136 0 0 0
SMALL
GASTEIGER

@<TRIPOS>ATOM
      1  N          2.3840    6.9010   23.6220 N.3    35  ALA35      -0.1231
      2  CA         3.5150    5.9830   23.7070 C.3    35  ALA35       0.1694
      3  C          3.6670    5.4360   25.1400 C.2    35  ALA35       0.2592
      4  O          4.0330    4.2750   25.3290 O.2    35  ALA35      -0.2718
      5  CB         4.8130    6.6670   23.2650 C.3    35  ALA35       0.0304
      6  N          3.3830    6.2540   26.1500 N.am   36  HIS36      -0.1976
      7  CA         3.5070    5.7880   27.5370 C.3    36  HIS36       0.1656
      8  C          2.5340    4.6160   27.7400 C.2    36  HIS36       0.2291
      9  O          2.8700    3.6130   28.3780 O.2    36  HIS36      -0.2864
     10  CB         3.1600    6.9040   28.5320 C.3    36  HIS36       0.0771
     11  CG         3.3930    6.5200   29.9650 C.ar   36  HIS36       0.0820
     12  ND1        4.6570    6.3770   30.5000 N.ar   36  HIS36      -0.2267
     13  CD2        2.5270    6.1960   30.9550 C.ar   36  HIS36       0.1154
     14  CE1        4.5590    5.9780   31.7550 C.ar   36  HIS36       0.1986
     15  NE2        3.2770    5.8590   32.0560 N.ar   36  HIS36      -0.2212
     16  N          1.3890    2.5460   25.4470 N.3    38  ARG38      -0.1231
     17  CA         1.8490    1.3560   24.7420 C.3    38  ARG38       0.1694
     18  C          2.8560    0.6100   25.6140 C.2    38  ARG38       0.2592
     19  O          2.8730   -0.6260   25.6490 O.2    38  ARG38      -0.2718
     20  CB         2.4900    1.7160   23.3870 C.3    38  ARG38       0.0321
     21  CG         1.4930    2.2330   22.3410 C.3    38  ARG38       0.0489
     22  CD         2.0180    2.0730   20.9090 C.3    38  ARG38       0.2205
     23  NE         3.1940    2.8970   20.6170 N.pl3  38  ARG38      -0.0865
     24  CZ         3.1570    4.2000   20.3540 C.cat  38  ARG38       0.5346
     25  NH1        1.9960    4.8450   20.3350 N.pl3  38  ARG38       0.1354
     26  NH2        4.2900    4.8620   20.1240 N.pl3  38  ARG38       0.1354
     27  N          3.7100    1.3620   26.3100 N.am   39  GLY39      -0.1957
     28  CA         4.6790    0.7350   27.1930 C.3    39  GLY39       0.1869
     29  C          3.9750    0.0120   28.3320 C.2    39  GLY39       0.2309
     30  O          4.3120   -1.1400   28.6660 O.2    39  GLY39      -0.2863
     31  N          2.6000   -3.5030   27.5060 N.3    42  PHE42      -0.1241
     32  CA         3.6130   -4.5350   27.5410 C.3    42  PHE42       0.1605
     33  C          4.0340   -4.7980   28.9880 C.2    42  PHE42       0.2264
     34  O          4.3320   -5.9310   29.3430 O.2    42  PHE42      -0.2867
     35  CB         4.7990   -4.1440   26.6660 C.3    42  PHE42       0.0534
     36  CG         4.5610   -4.3990   25.1950 C.ar   42  PHE42      -0.0203
     37  CD1        4.6900   -5.6910   24.6680 C.ar   42  PHE42      -0.0042
     38  CD2        4.1510   -3.3730   24.3530 C.ar   42  PHE42      -0.0042
     39  CE1        4.4060   -5.9420   23.3250 C.ar   42  PHE42      -0.0003
     40  CE2        3.8680   -3.6180   23.0160 C.ar   42  PHE42      -0.0003
     41  CZ         3.9970   -4.9090   22.5040 C.ar   42  PHE42      -0.0000
     42  N          9.6190   11.9020   27.0460 N.3    78  ASN78      -0.1240
     43  CA         9.1220   10.9150   27.9940 C.3    78  ASN78       0.1653
     44  C         10.1960   10.6630   29.0430 C.2    78  ASN78       0.2266
     45  O          9.9060   10.5650   30.2200 O.2    78  ASN78      -0.2867
     46  CB         8.7560    9.6140   27.2650 C.3    78  ASN78       0.1155
     47  CG         7.3690    9.6590   26.6570 C.2    78  ASN78       0.2627
     48  OD1        7.0200   10.6010   25.9380 O.2    78  ASN78      -0.2716
     49  ND2        6.5630    8.6280   26.9420 N.am   78  ASN78      -0.0877
     50  N          9.8180   11.2160   33.2310 N.3    82  LEU82      -0.1245
     51  CA         9.8530   10.0920   34.1560 C.3    82  LEU82       0.1561
     52  C         11.0760    9.8300   35.0020 C.2    82  LEU82       0.2260
     53  O         10.9470    9.3950   36.1410 O.2    82  LEU82      -0.2867
     54  CB         9.5210    8.8030   33.3960 C.3    82  LEU82       0.0270
     55  CG         8.2280    8.8500   32.5740 C.3    82  LEU82       0.0019
     56  CD1        8.1940    7.6880   31.5660 C.3    82  LEU82       0.0001
     57  CD2        7.0390    8.7980   33.5190 C.3    82  LEU82       0.0001
     58  N         13.1310    4.3410   24.8760 N.3   160  LEU160     -0.1231
     59  CA        11.7980    4.6890   24.3790 C.3   160  LEU160      0.1693
     60  C         11.9720    5.4130   23.0630 C.2   160  LEU160      0.2592
     61  O         11.4600    6.5190   22.8730 O.2   160  LEU160     -0.2718
     62  CB        11.0880    5.6000   25.3990 C.3   160  LEU160      0.0284
     63  CG        10.6160    4.9800   26.7230 C.3   160  LEU160      0.0019
     64  CD1       11.7500    4.2650   27.4090 C.3   160  LEU160      0.0001
     65  CD2       10.0390    6.0630   27.6260 C.3   160  LEU160      0.0001
     66  N         12.7020    4.7690   22.1590 N.am  161  GLU161     -0.1966
     67  CA        13.0480    5.3590   20.8810 C.3   161  GLU161      0.1733
     68  C         12.3970    4.7900   19.6460 C.2   161  GLU161      0.2616
     69  O         11.9960    3.6210   19.5890 O.2   161  GLU161     -0.2715
     70  CB        14.5510    5.3220   20.7080 C.3   161  GLU161      0.0429
     71  CG        15.1260    6.3490   19.7980 C.3   161  GLU161      0.1163
     72  CD        14.9580    7.7980   20.0010 C.2   161  GLU161      0.3649
     73  OE1       14.8430    8.0810   21.2460 O.co2 161  GLU161     -0.2457
     74  OE2       14.9820    8.7000   19.2240 O.co2 161  GLU161     -0.2457
     75  N         12.3330    5.6470   18.6370 N.am  162  ASP162     -0.1971
     76  CA        11.7440    5.2970   17.3600 C.3   162  ASP162      0.1709
     77  C         12.6520    4.2980   16.6420 C.2   162  ASP162      0.2293
     78  O         13.8810    4.4400   16.6480 O.2   162  ASP162     -0.2864
     79  CB        11.5340    6.5720   16.5290 C.3   162  ASP162      0.1436
     80  CG        11.1260    6.2810   15.1040 C.2   162  ASP162      0.3671
     81  OD1       12.0080    5.8870   14.3050 O.co2 162  ASP162     -0.2456
     82  OD2        9.9230    6.4380   14.7860 O.co2 162  ASP162     -0.2456
     83  N         16.1660    0.7880   25.8330 N.3   179  VAL179     -0.1231
     84  CA        15.2850    0.3130   26.8850 C.3   179  VAL179      0.1692
     85  C         13.9070    0.4350   26.2090 C.2   179  VAL179      0.2592
     86  O         13.5050    1.5330   25.8050 O.2   179  VAL179     -0.2718
     87  CB        15.3530    1.2080   28.1480 C.3   179  VAL179      0.0266
     88  CG1       14.2540    0.8030   29.1550 C.3   179  VAL179      0.0020
     89  CG2       16.7170    1.0660   28.7860 C.3   179  VAL179      0.0020
     90  N         13.1990   -0.6850   26.0670 N.am  180  ASP180     -0.1960
     91  CA        11.8940   -0.6840   25.3940 C.3   180  ASP180      0.1840
     92  C         11.0990   -1.8680   25.9190 C.2   180  ASP180      0.2622
     93  O         11.5730   -3.0140   25.8530 O.2   180  ASP180     -0.2715
     94  CB        12.0920   -0.8470   23.8750 C.3   180  ASP180      0.1450
     95  CG        10.8830   -0.3780   23.0530 C.2   180  ASP180      0.3671
     96  OD1        9.7330   -0.5890   23.4960 O.co2 180  ASP180     -0.2456
     97  OD2       11.0950    0.1870   21.9520 O.co2 180  ASP180     -0.2456
     98  N          9.9090   -1.5910   26.4490 N.am  181  LEU181     -0.1963
     99  CA         9.0570   -2.6330   26.9860 C.3   181  LEU181      0.1728
    100  C          8.4820   -3.5610   25.9080 C.2   181  LEU181      0.2616
    101  O          8.0070   -4.6540   26.2230 O.2   181  LEU181     -0.2715
    102  CB         7.9400   -2.0050   27.8360 C.3   181  LEU181      0.0311
    103  CG         8.2730   -1.8130   29.3330 C.3   181  LEU181      0.0022
    104  CD1        7.3620   -0.7780   29.9740 C.3   181  LEU181      0.0001
    105  CD2        8.1380   -3.1450   30.0590 C.3   181  LEU181      0.0001
    106  N          8.5130   -3.1240   24.6510 N.am  182  ASN182     -0.1972
    107  CA         8.0150   -3.9390   23.5430 C.3   182  ASN182      0.1688
    108  C          9.1790   -4.6960   22.9150 C.2   182  ASN182      0.2292
    109  O          9.9640   -4.1390   22.1790 O.2   182  ASN182     -0.2864
    110  CB         7.3450   -3.0770   22.4690 C.3   182  ASN182      0.1181
    111  CG         6.8260   -3.9080   21.3030 C.2   182  ASN182      0.2629
    112  OD1        6.8940   -5.1340   21.3280 O.2   182  ASN182     -0.2716
    113  ND2        6.2930   -3.2420   20.2840 N.am  182  ASN182     -0.0877
    114  N          9.3250   -4.4660   18.9810 N.3   185  SER185     -0.1217
    115  CA         9.4020   -3.2160   18.2390 C.3   185  SER185      0.1889
    116  C         10.6370   -3.2280   17.3400 C.2   185  SER185      0.2288
    117  O         11.5690   -4.0070   17.5750 O.2   185  SER185     -0.2866
    118  CB         9.4430   -2.0370   19.2030 C.3   185  SER185      0.2089
    119  OG        10.6820   -1.9710   19.8680 O.3   185  SER185     -0.2183
    120  N         12.3780   -3.6120   29.9350 N.3   197  ASP197     -0.1225
    121  CA        11.9660   -3.3460   31.2900 C.3   197  ASP197      0.1805
    122  C         11.4700   -1.9110   31.2430 C.2   197  ASP197      0.2598
    123  O         11.7530   -1.1830   30.2840 O.2   197  ASP197     -0.2718
    124  CB        13.2020   -3.4930   32.2030 C.3   197  ASP197      0.1424
    125  CG        12.8600   -3.4980   33.6960 C.2   197  ASP197      0.3668
    126  OD1       11.6660   -3.6200   34.0580 O.co2 197  ASP197     -0.2456
    127  OD2       13.8070   -3.3950   34.5150 O.co2 197  ASP197     -0.2456
    128  N         10.7040   -1.5210   32.2510 N.am  198  ASN198     -0.1960
    129  CA        10.1810   -0.1670   32.3140 C.3   198  ASN198      0.1819
    130  C         11.3500    0.7530   32.6660 C.2   198  ASN198      0.2621
    131  O         12.1220    0.4500   33.5880 O.2   198  ASN198     -0.2715
    132  CB         9.1010   -0.0820   33.3940 C.3   198  ASN198      0.1195
    133  CG         8.2910    1.1850   33.2980 C.2   198  ASN198      0.2630
    134  OD1        8.8500    2.2940   33.2270 O.2   198  ASN198     -0.2716
    135  ND2        6.9580    1.0400   33.3040 N.am  198  ASN198     -0.0877
    136  N         11.4720    1.8800   31.9710 N.am  199  ILE199     -0.1977
    137  CA        12.5800    2.7740   32.2650 C.3   199  ILE199      0.1596
    138  C         12.6180    3.2300   33.7310 C.2   199  ILE199      0.2287
    139  O         13.6960    3.5270   34.2610 O.2   199  ILE199     -0.2864
    140  CB        12.6110    4.0000   31.3080 C.3   199  ILE199      0.0276
    141  CG1       13.9710    4.7010   31.4340 C.3   199  ILE199      0.0022
    142  CG2       11.4580    4.9730   31.6080 C.3   199  ILE199      0.0022
    143  CD1       14.2380    5.7130   30.3310 C.3   199  ILE199      0.0001
@<TRIPOS>BOND
     1    81    80   ar
     2    82    80   ar
     3    80    79    1
     4    79    76    1
     5    77    78    2
     6    77    76    1
     7   116   117    2
     8   116   115    1
     9    76    75    1
    10   115   114    1
    11   115   118    1
    12    75    68   am
    13   118   119    1
    14    74    72   ar
    15    69    68    2
    16    68    67    1
    17    71    72    1
    18    71    70    1
    19    72    73   ar
    20    26    24    1
    21   113   111   am
    22    25    24    1
    23    24    23    2
    24    23    22    1
    25    70    67    1
    26    67    66    1
    27    22    21    1
    28   111   112    2
    29   111   110    1
    30    97    95   ar
    31    66    60   am
    32   109   108    2
    33    21    20    1
    34   110   107    1
    35    41    40   ar
    36    41    39   ar
    37    61    60    2
    38   108   107    1
    39    40    38   ar
    40    95    96   ar
    41    95    94    1
    42    60    59    1
    43     5     2    1
    44    39    37   ar
    45    20    17    1
    46   107   106    1
    47     1     2    1
    48     2     3    1
    49    94    91    1
    50    38    36   ar
    51    59    58    1
    52    59    62    1
    53   106   100   am
    54    37    36   ar
    55    17    16    1
    56    17    18    1
    57     3     4    2
    58     3     6   am
    59    36    35    1
    60    91    92    1
    61    91    90    1
    62    62    63    1
    63    18    19    2
    64    18    27   am
    65    86    85    2
    66    83    84    1
    67    93    92    2
    68   100   101    2
    69   100    99    1
    70    92    98   am
    71    48    47    2
    72    90    85   am
    73     6     7    1
    74    85    84    1
    75    27    28    1
    76    98    99    1
    77    47    49   am
    78    47    46    1
    79    35    32    1
    80    63    64    1
    81    63    65    1
    82    84    87    1
    83    99   102    1
    84    42    43    1
    85    28    29    1
    86    46    43    1
    87    31    32    1
    88     7     8    1
    89     7    10    1
    90    32    33    1
    91     8     9    2
    92   102   103    1
    93    43    44    1
    94    87    89    1
    95    87    88    1
    96    29    30    2
    97    10    11    1
    98    33    34    2
    99    44    45    2
   100   103   104    1
   101   103   105    1
   102   120   121    1
   103    11    12   ar
   104    11    13   ar
   105   123   122    2
   106   143   141    1
   107    12    14   ar
   108    13    15   ar
   109   122   121    1
   110   122   128   am
   111   121   124    1
   112   140   141    1
   113   140   142    1
   114   140   137    1
   115    56    55    1
   116    14    15   ar
   117   136   137    1
   118   136   130   am
   119   124   125    1
   120   128   129    1
   121   137   138    1
   122   129   130    1
   123   129   132    1
   124    55    54    1
   125    55    57    1
   126   130   131    2
   127   134   133    2
   128    50    51    1
   129   133   135   am
   130   133   132    1
   131    54    51    1
   132   125   126   ar
   133   125   127   ar
   134   138   139    2
   135    51    52    1
   136    52    53    2
