@<TRIPOS>MOLECULE
tmp/3wdrA00.pdb
 159 158 0 0 0
SMALL
GASTEIGER

@<TRIPOS>ATOM
      1  N         37.4710   19.5650   37.0570 N.3    40  LEU40      -0.1245
      2  CA        36.3780   18.6900   37.4900 C.3    40  LEU40       0.1561
      3  C         36.8750   17.7110   38.5390 C.2    40  LEU40       0.2260
      4  O         37.6840   16.8240   38.2590 O.2    40  LEU40      -0.2867
      5  CB        35.8040   17.9220   36.3060 C.3    40  LEU40       0.0270
      6  CG        34.7120   16.9050   36.6570 C.3    40  LEU40       0.0019
      7  CD1       33.5390   17.4400   37.4590 C.3    40  LEU40       0.0001
      8  CD2       34.2010   16.2790   35.3700 C.3    40  LEU40       0.0001
      9  N         36.5250   22.4950   43.5160 N.3    69  ASP69      -0.1239
     10  CA        35.1990   22.4730   44.1490 C.3    69  ASP69       0.1674
     11  C         35.1350   21.3750   45.1960 C.2    69  ASP69       0.2266
     12  O         35.4910   20.2220   44.8990 O.2    69  ASP69      -0.2867
     13  CB        34.1900   22.1950   43.0440 C.3    69  ASP69       0.1410
     14  CG        32.7390   22.4350   43.4280 C.2    69  ASP69       0.3668
     15  OD1       32.3340   22.2410   44.5690 O.co2  69  ASP69      -0.2456
     16  OD2       32.0000   22.8740   42.4930 O.co2  69  ASP69      -0.2456
     17  N         32.1500   17.0700   46.4860 N.3    71  PHE71      -0.1241
     18  CA        32.0940   15.6800   46.9660 C.3    71  PHE71       0.1605
     19  C         32.6380   15.4760   48.3730 C.2    71  PHE71       0.2264
     20  O         32.6500   14.3470   48.8830 O.2    71  PHE71      -0.2867
     21  CB        32.8350   14.7270   46.0290 C.3    71  PHE71       0.0534
     22  CG        32.2390   14.6100   44.6550 C.ar   71  PHE71      -0.0203
     23  CD1       30.9270   14.2220   44.4650 C.ar   71  PHE71      -0.0042
     24  CD2       33.0060   14.8970   43.5360 C.ar   71  PHE71      -0.0042
     25  CE1       30.4140   14.1010   43.2040 C.ar   71  PHE71      -0.0003
     26  CE2       32.4970   14.7470   42.2690 C.ar   71  PHE71      -0.0003
     27  CZ        31.2160   14.3560   42.1110 C.ar   71  PHE71      -0.0000
     28  N         28.4110   10.1090   49.2830 N.3    77  GLU77      -0.1245
     29  CA        29.6820   10.5620   48.7280 C.3    77  GLU77       0.1567
     30  C         30.8930   10.0080   49.4630 C.2    77  GLU77       0.2260
     31  O         32.0210   10.4860   49.2740 O.2    77  GLU77      -0.2867
     32  CB        29.7320   12.0860   48.6510 C.3    77  GLU77       0.0388
     33  CG        28.5170   12.7720   48.0270 C.3    77  GLU77       0.1160
     34  CD        28.2820   12.4320   46.5820 C.2    77  GLU77       0.3649
     35  OE1       29.0420   11.6780   45.9680 O.co2  77  GLU77      -0.2457
     36  OE2       27.2830   12.9440   45.9980 O.co2  77  GLU77      -0.2457
     37  N         32.4810    7.3490   48.9340 N.3    79  TRP79      -0.1241
     38  CA        33.4430    6.8520   47.9460 C.3    79  TRP79       0.1605
     39  C         34.5700    7.8960   47.6860 C.2    79  TRP79       0.2264
     40  O         35.6590    7.5650   47.2590 O.2    79  TRP79      -0.2867
     41  CB        32.7390    6.5090   46.6130 C.3    79  TRP79       0.0550
     42  CG        32.1680    7.7280   45.9270 C.ar   79  TRP79       0.0003
     43  CD1       30.9200    8.2420   46.0850 C.ar   79  TRP79       0.0946
     44  CD2       32.8500    8.5990   45.0050 C.ar   79  TRP79       0.0152
     45  NE1       30.7750    9.3760   45.3270 N.ar   79  TRP79      -0.2442
     46  CE2       31.9370    9.6140   44.6470 C.ar   79  TRP79       0.0810
     47  CE3       34.1220    8.6060   44.4230 C.ar   79  TRP79       0.0012
     48  CZ2       32.2720   10.6470   43.7660 C.ar   79  TRP79       0.0191
     49  CZ3       34.4390    9.6310   43.5390 C.ar   79  TRP79       0.0001
     50  CH2       33.5100   10.6380   43.2390 C.ar   79  TRP79       0.0015
     51  N         29.8030   23.3830   45.6400 N.3   109  HIS109     -0.1241
     52  CA        28.4020   22.9930   45.3910 C.3   109  HIS109      0.1621
     53  C         27.9760   22.0880   46.5520 C.2   109  HIS109      0.2264
     54  O         28.2530   20.8840   46.5880 O.2   109  HIS109     -0.2867
     55  CB        28.2200   22.3100   44.0460 C.3   109  HIS109      0.0745
     56  CG        28.3000   23.2280   42.8590 C.ar  109  HIS109      0.0817
     57  ND1       29.4820   23.6320   42.2820 N.ar  109  HIS109     -0.2268
     58  CD2       27.3190   23.8280   42.1530 C.ar  109  HIS109      0.1154
     59  CE1       29.2220   24.4060   41.2430 C.ar  109  HIS109      0.1986
     60  NE2       27.9110   24.5540   41.1580 N.ar  109  HIS109     -0.2212
     61  N         26.1270   19.9960   48.9400 N.3   111  ARG111     -0.1245
     62  CA        25.0210   19.0340   48.9080 C.3   111  ARG111      0.1563
     63  C         24.1880   19.0840   50.1760 C.2   111  ARG111      0.2260
     64  O         24.7020   19.2420   51.2670 O.2   111  ARG111     -0.2867
     65  CB        25.5910   17.6470   48.6720 C.3   111  ARG111      0.0307
     66  CG        26.2590   17.5570   47.3070 C.3   111  ARG111      0.0489
     67  CD        26.9360   16.2190   47.0770 C.3   111  ARG111      0.2205
     68  NE        27.6760   16.2410   45.8330 N.pl3 111  ARG111     -0.0865
     69  CZ        27.1440   16.0440   44.6450 C.cat 111  ARG111      0.5346
     70  NH1       25.8580   15.7070   44.5180 N.pl3 111  ARG111      0.1354
     71  NH2       27.9050   16.1620   43.5570 N.pl3 111  ARG111      0.1354
     72  N         21.2300   13.8290   47.8760 N.3   118  ASP118     -0.1239
     73  CA        22.5940   14.2680   47.5510 C.3   118  ASP118      0.1674
     74  C         22.6050   15.5800   46.7520 C.2   118  ASP118      0.2266
     75  O         23.6390   15.9330   46.2010 O.2   118  ASP118     -0.2867
     76  CB        23.3560   13.1800   46.7920 C.3   118  ASP118      0.1410
     77  CG        22.8270   12.9280   45.4120 C.2   118  ASP118      0.3668
     78  OD1       21.8070   13.5080   44.9910 O.co2 118  ASP118     -0.2456
     79  OD2       23.4820   12.1120   44.7120 O.co2 118  ASP118     -0.2456
     80  N         22.3070   19.6240   45.5470 N.3   120  PHE120     -0.1227
     81  CA        22.4540   21.0520   45.8400 C.3   120  PHE120      0.1736
     82  C         21.4280   21.9070   45.1060 C.2   120  PHE120      0.2595
     83  O         21.1370   23.0310   45.5420 O.2   120  PHE120     -0.2718
     84  CB        23.8920   21.5730   45.5660 C.3   120  PHE120      0.0547
     85  CG        24.4800   21.1000   44.2720 C.ar  120  PHE120     -0.0202
     86  CD1       24.1240   21.7170   43.0760 C.ar  120  PHE120     -0.0042
     87  CD2       25.3790   20.0470   44.2280 C.ar  120  PHE120     -0.0042
     88  CE1       24.6430   21.2930   41.8580 C.ar  120  PHE120     -0.0003
     89  CE2       25.9110   19.6210   43.0200 C.ar  120  PHE120     -0.0003
     90  CZ        25.5460   20.2430   41.8360 C.ar  120  PHE120     -0.0000
     91  N         20.8610   21.3930   44.0180 N.am  121  TYR121     -0.1976
     92  CA        19.8350   22.1320   43.2960 C.3   121  TYR121      0.1639
     93  C         18.5560   22.3100   44.0960 C.2   121  TYR121      0.2290
     94  O         18.1730   21.4620   44.8640 O.2   121  TYR121     -0.2864
     95  CB        19.4860   21.4150   42.0040 C.3   121  TYR121      0.0560
     96  CG        20.5490   21.5050   40.9220 C.ar  121  TYR121     -0.0198
     97  CD1       20.9570   22.7310   40.4030 C.ar  121  TYR121     -0.0009
     98  CD2       21.1260   20.3510   40.4170 C.ar  121  TYR121     -0.0009
     99  CE1       21.9160   22.8030   39.3840 C.ar  121  TYR121      0.0417
    100  CE2       22.0770   20.4140   39.4280 C.ar  121  TYR121      0.0417
    101  CZ        22.4540   21.6230   38.9220 C.ar  121  TYR121      0.1957
    102  OH        23.4200   21.6700   37.9200 O.3   121  TYR121     -0.2866
    103  N         20.0610   27.0930   43.6080 N.3   182  PHE182     -0.1241
    104  CA        20.7400   26.3050   44.6430 C.3   182  PHE182      0.1605
    105  C         20.0260   26.5560   45.9750 C.2   182  PHE182      0.2264
    106  O         19.4690   27.6470   46.1930 O.2   182  PHE182     -0.2867
    107  CB        22.2260   26.7000   44.7690 C.3   182  PHE182      0.0534
    108  CG        23.0320   26.4890   43.5150 C.ar  182  PHE182     -0.0203
    109  CD1       22.9750   25.3130   42.7830 C.ar  182  PHE182     -0.0042
    110  CD2       23.8800   27.5080   43.0710 C.ar  182  PHE182     -0.0042
    111  CE1       23.7760   25.1610   41.6700 C.ar  182  PHE182     -0.0003
    112  CE2       24.6690   27.3460   41.9840 C.ar  182  PHE182     -0.0003
    113  CZ        24.6130   26.1960   41.2660 C.ar  182  PHE182     -0.0000
    114  N         34.3320   27.4660   32.7640 N.3   292  TRP292     -0.1227
    115  CA        33.9650   26.2030   33.3830 C.3   292  TRP292      0.1737
    116  C         34.7800   25.0460   32.7370 C.2   292  TRP292      0.2595
    117  O         35.5620   25.2250   31.7910 O.2   292  TRP292     -0.2718
    118  CB        32.4280   26.0210   33.3400 C.3   292  TRP292      0.0564
    119  CG        31.8890   25.1740   34.4390 C.ar  292  TRP292      0.0003
    120  CD1       31.1760   24.0260   34.3190 C.ar  292  TRP292      0.0946
    121  CD2       32.0200   25.4220   35.8450 C.ar  292  TRP292      0.0152
    122  NE1       30.8450   23.5440   35.5600 N.ar  292  TRP292     -0.2442
    123  CE2       31.3580   24.3690   36.5280 C.ar  292  TRP292      0.0810
    124  CE3       32.6140   26.4380   36.5940 C.ar  292  TRP292      0.0012
    125  CZ2       31.3060   24.2910   37.9290 C.ar  292  TRP292      0.0191
    126  CZ3       32.5720   26.3650   37.9800 C.ar  292  TRP292      0.0001
    127  CH2       31.9190   25.3060   38.6300 C.ar  292  TRP292      0.0015
    128  N         34.6540   23.8730   33.3330 N.am  293  TYR293     -0.1962
    129  CA        35.4890   22.7420   32.9470 C.3   293  TYR293      0.1771
    130  C         35.0200   22.0470   31.6750 C.2   293  TYR293      0.2619
    131  O         34.0110   22.4200   31.0750 O.2   293  TYR293     -0.2715
    132  CB        35.6020   21.7790   34.1250 C.3   293  TYR293      0.0574
    133  CG        34.3110   21.2820   34.7480 C.ar  293  TYR293     -0.0198
    134  CD1       33.3960   20.5020   34.0230 C.ar  293  TYR293     -0.0009
    135  CD2       33.9780   21.5870   36.0530 C.ar  293  TYR293     -0.0009
    136  CE1       32.2410   20.0440   34.6030 C.ar  293  TYR293      0.0417
    137  CE2       32.8140   21.1210   36.6190 C.ar  293  TYR293      0.0417
    138  CZ        31.9650   20.3380   35.8780 C.ar  293  TYR293      0.1957
    139  OH        30.7580   19.8820   36.4420 O.3   293  TYR293     -0.2866
    140  N         35.7700   21.0460   31.2470 N.am  294  ASN294     -0.1972
    141  CA        35.4240   20.2450   30.0590 C.3   294  ASN294      0.1688
    142  C         35.3250   21.1440   28.8080 C.2   294  ASN294      0.2292
    143  O         36.2600   21.9390   28.5770 O.2   294  ASN294     -0.2864
    144  CB        34.1700   19.3470   30.2770 C.3   294  ASN294      0.1181
    145  CG        34.3670   18.2640   31.3090 C.2   294  ASN294      0.2629
    146  OD1       35.4660   17.9790   31.7340 O.2   294  ASN294     -0.2716
    147  ND2       33.2540   17.7050   31.7620 N.am  294  ASN294     -0.0877
    148  N         33.7370   23.7410   28.0520 N.3   296  TYR296     -0.1241
    149  CA        33.7090   25.1840   28.2510 C.3   296  TYR296      0.1605
    150  C         35.1110   25.7740   28.1770 C.2   296  TYR296      0.2264
    151  O         35.2740   26.9430   27.8950 O.2   296  TYR296     -0.2867
    152  CB        33.0940   25.5870   29.5940 C.3   296  TYR296      0.0534
    153  CG        31.6280   25.3200   29.6720 C.ar  296  TYR296     -0.0201
    154  CD1       30.6940   26.1880   29.1010 C.ar  296  TYR296     -0.0009
    155  CD2       31.1630   24.1990   30.3340 C.ar  296  TYR296     -0.0009
    156  CE1       29.3320   25.9500   29.2340 C.ar  296  TYR296      0.0417
    157  CE2       29.8140   23.9520   30.4390 C.ar  296  TYR296      0.0417
    158  CZ        28.9200   24.8400   29.9020 C.ar  296  TYR296      0.1957
    159  OH        27.5840   24.5090   30.0330 O.3   296  TYR296     -0.2866
@<TRIPOS>BOND
     1   151   150    2
     2   148   149    1
     3   150   149    1
     4   149   152    1
     5   143   142    2
     6   142   141    1
     7   154   156   ar
     8   154   153   ar
     9   156   158   ar
    10   152   153    1
    11   153   155   ar
    12   158   159    1
    13   158   157   ar
    14   141   144    1
    15   141   140    1
    16   144   145    1
    17   155   157   ar
    18   131   130    2
    19   140   130   am
    20   145   146    2
    21   145   147   am
    22   130   129    1
    23   117   116    2
    24   116   128   am
    25   116   115    1
    26   114   115    1
    27   129   128    1
    28   129   132    1
    29   118   115    1
    30   118   119    1
    31   134   136   ar
    32   134   133   ar
    33   132   133    1
    34   120   119   ar
    35   120   122   ar
    36   119   121   ar
    37   136   138   ar
    38   133   135   ar
    39     8     6    1
    40   122   123   ar
    41   121   123   ar
    42   121   124   ar
    43   138   139    1
    44   138   137   ar
    45   135   137   ar
    46     5     6    1
    47     5     2    1
    48   123   125   ar
    49   124   126   ar
    50     6     7    1
    51     1     2    1
    52     2     3    1
    53   102   101    1
    54   125   127   ar
    55   126   127   ar
    56     4     3    2
    57   101    99   ar
    58   101   100   ar
    59    99    97   ar
    60   100    98   ar
    61    97    96   ar
    62    98    96   ar
    63    96    95    1
    64    60    59   ar
    65    60    58   ar
    66    59    57   ar
    67   113   111   ar
    68   113   112   ar
    69   111   109   ar
    70    90    88   ar
    71    90    89   ar
    72    88    86   ar
    73   112   110   ar
    74    95    92    1
    75    27    26   ar
    76    27    25   ar
    77    58    56   ar
    78    26    24   ar
    79    57    56   ar
    80    16    14   ar
    81   109   108   ar
    82    56    55    1
    83    89    87   ar
    84    13    14    1
    85    13    10    1
    86   110   108   ar
    87    86    85   ar
    88    25    23   ar
    89    50    49   ar
    90    50    48   ar
    91    92    91    1
    92    92    93    1
    93    14    15   ar
    94   108   107    1
    95     9    10    1
    96    24    22   ar
    97    49    47   ar
    98    71    69    1
    99   103   104    1
   100    48    46   ar
   101    91    82   am
   102    55    52    1
   103    93    94    2
   104    10    11    1
   105    87    85   ar
   106    85    84    1
   107    47    44   ar
   108    23    22   ar
   109    70    69    1
   110   104   107    1
   111   104   105    1
   112    69    68    2
   113    46    44   ar
   114    46    45   ar
   115    22    21    1
   116    79    77   ar
   117    12    11    2
   118    78    77   ar
   119    44    42   ar
   120    82    83    2
   121    82    81    1
   122    45    43   ar
   123    52    51    1
   124    52    53    1
   125    77    76    1
   126    80    81    1
   127    84    81    1
   128    68    67    1
   129    42    43   ar
   130    42    41    1
   131    35    34   ar
   132   105   106    2
   133    36    34   ar
   134    21    18    1
   135    75    74    2
   136    17    18    1
   137    53    54    2
   138    34    33    1
   139    41    38    1
   140    74    73    1
   141    76    73    1
   142    18    19    1
   143    67    66    1
   144    40    39    2
   145    66    65    1
   146    73    72    1
   147    39    38    1
   148    38    37    1
   149    33    32    1
   150    19    20    2
   151    32    29    1
   152    65    62    1
   153    29    28    1
   154    29    30    1
   155    62    61    1
   156    62    63    1
   157    31    30    2
   158    63    64    2
