@<TRIPOS>MOLECULE
tmp/3wdvD00.pdb
 153 147 0 0 0
SMALL
GASTEIGER

@<TRIPOS>ATOM
      1  N        -50.4170    0.6020  -11.6650 N.3    28  THR28      -0.1218
      2  CA       -49.7030    1.0500  -10.4710 C.3    28  THR28       0.1862
      3  C        -50.5550    1.9270   -9.5460 C.2    28  THR28       0.2287
      4  O        -50.0370    2.6540   -8.6930 O.2    28  THR28      -0.2866
      5  CB       -48.3800    1.7770  -10.8420 C.3    28  THR28       0.1770
      6  OG1      -48.6250    2.7600  -11.8550 O.3    28  THR28      -0.2211
      7  CG2      -47.3610    0.7770  -11.3540 C.3    28  THR28       0.0375
      8  N        -44.8280   10.4240  -12.2980 N.3    99  TRP99      -0.1241
      9  CA       -44.0850    9.1750  -12.3660 C.3    99  TRP99       0.1605
     10  C        -44.0200    8.7860  -13.8480 C.2    99  TRP99       0.2264
     11  O        -44.8230    7.9870  -14.3270 O.2    99  TRP99      -0.2867
     12  CB       -44.8270    8.1170  -11.5450 C.3    99  TRP99       0.0550
     13  CG       -44.2320    6.7480  -11.5430 C.ar   99  TRP99       0.0003
     14  CD1      -43.1180    6.3240  -12.2100 C.ar   99  TRP99       0.0946
     15  CD2      -44.7500    5.6030  -10.8570 C.ar   99  TRP99       0.0152
     16  NE1      -42.9140    4.9820  -11.9840 N.ar   99  TRP99      -0.2442
     17  CE2      -43.9020    4.5160  -11.1560 C.ar   99  TRP99       0.0810
     18  CE3      -45.8530    5.3910  -10.0180 C.ar   99  TRP99       0.0012
     19  CZ2      -44.1220    3.2290  -10.6460 C.ar   99  TRP99       0.0191
     20  CZ3      -46.0730    4.1170   -9.5120 C.ar   99  TRP99       0.0001
     21  CH2      -45.2100    3.0510   -9.8290 C.ar   99  TRP99       0.0015
     22  N        -38.6730   -7.2220  -17.5660 N.3   115  GLU115     -0.1245
     23  CA       -39.0810   -5.8290  -17.7030 C.3   115  GLU115      0.1567
     24  C        -37.8240   -4.9730  -17.6860 C.2   115  GLU115      0.2260
     25  O        -36.9260   -5.2090  -16.8820 O.2   115  GLU115     -0.2867
     26  CB       -39.9880   -5.4200  -16.5370 C.3   115  GLU115      0.0388
     27  CG       -40.4900   -3.9760  -16.6030 C.3   115  GLU115      0.1160
     28  CD       -41.1520   -3.5230  -15.3100 C.2   115  GLU115      0.3649
     29  OE1      -41.8410   -4.3440  -14.6720 O.co2 115  GLU115     -0.2457
     30  OE2      -40.9980   -2.3410  -14.9370 O.co2 115  GLU115     -0.2457
     31  N        -36.6210   -0.9830  -17.4440 N.3   117  ASP117     -0.1239
     32  CA       -36.9630    0.4190  -17.2320 C.3   117  ASP117      0.1674
     33  C        -35.7610    1.2360  -17.7020 C.2   117  ASP117      0.2266
     34  O        -34.7180    1.2650  -17.0460 O.2   117  ASP117     -0.2867
     35  CB       -37.2640    0.6800  -15.7530 C.3   117  ASP117      0.1410
     36  CG       -38.3950   -0.1980  -15.2280 C.2   117  ASP117      0.3668
     37  OD1      -39.4380   -0.2930  -15.9080 O.co2 117  ASP117     -0.2456
     38  OD2      -38.2490   -0.7880  -14.1370 O.co2 117  ASP117     -0.2456
     39  N        -36.8180    6.3240  -16.0550 N.3   120  GLU120     -0.1245
     40  CA       -37.8570    6.2890  -15.0340 C.3   120  GLU120      0.1567
     41  C        -37.4680    7.0670  -13.7820 C.2   120  GLU120      0.2260
     42  O        -36.2980    7.1170  -13.4060 O.2   120  GLU120     -0.2867
     43  CB       -38.1830    4.8360  -14.6690 C.3   120  GLU120      0.0388
     44  CG       -39.3070    4.6900  -13.6480 C.3   120  GLU120      0.1160
     45  CD       -39.6870    3.2380  -13.3810 C.2   120  GLU120      0.3649
     46  OE1      -38.7700    2.4070  -13.2060 O.co2 120  GLU120     -0.2457
     47  OE2      -40.9010    2.9330  -13.3320 O.co2 120  GLU120     -0.2457
     48  N        -33.1470    6.3460  -13.2970 N.3   129  HIS129     -0.1241
     49  CA       -32.9490    5.0140  -12.7400 C.3   129  HIS129      0.1621
     50  C        -33.2020    3.9730  -13.8200 C.2   129  HIS129      0.2264
     51  O        -34.2930    3.9000  -14.3840 O.2   129  HIS129     -0.2867
     52  CB       -33.8930    4.7570  -11.5650 C.3   129  HIS129      0.0745
     53  CG       -33.6180    5.6180  -10.3720 C.ar  129  HIS129      0.0817
     54  ND1      -34.0660    6.9180  -10.2710 N.ar  129  HIS129     -0.2268
     55  CD2      -32.9180    5.3720   -9.2400 C.ar  129  HIS129      0.1154
     56  CE1      -33.6540    7.4350   -9.1280 C.ar  129  HIS129      0.1986
     57  NE2      -32.9550    6.5180   -8.4830 N.ar  129  HIS129     -0.2212
     58  N        -33.4860    0.1590  -14.4270 N.3   131  VAL131     -0.1245
     59  CA       -33.7430   -1.0460  -13.6490 C.3   131  VAL131      0.1561
     60  C        -34.3460   -2.2030  -14.4330 C.2   131  VAL131      0.2260
     61  O        -35.0670   -1.9960  -15.4130 O.2   131  VAL131     -0.2867
     62  CB       -34.7220   -0.7130  -12.4950 C.3   131  VAL131      0.0252
     63  CG1      -34.7910   -1.8620  -11.5040 C.3   131  VAL131      0.0019
     64  CG2      -34.3090    0.5860  -11.8220 C.3   131  VAL131      0.0019
     65  N        -36.4750   -6.0090  -13.9420 N.3   133  HIS133     -0.1241
     66  CA       -37.3570   -6.7490  -13.0470 C.3   133  HIS133      0.1621
     67  C        -37.5040   -8.1350  -13.6660 C.2   133  HIS133      0.2264
     68  O        -37.9890   -8.2570  -14.7930 O.2   133  HIS133     -0.2867
     69  CB       -38.7300   -6.0640  -12.9790 C.3   133  HIS133      0.0745
     70  CG       -38.7020   -4.6990  -12.3640 C.ar  133  HIS133      0.0817
     71  ND1      -38.8710   -4.4850  -11.0120 N.ar  133  HIS133     -0.2268
     72  CD2      -38.5100   -3.4770  -12.9160 C.ar  133  HIS133      0.1154
     73  CE1      -38.7860   -3.1920  -10.7590 C.ar  133  HIS133      0.1986
     74  NE2      -38.5670   -2.5580  -11.8960 N.ar  133  HIS133     -0.2212
     75  N        -27.3200    0.2360   -7.2780 N.3   150  LYS150     -0.1231
     76  CA       -28.0900    0.3210   -6.0400 C.3   150  LYS150      0.1693
     77  C        -28.4840   -1.0760   -5.5530 C.2   150  LYS150      0.2592
     78  O        -28.3650   -1.3860   -4.3650 O.2   150  LYS150     -0.2718
     79  CB       -29.3430    1.1780   -6.2510 C.3   150  LYS150      0.0285
     80  CG       -29.0880    2.4740   -7.0230 C.3   150  LYS150      0.0035
     81  CD       -27.8310    3.2000   -6.5410 C.3   150  LYS150      0.0206
     82  CE       -27.9410    3.6230   -5.0900 C.3   150  LYS150      0.1093
     83  NZ       -29.0590    4.5810   -4.8920 N.3   150  LYS150     -0.1314
     84  N        -28.9480   -1.9150   -6.4720 N.am  151  THR151     -0.1953
     85  CA       -29.3430   -3.2820   -6.1390 C.3   151  THR151      0.1897
     86  C        -28.8230   -4.2420   -7.2090 C.2   151  THR151      0.2313
     87  O        -28.9990   -4.0050   -8.4030 O.2   151  THR151     -0.2863
     88  CB       -30.8790   -3.4080   -6.0240 C.3   151  THR151      0.1794
     89  OG1      -31.5000   -2.7470   -7.1330 O.3   151  THR151     -0.2208
     90  CG2      -31.3680   -2.7790   -4.7200 C.3   151  THR151      0.0378
     91  N        -35.9730   -3.9300   -1.3520 N.3   162  ASP162     -0.1225
     92  CA       -37.3700   -3.5500   -1.1840 C.3   162  ASP162      0.1805
     93  C        -38.2350   -4.3020   -2.1900 C.2   162  ASP162      0.2598
     94  O        -37.7530   -4.6970   -3.2540 O.2   162  ASP162     -0.2718
     95  CB       -37.5080   -2.0470   -1.3840 C.3   162  ASP162      0.1424
     96  CG       -36.5060   -1.2710   -0.5560 C.2   162  ASP162      0.3668
     97  OD1      -36.6120   -1.3370    0.6830 O.co2 162  ASP162     -0.2456
     98  OD2      -35.6050   -0.6110   -1.1320 O.co2 162  ASP162     -0.2456
     99  N        -39.5050   -4.5010   -1.8440 N.am  163  ALA163     -0.1966
    100  CA       -40.4350   -5.2090   -2.7120 C.3   163  ALA163      0.1728
    101  C        -40.3550   -4.6610   -4.1240 C.2   163  ALA163      0.2616
    102  O        -40.5130   -3.4640   -4.3440 O.2   163  ALA163     -0.2715
    103  CB       -41.8700   -5.0870   -2.1790 C.3   163  ALA163      0.0334
    104  N        -40.0860   -5.5450   -5.0770 N.am  164  ASN164     -0.1958
    105  CA       -39.9920   -5.1690   -6.4830 C.3   164  ASN164      0.1819
    106  C        -38.9990   -4.0490   -6.8190 C.2   164  ASN164      0.2621
    107  O        -39.2210   -3.2690   -7.7540 O.2   164  ASN164     -0.2715
    108  CB       -41.3800   -4.8030   -7.0150 C.3   164  ASN164      0.1195
    109  CG       -41.4010   -4.6720   -8.5230 C.2   164  ASN164      0.2630
    110  OD1      -40.7610   -5.4530   -9.2300 O.2   164  ASN164     -0.2716
    111  ND2      -42.1430   -3.6910   -9.0260 N.am  164  ASN164     -0.0877
    112  N        -37.9040   -3.9710   -6.0710 N.am  165  ALA165     -0.1977
    113  CA       -36.8890   -2.9620   -6.3420 C.3   165  ALA165      0.1597
    114  C        -36.1680   -3.3520   -7.6340 C.2   165  ALA165      0.2287
    115  O        -35.8170   -2.4940   -8.4480 O.2   165  ALA165     -0.2864
    116  CB       -35.8890   -2.8870   -5.1850 C.3   165  ALA165      0.0319
    117  N        -48.3520    3.5830   -6.5170 N.3   254  ASP254     -0.1225
    118  CA       -47.4250    2.7110   -5.7920 C.3   254  ASP254      0.1805
    119  C        -46.0630    3.2970   -5.4500 C.2   254  ASP254      0.2597
    120  O        -45.5530    3.0770   -4.3530 O.2   254  ASP254     -0.2718
    121  CB       -47.1980    1.4060   -6.5560 C.3   254  ASP254      0.1424
    122  CG       -48.4690    0.6130   -6.7540 C.2   254  ASP254      0.3668
    123  OD1      -49.4240    0.8050   -5.9720 O.co2 254  ASP254     -0.2456
    124  OD2      -48.5010   -0.2160   -7.6890 O.co2 254  ASP254     -0.2456
    125  N        -45.4530    4.0160   -6.3830 N.am  255  TRP255     -0.1976
    126  CA       -44.1490    4.5940   -6.1020 C.3   255  TRP255      0.1640
    127  C        -44.2600    6.0780   -5.7550 C.2   255  TRP255      0.2290
    128  O        -44.1540    6.4530   -4.5840 O.2   255  TRP255     -0.2864
    129  CB       -43.2060    4.3850   -7.2950 C.3   255  TRP255      0.0576
    130  CG       -41.7720    4.7780   -7.0300 C.ar  255  TRP255      0.0006
    131  CD1      -41.2550    5.2830   -5.8670 C.ar  255  TRP255      0.0946
    132  CD2      -40.6870    4.7440   -7.9670 C.ar  255  TRP255      0.0152
    133  NE1      -39.9210    5.5710   -6.0260 N.ar  255  TRP255     -0.2442
    134  CE2      -39.5460    5.2510   -7.3050 C.ar  255  TRP255      0.0810
    135  CE3      -40.5690    4.3380   -9.3050 C.ar  255  TRP255      0.0012
    136  CZ2      -38.3020    5.3650   -7.9350 C.ar  255  TRP255      0.0191
    137  CZ3      -39.3310    4.4510   -9.9320 C.ar  255  TRP255      0.0001
    138  CH2      -38.2140    4.9620   -9.2440 C.ar  255  TRP255      0.0015
    139  N        -46.2700    6.9210   -2.7630 N.3   258  ASN258     -0.1225
    140  CA       -45.7170    6.4330   -1.5060 C.3   258  ASN258      0.1785
    141  C        -44.5240    7.2420   -0.9950 C.2   258  ASN258      0.2597
    142  O        -44.3030    7.3190    0.2140 O.2   258  ASN258     -0.2718
    143  CB       -45.3170    4.9630   -1.6480 C.3   258  ASN258      0.1169
    144  CG       -44.9800    4.3220   -0.3180 C.2   258  ASN258      0.2627
    145  OD1      -45.7890    4.3400    0.6120 O.2   258  ASN258     -0.2716
    146  ND2      -43.7850    3.7490   -0.2180 N.am  258  ASN258     -0.0877
    147  N        -43.7570    7.8390   -1.9050 N.am  259  VAL259     -0.1980
    148  CA       -42.5900    8.6290   -1.5110 C.3   259  VAL259      0.1595
    149  C        -42.8180   10.1280   -1.6480 C.2   259  VAL259      0.2287
    150  O        -41.8640   10.8930   -1.8040 O.2   259  VAL259     -0.2864
    151  CB       -41.3370    8.2630   -2.3450 C.3   259  VAL259      0.0276
    152  CG1      -40.9580    6.8110   -2.1070 C.3   259  VAL259      0.0022
    153  CG2      -41.5980    8.5240   -3.8230 C.3   259  VAL259      0.0022
@<TRIPOS>BOND
     1    23    24    1
     2    23    22    1
     3    23    26    1
     4    33    32    1
     5    33    34    2
     6    24    25    2
     7    31    32    1
     8    32    35    1
     9    27    26    1
    10    27    28    1
    11    39    40    1
    12    37    36   ar
    13    35    36    1
    14    61    60    2
    15    28    30   ar
    16    28    29   ar
    17    36    38   ar
    18    40    43    1
    19    40    41    1
    20    68    67    2
    21    43    44    1
    22    60    59    1
    23    58    59    1
    24    51    50    2
    25    11    10    2
    26    65    66    1
    27    10     9    1
    28    50    49    1
    29    41    42    2
    30    67    66    1
    31    59    62    1
    32    44    45    1
    33    45    47   ar
    34    45    46   ar
    35    48    49    1
    36    66    69    1
    37    69    70    1
    38    72    70   ar
    39    72    74   ar
    40    49    52    1
    41    62    64    1
    42    62    63    1
    43     9     8    1
    44     9    12    1
    45    70    71   ar
    46    14    16   ar
    47    14    13   ar
    48    16    17   ar
    49    74    73   ar
    50     6     5    1
    51     1     2    1
    52    52    53    1
    53    12    13    1
    54    13    15   ar
    55     7     5    1
    56    17    15   ar
    57    17    19   ar
    58    71    73   ar
    59    15    18   ar
    60     5     2    1
    61    19    21   ar
    62     2     3    1
    63    53    54   ar
    64    53    55   ar
    65    54    56   ar
    66    18    20   ar
    67   137   135   ar
    68   137   138   ar
    69    21    20   ar
    70     3     4    2
    71   135   132   ar
    72   138   136   ar
    73    55    57   ar
    74   110   109    2
    75    56    57   ar
    76   111   109   am
    77   109   108    1
    78   115   114    2
    79    87    86    2
    80   132   134   ar
    81   132   130   ar
    82   136   134   ar
    83   107   106    2
    84   124   122   ar
    85   114   113    1
    86   134   133   ar
    87   129   130    1
    88   129   126    1
    89    75    76    1
    90    86    85    1
    91    89    88    1
    92   130   131   ar
    93    80    81    1
    94    80    79    1
    95   108   105    1
    96   106   105    1
    97   106   112   am
    98   122   121    1
    99   122   123   ar
   100   121   118    1
   101    81    82    1
   102   117   118    1
   103   105   104    1
   104    84    85    1
   105    84    77   am
   106   125   126    1
   107   125   119   am
   108   113   112    1
   109   113   116    1
   110    79    76    1
   111    85    88    1
   112   126   127    1
   113    76    77    1
   114   133   131   ar
   115    88    90    1
   116   118   119    1
   117   127   128    2
   118    77    78    2
   119   119   120    2
   120    82    83    1
   121   104   101   am
   122   102   101    2
   123   101   100    1
   124   153   151    1
   125    94    93    2
   126   139   140    1
   127   100   103    1
   128   100    99    1
   129   151   152    1
   130   151   148    1
   131    93    99   am
   132    93    92    1
   133   147   148    1
   134   147   141   am
   135   150   149    2
   136   149   148    1
   137   143   140    1
   138   143   144    1
   139   140   141    1
   140    95    92    1
   141    95    96    1
   142    91    92    1
   143    98    96   ar
   144   141   142    2
   145    96    97   ar
   146   144   146   am
   147   144   145    2
