@<TRIPOS>MOLECULE
tmp/3wdxB01.pdb
 155 148 0 0 0
SMALL
GASTEIGER

@<TRIPOS>ATOM
      1  N         17.8770   30.8410   60.8410 N.3    27  PRO27      -0.2102
      2  CA        18.7400   29.6610   60.7920 C.3    27  PRO27       0.1504
      3  C         19.4340   29.5200   59.4420 C.2    27  PRO27       0.2576
      4  O         20.5200   28.9490   59.3620 O.2    27  PRO27      -0.2718
      5  CB        17.7730   28.5150   61.0780 C.3    27  PRO27       0.0282
      6  CG        16.7860   29.1470   61.9980 C.3    27  PRO27       0.0208
      7  CD        16.5310   30.4750   61.3120 C.3    27  PRO27       0.0893
      8  N         18.8100   30.0390   58.3830 N.am   28  THR28      -0.1953
      9  CA        19.4040   29.9680   57.0490 C.3    28  THR28       0.1897
     10  C         20.2890   31.1810   56.7490 C.2    28  THR28       0.2313
     11  O         20.7410   31.3800   55.6170 O.2    28  THR28      -0.2863
     12  CB        18.3210   29.7940   55.9410 C.3    28  THR28       0.1794
     13  OG1       17.2330   30.6950   56.1730 O.3    28  THR28      -0.2208
     14  CG2       17.7940   28.3570   55.9380 C.3    28  THR28       0.0378
     15  N          7.9620   34.7390   60.5510 N.3    72  ARG72      -0.1245
     16  CA         8.1110   33.2990   60.4140 C.3    72  ARG72       0.1563
     17  C          7.1690   32.6880   61.4380 C.2    72  ARG72       0.2260
     18  O          7.4030   32.7700   62.6440 O.2    72  ARG72      -0.2867
     19  CB         9.5610   32.8710   60.6810 C.3    72  ARG72       0.0307
     20  CG         9.7310   31.3530   60.8080 C.3    72  ARG72       0.0489
     21  CD        11.1750   30.9080   60.6590 C.3    72  ARG72       0.2205
     22  NE        11.3450   29.5230   61.0970 N.pl3  72  ARG72      -0.0865
     23  CZ        12.3830   28.7520   60.7820 C.cat  72  ARG72       0.5346
     24  NH1       13.3600   29.2220   60.0160 N.pl3  72  ARG72       0.1354
     25  NH2       12.4470   27.5080   61.2440 N.pl3  72  ARG72       0.1354
     26  N         13.2510   34.4550   49.4720 N.3    99  TRP99      -0.1241
     27  CA        13.2960   33.0080   49.6450 C.3    99  TRP99       0.1605
     28  C         12.1030   32.6190   50.5130 C.2    99  TRP99       0.2264
     29  O         12.2230   32.4080   51.7240 O.2    99  TRP99      -0.2867
     30  CB        14.6260   32.6350   50.3060 C.3    99  TRP99       0.0550
     31  CG        14.8460   31.1830   50.6100 C.ar   99  TRP99       0.0003
     32  CD1       14.0010   30.1420   50.3630 C.ar   99  TRP99       0.0946
     33  CD2       15.9960   30.6240   51.2600 C.ar   99  TRP99       0.0152
     34  NE1       14.5540   28.9650   50.8230 N.ar   99  TRP99      -0.2442
     35  CE2       15.7780   29.2350   51.3770 C.ar   99  TRP99       0.0810
     36  CE3       17.1890   31.1680   51.7560 C.ar   99  TRP99       0.0012
     37  CZ2       16.7140   28.3760   51.9720 C.ar   99  TRP99       0.0191
     38  CZ3       18.1190   30.3160   52.3490 C.ar   99  TRP99       0.0001
     39  CH2       17.8730   28.9340   52.4500 C.ar   99  TRP99       0.0015
     40  N          8.7470   30.2750   51.7500 N.3   101  ALA101     -0.1245
     41  CA         8.5420   28.8570   51.9760 C.3   101  ALA101      0.1562
     42  C          7.3710   28.5320   52.8790 C.2   101  ALA101      0.2260
     43  O          7.1380   29.2000   53.8870 O.2   101  ALA101     -0.2867
     44  CB         9.8180   28.2210   52.5530 C.3   101  ALA101      0.0290
     45  N          6.3000   25.1400   54.6290 N.3   103  TRP103     -0.1241
     46  CA         6.8650   23.8180   54.8510 C.3   103  TRP103      0.1605
     47  C          6.5180   23.2590   56.2150 C.2   103  TRP103      0.2264
     48  O          5.8730   23.9260   57.0240 O.2   103  TRP103     -0.2867
     49  CB         8.3880   23.8860   54.7110 C.3   103  TRP103      0.0550
     50  CG         9.0520   24.9520   55.5760 C.ar  103  TRP103      0.0003
     51  CD1        8.8050   26.2970   55.5560 C.ar  103  TRP103      0.0946
     52  CD2       10.1100   24.7570   56.5290 C.ar  103  TRP103      0.0152
     53  NE1        9.6460   26.9520   56.4320 N.ar  103  TRP103     -0.2442
     54  CE2       10.4560   26.0300   57.0410 C.ar  103  TRP103      0.0810
     55  CE3       10.8010   23.6300   56.9960 C.ar  103  TRP103      0.0012
     56  CZ2       11.4660   26.2080   57.9970 C.ar  103  TRP103      0.0191
     57  CZ3       11.8080   23.8070   57.9470 C.ar  103  TRP103      0.0001
     58  CH2       12.1290   25.0890   58.4350 C.ar  103  TRP103      0.0015
     59  N          8.0930   20.9720   59.6590 N.3   105  LEU105     -0.1245
     60  CA         9.3330   20.6620   60.3640 C.3   105  LEU105      0.1561
     61  C          9.0910   19.6780   61.4970 C.2   105  LEU105      0.2260
     62  O          8.2530   19.9120   62.3790 O.2   105  LEU105     -0.2867
     63  CB         9.9420   21.9570   60.9110 C.3   105  LEU105      0.0270
     64  CG        11.2180   21.8790   61.7550 C.3   105  LEU105      0.0019
     65  CD1       12.3210   21.1600   60.9720 C.3   105  LEU105      0.0001
     66  CD2       11.6480   23.3000   62.1710 C.3   105  LEU105      0.0001
     67  N         17.4870   18.6470   64.5910 N.3   110  TRP110     -0.1241
     68  CA        17.5620   18.6160   63.1440 C.3   110  TRP110      0.1605
     69  C         18.6480   17.6240   62.7330 C.2   110  TRP110      0.2264
     70  O         19.7130   17.5810   63.3410 O.2   110  TRP110     -0.2867
     71  CB        17.9000   20.0160   62.6470 C.3   110  TRP110      0.0550
     72  CG        18.1740   20.1030   61.1940 C.ar  110  TRP110      0.0003
     73  CD1       19.3960   20.1610   60.5900 C.ar  110  TRP110      0.0946
     74  CD2       17.2040   20.1460   60.1480 C.ar  110  TRP110      0.0152
     75  NE1       19.2470   20.2390   59.2270 N.ar  110  TRP110     -0.2442
     76  CE2       17.9100   20.2320   58.9280 C.ar  110  TRP110      0.0810
     77  CE3       15.8040   20.1200   60.1220 C.ar  110  TRP110      0.0012
     78  CZ2       17.2630   20.2930   57.6910 C.ar  110  TRP110      0.0191
     79  CZ3       15.1600   20.1810   58.8920 C.ar  110  TRP110      0.0001
     80  CH2       15.8920   20.2660   57.6930 C.ar  110  TRP110      0.0015
     81  N         11.7460   17.1580   57.4460 N.3   115  ALA115     -0.1245
     82  CA        11.1750   18.4460   57.0690 C.3   115  ALA115      0.1562
     83  C         10.6720   18.3280   55.6360 C.2   115  ALA115      0.2260
     84  O         11.3180   17.6990   54.7950 O.2   115  ALA115     -0.2867
     85  CB        12.2290   19.5490   57.1700 C.3   115  ALA115      0.0290
     86  N          9.3350   20.5880   52.3510 N.3   117  ASP117     -0.1239
     87  CA         9.1610   21.8800   51.7010 C.3   117  ASP117      0.1674
     88  C          8.0590   21.6820   50.6620 C.2   117  ASP117      0.2266
     89  O          8.2720   21.0420   49.6260 O.2   117  ASP117     -0.2867
     90  CB        10.4570   22.3260   51.0280 C.3   117  ASP117      0.1410
     91  CG        11.4840   22.8580   52.0230 C.2   117  ASP117      0.3668
     92  OD1       11.3190   23.9960   52.5160 O.co2 117  ASP117     -0.2456
     93  OD2       12.4550   22.1350   52.3160 O.co2 117  ASP117     -0.2456
     94  N          8.4380   26.2630   47.9250 N.3   120  GLU120     -0.1245
     95  CA         9.7140   26.9110   48.2090 C.3   120  GLU120      0.1567
     96  C         10.4560   27.2860   46.9330 C.2   120  GLU120      0.2260
     97  O         10.3430   26.6090   45.9140 O.2   120  GLU120     -0.2867
     98  CB        10.6060   25.9990   49.0680 C.3   120  GLU120      0.0388
     99  CG        11.9970   26.5790   49.3250 C.3   120  GLU120      0.1160
    100  CD        12.9120   25.6500   50.1150 C.2   120  GLU120      0.3649
    101  OE1       12.9540   24.4380   49.8080 O.co2 120  GLU120     -0.2457
    102  OE2       13.6060   26.1420   51.0310 O.co2 120  GLU120     -0.2457
    103  N         13.9330   16.6850   53.5970 N.3   133  HIS133     -0.1241
    104  CA        15.2190   16.7770   54.2850 C.3   133  HIS133      0.1621
    105  C         15.1590   15.7770   55.4310 C.2   133  HIS133      0.2264
    106  O         14.2820   15.8620   56.2870 O.2   133  HIS133     -0.2867
    107  CB        15.4210   18.1920   54.8330 C.3   133  HIS133      0.0745
    108  CG        15.4640   19.2460   53.7720 C.ar  133  HIS133      0.0817
    109  ND1       16.6430   19.7770   53.2960 N.ar  133  HIS133     -0.2268
    110  CD2       14.4730   19.8350   53.0620 C.ar  133  HIS133      0.1154
    111  CE1       16.3770   20.6450   52.3370 C.ar  133  HIS133      0.1986
    112  NE2       15.0670   20.6990   52.1750 N.ar  133  HIS133     -0.2212
    113  N         23.0050   15.8930   54.6430 N.3   157  TYR157     -0.1241
    114  CA        24.4520   15.9650   54.5110 C.3   157  TYR157      0.1605
    115  C         24.9780   15.0400   53.4140 C.2   157  TYR157      0.2264
    116  O         26.1400   14.6310   53.4390 O.2   157  TYR157     -0.2867
    117  CB        25.1170   15.6520   55.8560 C.3   157  TYR157      0.0534
    118  CG        24.6570   16.5650   56.9760 C.ar  157  TYR157     -0.0201
    119  CD1       24.8270   17.9490   56.8920 C.ar  157  TYR157     -0.0009
    120  CD2       24.0280   16.0480   58.1090 C.ar  157  TYR157     -0.0009
    121  CE1       24.3780   18.7950   57.9090 C.ar  157  TYR157      0.0417
    122  CE2       23.5760   16.8810   59.1290 C.ar  157  TYR157      0.0417
    123  CZ        23.7510   18.2520   59.0220 C.ar  157  TYR157      0.1957
    124  OH        23.2760   19.0740   60.0190 O.3   157  TYR157     -0.2866
    125  N         22.6010   20.3340   52.2330 N.3   164  ASN164     -0.1240
    126  CA        21.1690   20.3950   52.5060 C.3   164  ASN164      0.1653
    127  C         20.2740   20.5900   51.2820 C.2   164  ASN164      0.2266
    128  O         19.2160   21.2140   51.3720 O.2   164  ASN164     -0.2867
    129  CB        20.8790   21.4900   53.5400 C.3   164  ASN164      0.1155
    130  CG        19.4820   21.3830   54.1240 C.2   164  ASN164      0.2627
    131  OD1       18.9960   20.2810   54.3960 O.2   164  ASN164     -0.2716
    132  ND2       18.8340   22.5250   54.3300 N.am  164  ASN164     -0.0877
    133  N          7.1930   31.3690   56.0040 N.3   248  ASP248     -0.1239
    134  CA         8.2560   32.3510   56.1610 C.3   248  ASP248      0.1674
    135  C          8.7180   32.9180   54.8400 C.2   248  ASP248      0.2266
    136  O          8.4590   32.3580   53.7760 O.2   248  ASP248     -0.2867
    137  CB         9.4800   31.7650   56.8820 C.3   248  ASP248      0.1410
    138  CG        10.4090   30.9930   55.9450 C.2   248  ASP248      0.3668
    139  OD1       10.8780   31.5590   54.9260 O.co2 248  ASP248     -0.2456
    140  OD2       10.6800   29.8140   56.2360 O.co2 248  ASP248     -0.2456
    141  N         12.4140   34.6740   53.8770 N.3   250  THR250     -0.1218
    142  CA        13.6910   35.2110   54.3070 C.3   250  THR250      0.1862
    143  C         14.2990   35.8690   53.0700 C.2   250  THR250      0.2287
    144  O         13.6950   35.8340   51.9940 O.2   250  THR250     -0.2866
    145  CB        14.6240   34.1110   54.8740 C.3   250  THR250      0.1770
    146  OG1       15.8140   34.7230   55.3860 O.3   250  THR250     -0.2211
    147  CG2       14.9980   33.0990   53.8030 C.3   250  THR250      0.0375
    148  N         21.9180   31.4320   52.9070 N.3   254  ASP254     -0.1239
    149  CA        22.5660   30.2470   52.3480 C.3   254  ASP254      0.1674
    150  C         22.2290   29.9050   50.9020 C.2   254  ASP254      0.2266
    151  O         23.1270   29.6360   50.1070 O.2   254  ASP254     -0.2867
    152  CB        22.2900   29.0340   53.2320 C.3   254  ASP254      0.1410
    153  CG        22.7650   29.2380   54.6560 C.2   254  ASP254      0.3668
    154  OD1       23.8120   29.8900   54.8440 O.co2 254  ASP254     -0.2456
    155  OD2       22.0950   28.7450   55.5840 O.co2 254  ASP254     -0.2456
@<TRIPOS>BOND
     1    97    96    2
     2    96    95    1
     3    94    95    1
     4    95    98    1
     5    98    99    1
     6    99   100    1
     7    26    27    1
     8    89    88    2
     9    27    30    1
    10    27    28    1
    11   101   100   ar
    12   151   150    2
    13   100   102   ar
    14    30    31    1
    15    32    31   ar
    16    32    34   ar
    17    28    29    2
    18    31    33   ar
    19    88    87    1
    20    34    35   ar
    21   150   149    1
    22    90    87    1
    23    90    91    1
    24    33    35   ar
    25    33    36   ar
    26   127   128    2
    27   127   126    1
    28    35    37   ar
    29    87    86    1
    30    40    41    1
    31    36    38   ar
    32    37    39   ar
    33    41    44    1
    34    41    42    1
    35   144   143    2
    36    91    93   ar
    37    91    92   ar
    38   112   111   ar
    39   112   110   ar
    40   125   126    1
    41   111   109   ar
    42   149   148    1
    43   149   152    1
    44    38    39   ar
    45   126   129    1
    46    42    43    2
    47   110   108   ar
    48   143   142    1
    49   152   153    1
    50   109   108   ar
    51   115   116    2
    52   115   114    1
    53   129   130    1
    54   103   104    1
    55   108   107    1
    56   136   135    2
    57   147   145    1
    58   141   142    1
    59   130   132   am
    60   130   131    2
    61   104   107    1
    62   104   105    1
    63   142   145    1
    64   114   113    1
    65   114   117    1
    66    45    46    1
    67   153   154   ar
    68   153   155   ar
    69    49    46    1
    70    49    50    1
    71    84    83    2
    72   135   134    1
    73    46    47    1
    74   145   146    1
    75   139   138   ar
    76   105   106    2
    77    51    50   ar
    78    51    53   ar
    79    50    52   ar
    80    11    10    2
    81    83    82    1
    82   117   118    1
    83    14    12    1
    84    12    13    1
    85    12     9    1
    86   138   140   ar
    87   138   137    1
    88   133   134    1
    89   134   137    1
    90    47    48    2
    91    53    54   ar
    92    52    55   ar
    93    52    54   ar
    94    10     9    1
    95   119   118   ar
    96   119   121   ar
    97   118   120   ar
    98    55    57   ar
    99    54    56   ar
   100     9     8    1
   101    82    85    1
   102    82    81    1
   103    78    80   ar
   104    78    76   ar
   105    80    79   ar
   106   121   123   ar
   107    57    58   ar
   108    56    58   ar
   109   120   122   ar
   110     8     3   am
   111    79    77   ar
   112    76    75   ar
   113    76    74   ar
   114   123   122   ar
   115   123   124    1
   116    75    73   ar
   117     4     3    2
   118     3     2    1
   119    59    60    1
   120    24    23    1
   121    77    74   ar
   122    74    72   ar
   123    60    63    1
   124    60    61    1
   125    16    15    1
   126    16    19    1
   127    16    17    1
   128    73    72   ar
   129    21    20    1
   130    21    22    1
   131    19    20    1
   132    23    22    2
   133    23    25    1
   134     2     1    1
   135     2     5    1
   136     1     7    1
   137    63    64    1
   138    65    64    1
   139     5     6    1
   140    72    71    1
   141     7     6    1
   142    17    18    2
   143    61    62    2
   144    64    66    1
   145    71    68    1
   146    69    68    1
   147    69    70    2
   148    68    67    1
