@<TRIPOS>MOLECULE
tmp/3wdxB00.pdb
 103 101 0 0 0
SMALL
GASTEIGER

@<TRIPOS>ATOM
      1  N         13.2510   34.4550   49.4720 N.3    99  TRP99      -0.1241
      2  CA        13.2960   33.0080   49.6450 C.3    99  TRP99       0.1605
      3  C         12.1030   32.6190   50.5130 C.2    99  TRP99       0.2264
      4  O         12.2230   32.4080   51.7240 O.2    99  TRP99      -0.2867
      5  CB        14.6260   32.6350   50.3060 C.3    99  TRP99       0.0550
      6  CG        14.8460   31.1830   50.6100 C.ar   99  TRP99       0.0003
      7  CD1       14.0010   30.1420   50.3630 C.ar   99  TRP99       0.0946
      8  CD2       15.9960   30.6240   51.2600 C.ar   99  TRP99       0.0152
      9  NE1       14.5540   28.9650   50.8230 N.ar   99  TRP99      -0.2442
     10  CE2       15.7780   29.2350   51.3770 C.ar   99  TRP99       0.0810
     11  CE3       17.1890   31.1680   51.7560 C.ar   99  TRP99       0.0012
     12  CZ2       16.7140   28.3760   51.9720 C.ar   99  TRP99       0.0191
     13  CZ3       18.1190   30.3160   52.3490 C.ar   99  TRP99       0.0001
     14  CH2       17.8730   28.9340   52.4500 C.ar   99  TRP99       0.0015
     15  N          8.4380   26.2630   47.9250 N.3   120  GLU120     -0.1245
     16  CA         9.7140   26.9110   48.2090 C.3   120  GLU120      0.1567
     17  C         10.4560   27.2860   46.9330 C.2   120  GLU120      0.2260
     18  O         10.3430   26.6090   45.9140 O.2   120  GLU120     -0.2867
     19  CB        10.6060   25.9990   49.0680 C.3   120  GLU120      0.0388
     20  CG        11.9970   26.5790   49.3250 C.3   120  GLU120      0.1160
     21  CD        12.9120   25.6500   50.1150 C.2   120  GLU120      0.3649
     22  OE1       12.9540   24.4380   49.8080 O.co2 120  GLU120     -0.2457
     23  OE2       13.6060   26.1420   51.0310 O.co2 120  GLU120     -0.2457
     24  N         13.9330   16.6850   53.5970 N.3   133  HIS133     -0.1241
     25  CA        15.2190   16.7770   54.2850 C.3   133  HIS133      0.1621
     26  C         15.1590   15.7770   55.4310 C.2   133  HIS133      0.2264
     27  O         14.2820   15.8620   56.2870 O.2   133  HIS133     -0.2867
     28  CB        15.4210   18.1920   54.8330 C.3   133  HIS133      0.0745
     29  CG        15.4640   19.2460   53.7720 C.ar  133  HIS133      0.0817
     30  ND1       16.6430   19.7770   53.2960 N.ar  133  HIS133     -0.2268
     31  CD2       14.4730   19.8350   53.0620 C.ar  133  HIS133      0.1154
     32  CE1       16.3770   20.6450   52.3370 C.ar  133  HIS133      0.1986
     33  NE2       15.0670   20.6990   52.1750 N.ar  133  HIS133     -0.2212
     34  N         17.0580   15.7950   42.6380 N.3   151  THR151     -0.1218
     35  CA        17.9820   15.1070   43.5340 C.3   151  THR151      0.1862
     36  C         17.2250   13.9560   44.1860 C.2   151  THR151      0.2287
     37  O         16.0820   14.1170   44.6130 O.2   151  THR151     -0.2866
     38  CB        18.5250   16.0580   44.6240 C.3   151  THR151      0.1770
     39  OG1       17.4350   16.7480   45.2440 O.3   151  THR151     -0.2211
     40  CG2       19.4820   17.0760   44.0150 C.3   151  THR151      0.0375
     41  N         24.7800   19.6040   46.9000 N.3   162  ASP162     -0.1225
     42  CA        25.0260   20.8420   47.6310 C.3   162  ASP162      0.1805
     43  C         24.5820   20.5510   49.0560 C.2   162  ASP162      0.2598
     44  O         23.7430   19.6770   49.2790 O.2   162  ASP162     -0.2718
     45  CB        24.1790   21.9980   47.0810 C.3   162  ASP162      0.1424
     46  CG        24.7260   22.5710   45.7850 C.2   162  ASP162      0.3668
     47  OD1       25.9400   22.8620   45.7200 O.co2 162  ASP162     -0.2456
     48  OD2       23.9310   22.7480   44.8370 O.co2 162  ASP162     -0.2456
     49  N         25.1370   21.2720   50.0220 N.am  163  ALA163     -0.1966
     50  CA        24.7560   21.0600   51.4100 C.3   163  ALA163      0.1728
     51  C         23.2590   21.2900   51.5830 C.2   163  ALA163      0.2616
     52  O         22.7160   22.3030   51.1320 O.2   163  ALA163     -0.2715
     53  CB        25.5370   22.0030   52.3200 C.3   163  ALA163      0.0334
     54  N         22.6010   20.3340   52.2330 N.am  164  ASN164     -0.1958
     55  CA        21.1690   20.3950   52.5060 C.3   164  ASN164      0.1819
     56  C         20.2740   20.5900   51.2820 C.2   164  ASN164      0.2621
     57  O         19.2160   21.2140   51.3720 O.2   164  ASN164     -0.2715
     58  CB        20.8790   21.4900   53.5400 C.3   164  ASN164      0.1195
     59  CG        19.4820   21.3830   54.1240 C.2   164  ASN164      0.2630
     60  OD1       18.9960   20.2810   54.3960 O.2   164  ASN164     -0.2716
     61  ND2       18.8340   22.5250   54.3300 N.am  164  ASN164     -0.0877
     62  N         20.6950   20.0530   50.1410 N.am  165  ALA165     -0.1977
     63  CA        19.8940   20.1510   48.9280 C.3   165  ALA165      0.1597
     64  C         18.6800   19.2350   49.1000 C.2   165  ALA165      0.2287
     65  O         17.6020   19.5010   48.5660 O.2   165  ALA165     -0.2864
     66  CB        20.7190   19.7190   47.7090 C.3   165  ALA165      0.0319
     67  N         21.9180   31.4320   52.9070 N.3   254  ASP254     -0.1225
     68  CA        22.5660   30.2470   52.3480 C.3   254  ASP254      0.1805
     69  C         22.2290   29.9050   50.9020 C.2   254  ASP254      0.2597
     70  O         23.1270   29.6360   50.1070 O.2   254  ASP254     -0.2718
     71  CB        22.2900   29.0340   53.2320 C.3   254  ASP254      0.1424
     72  CG        22.7650   29.2380   54.6560 C.2   254  ASP254      0.3668
     73  OD1       23.8120   29.8900   54.8440 O.co2 254  ASP254     -0.2456
     74  OD2       22.0950   28.7450   55.5840 O.co2 254  ASP254     -0.2456
     75  N         20.9480   29.9050   50.5520 N.am  255  TRP255     -0.1976
     76  CA        20.5710   29.5760   49.1840 C.3   255  TRP255      0.1640
     77  C         20.4750   30.8090   48.2850 C.2   255  TRP255      0.2290
     78  O         21.3350   31.0240   47.4290 O.2   255  TRP255     -0.2864
     79  CB        19.2420   28.8000   49.1710 C.3   255  TRP255      0.0576
     80  CG        18.7970   28.3290   47.7970 C.ar  255  TRP255      0.0006
     81  CD1       19.4640   28.4870   46.6130 C.ar  255  TRP255      0.0946
     82  CD2       17.5680   27.6580   47.4760 C.ar  255  TRP255      0.0152
     83  NE1       18.7240   27.9620   45.5770 N.ar  255  TRP255     -0.2442
     84  CE2       17.5570   27.4480   46.0780 C.ar  255  TRP255      0.0810
     85  CE3       16.4750   27.2180   48.2360 C.ar  255  TRP255      0.0012
     86  CZ2       16.4910   26.8150   45.4200 C.ar  255  TRP255      0.0191
     87  CZ3       15.4120   26.5880   47.5820 C.ar  255  TRP255      0.0001
     88  CH2       15.4320   26.3950   46.1860 C.ar  255  TRP255      0.0015
     89  N         23.6620   33.0630   47.9830 N.3   258  ASN258     -0.1225
     90  CA        24.7940   32.4500   47.3050 C.3   258  ASN258      0.1785
     91  C         24.5870   32.2390   45.8040 C.2   258  ASN258      0.2597
     92  O         25.5600   32.1850   45.0510 O.2   258  ASN258     -0.2718
     93  CB        25.1520   31.1220   47.9890 C.3   258  ASN258      0.1169
     94  CG        25.9770   31.3250   49.2530 C.2   258  ASN258      0.2627
     95  OD1       25.7710   30.6490   50.2630 O.2   258  ASN258     -0.2716
     96  ND2       26.9220   32.2530   49.1950 N.am  258  ASN258     -0.0877
     97  N         23.3370   32.1220   45.3600 N.am  259  VAL259     -0.1980
     98  CA        23.0810   31.9380   43.9310 C.3   259  VAL259      0.1595
     99  C         22.6650   33.2470   43.2660 C.2   259  VAL259      0.2287
    100  O         22.4410   33.3010   42.0580 O.2   259  VAL259     -0.2864
    101  CB        21.9950   30.8610   43.6660 C.3   259  VAL259      0.0276
    102  CG1       22.4440   29.5270   44.2520 C.3   259  VAL259      0.0022
    103  CG2       20.6640   31.2870   44.2600 C.3   259  VAL259      0.0022
@<TRIPOS>BOND
     1   100    99    2
     2    34    35    1
     3    99    98    1
     4    35    36    1
     5    35    38    1
     6   101    98    1
     7   101   102    1
     8   101   103    1
     9    98    97    1
    10    40    38    1
    11    36    37    2
    12    38    39    1
    13    48    46   ar
    14    92    91    2
    15    97    91   am
    16    86    84   ar
    17    86    88   ar
    18    83    84   ar
    19    83    81   ar
    20    47    46   ar
    21    46    45    1
    22    91    90    1
    23    18    17    2
    24    84    82   ar
    25    88    87   ar
    26    81    80   ar
    27    41    42    1
    28    17    16    1
    29    45    42    1
    30    90    89    1
    31    90    93    1
    32    78    77    2
    33    82    80   ar
    34    82    85   ar
    35    87    85   ar
    36    42    43    1
    37    66    63    1
    38    80    79    1
    39    15    16    1
    40    93    94    1
    41    16    19    1
    42    77    76    1
    43    65    64    2
    44    63    64    1
    45    63    62    1
    46    43    44    2
    47    43    49   am
    48    19    20    1
    49    79    76    1
    50    76    75    1
    51    96    94   am
    52    94    95    2
    53    20    21    1
    54     1     2    1
    55     2     5    1
    56     2     3    1
    57    22    21   ar
    58    49    50    1
    59    70    69    2
    60    21    23   ar
    61    62    56   am
    62     5     6    1
    63     7     6   ar
    64     7     9   ar
    65     3     4    2
    66    75    69   am
    67     6     8   ar
    68     9    10   ar
    69    69    68    1
    70    52    51    2
    71     8    10   ar
    72     8    11   ar
    73    56    57    2
    74    56    55    1
    75    10    12   ar
    76    50    51    1
    77    50    53    1
    78    51    54   am
    79    11    13   ar
    80    12    14   ar
    81    33    32   ar
    82    33    31   ar
    83    54    55    1
    84    32    30   ar
    85    68    67    1
    86    68    71    1
    87    13    14   ar
    88    55    58    1
    89    31    29   ar
    90    71    72    1
    91    30    29   ar
    92    58    59    1
    93    24    25    1
    94    29    28    1
    95    59    61   am
    96    59    60    2
    97    25    28    1
    98    25    26    1
    99    72    73   ar
   100    72    74   ar
   101    26    27    2
