@<TRIPOS>MOLECULE
tmp/3wdyC01.pdb
 140 138 0 0 0
SMALL
GASTEIGER

@<TRIPOS>ATOM
      1  N         47.4180   31.1320   14.8430 N.3    20  PHE20      -0.1241
      2  CA        48.0750   30.9020   16.1180 C.3    20  PHE20       0.1605
      3  C         48.5930   32.2290   16.6690 C.2    20  PHE20       0.2264
      4  O         49.3040   32.9390   15.9690 O.2    20  PHE20      -0.2867
      5  CB        49.2470   29.9290   15.9060 C.3    20  PHE20       0.0534
      6  CG        50.0660   29.6710   17.1430 C.ar   20  PHE20      -0.0203
      7  CD1       51.0050   30.5960   17.5800 C.ar   20  PHE20      -0.0042
      8  CD2       49.8890   28.4950   17.8780 C.ar   20  PHE20      -0.0042
      9  CE1       51.7640   30.3620   18.7300 C.ar   20  PHE20      -0.0003
     10  CE2       50.6370   28.2490   19.0290 C.ar   20  PHE20      -0.0003
     11  CZ        51.5780   29.1850   19.4570 C.ar   20  PHE20      -0.0000
     12  N         56.3810   28.6880   20.0620 N.3    25  PRO25      -0.2102
     13  CA        56.8680   27.4590   20.6960 C.3    25  PRO25       0.1504
     14  C         58.3770   27.3170   20.5240 C.2    25  PRO25       0.2576
     15  O         59.0350   26.6090   21.2940 O.2    25  PRO25      -0.2718
     16  CB        56.1140   26.3590   19.9510 C.3    25  PRO25       0.0282
     17  CG        54.8170   27.0400   19.5840 C.3    25  PRO25       0.0208
     18  CD        55.2800   28.3980   19.1260 C.3    25  PRO25       0.0893
     19  N         58.9240   27.9760   19.5010 N.am   26  THR26      -0.1939
     20  CA        60.3560   27.8920   19.2460 C.3    26  THR26       0.2028
     21  C         61.1240   29.0690   19.8250 C.2    26  THR26       0.2642
     22  O         62.2960   29.2840   19.5090 O.2    26  THR26      -0.2714
     23  CB        60.6630   27.7270   17.7180 C.3    26  THR26       0.1808
     24  OG1       59.9210   28.6800   16.9390 O.3    26  THR26      -0.2208
     25  CG2       60.2880   26.3370   17.2760 C.3    26  THR26       0.0379
     26  N         60.4440   29.8240   20.6800 N.am   27  HIS27      -0.1973
     27  CA        61.0310   30.9620   21.3730 C.3    27  HIS27       0.1656
     28  C         61.6170   32.0720   20.5030 C.2    27  HIS27       0.2291
     29  O         62.4900   32.8290   20.9450 O.2    27  HIS27      -0.2864
     30  CB        62.0810   30.4390   22.3650 C.3    27  HIS27       0.0771
     31  CG        61.6030   29.2600   23.1610 C.ar   27  HIS27       0.0820
     32  ND1       61.7860   27.9570   22.7460 N.ar   27  HIS27      -0.2267
     33  CD2       60.8600   29.1910   24.2920 C.ar   27  HIS27       0.1154
     34  CE1       61.1740   27.1360   23.5830 C.ar   27  HIS27       0.1986
     35  NE2       60.6030   27.8600   24.5300 N.ar   27  HIS27      -0.2212
     36  N         51.1300   32.8090   11.8630 N.3    70  ARG70      -0.1245
     37  CA        51.3350   31.3750   11.8600 C.3    70  ARG70       0.1563
     38  C         49.9590   30.7670   11.6750 C.2    70  ARG70       0.2260
     39  O         49.1200   30.8140   12.5730 O.2    70  ARG70      -0.2867
     40  CB        51.9790   30.8920   13.1690 C.3    70  ARG70       0.0307
     41  CG        51.9160   29.3850   13.3270 C.3    70  ARG70       0.0489
     42  CD        52.8510   28.8540   14.4190 C.3    70  ARG70       0.2205
     43  NE        52.5090   27.4760   14.7780 N.pl3  70  ARG70      -0.0865
     44  CZ        53.3600   26.5920   15.3010 C.cat  70  ARG70       0.5346
     45  NH1       54.6300   26.9310   15.5290 N.pl3  70  ARG70       0.1354
     46  NH2       52.9330   25.3660   15.6070 N.pl3  70  ARG70       0.1354
     47  N         47.5070   27.5010   10.9330 N.3    72  GLU72      -0.1245
     48  CA        47.4110   26.0510   11.1040 C.3    72  GLU72       0.1567
     49  C         46.0550   25.6420   10.5370 C.2    72  GLU72       0.2260
     50  O         45.0160   26.1380   10.9860 O.2    72  GLU72      -0.2867
     51  CB        47.5170   25.6950   12.5900 C.3    72  GLU72       0.0388
     52  CG        48.7460   26.3090   13.2510 C.3    72  GLU72       0.1160
     53  CD        49.0200   25.7830   14.6620 C.2    72  GLU72       0.3649
     54  OE1       50.0880   26.1190   15.2160 O.co2  72  GLU72      -0.2457
     55  OE2       48.1730   25.0450   15.2160 O.co2  72  GLU72      -0.2457
     56  N         63.2380   32.5760   10.0900 N.3    97  TRP97      -0.1241
     57  CA        63.0830   31.1430   10.1810 C.3    97  TRP97       0.1605
     58  C         61.6870   30.8090    9.6500 C.2    97  TRP97       0.2264
     59  O         60.7240   30.6970   10.4060 O.2    97  TRP97      -0.2867
     60  CB        63.2390   30.7440   11.6560 C.3    97  TRP97       0.0550
     61  CG        63.0990   29.3020   11.9640 C.ar   97  TRP97       0.0003
     62  CD1       62.8510   28.2850   11.0870 C.ar   97  TRP97       0.0946
     63  CD2       63.1530   28.7060   13.2670 C.ar   97  TRP97       0.0152
     64  NE1       62.7420   27.0920   11.7660 N.ar   97  TRP97      -0.2442
     65  CE2       62.9230   27.3240   13.1050 C.ar   97  TRP97       0.0810
     66  CE3       63.3680   29.2100   14.5550 C.ar   97  TRP97       0.0012
     67  CZ2       62.9000   26.4300   14.1930 C.ar   97  TRP97       0.0191
     68  CZ3       63.3440   28.3180   15.6380 C.ar   97  TRP97       0.0001
     69  CH2       63.1100   26.9450   15.4430 C.ar   97  TRP97       0.0015
     70  N         55.0640   23.3860    6.8570 N.3   101  TRP101     -0.1241
     71  CA        55.1780   22.0380    7.3950 C.3   101  TRP101      0.1605
     72  C         53.8540   21.4930    7.8960 C.2   101  TRP101      0.2264
     73  O         52.8140   22.1430    7.7760 O.2   101  TRP101     -0.2867
     74  CB        56.1490   22.0700    8.5650 C.3   101  TRP101      0.0550
     75  CG        55.7910   23.0730    9.6330 C.ar  101  TRP101      0.0003
     76  CD1       55.7370   24.4390    9.5050 C.ar  101  TRP101      0.0946
     77  CD2       55.5270   22.7940   11.0130 C.ar  101  TRP101      0.0152
     78  NE1       55.4660   25.0220   10.7220 N.ar  101  TRP101     -0.2442
     79  CE2       55.3350   24.0350   11.6630 C.ar  101  TRP101      0.0810
     80  CE3       55.4400   21.6140   11.7650 C.ar  101  TRP101      0.0012
     81  CZ2       55.0640   24.1320   13.0330 C.ar  101  TRP101      0.0191
     82  CZ3       55.1680   21.7120   13.1320 C.ar  101  TRP101      0.0001
     83  CH2       54.9850   22.9630   13.7470 C.ar  101  TRP101      0.0015
     84  N         51.8990   19.2520   11.2370 N.3   103  LEU103     -0.1245
     85  CA        51.9970   18.8470   12.6260 C.3   103  LEU103      0.1561
     86  C         50.8870   17.8490   12.8770 C.2   103  LEU103      0.2260
     87  O         49.7290   18.0710   12.4930 O.2   103  LEU103     -0.2867
     88  CB        51.8420   20.0620   13.5410 C.3   103  LEU103      0.0270
     89  CG        51.9430   19.8550   15.0560 C.3   103  LEU103      0.0019
     90  CD1       53.3080   19.2770   15.4310 C.3   103  LEU103      0.0001
     91  CD2       51.7350   21.2020   15.7410 C.3   103  LEU103      0.0001
     92  N         49.6140   15.5500   21.3730 N.3   107  ASP107     -0.1225
     93  CA        50.6420   16.3920   21.9630 C.3   107  ASP107      0.1805
     94  C         52.0680   16.0470   21.5430 C.2   107  ASP107      0.2597
     95  O         52.4790   14.8840   21.5380 O.2   107  ASP107     -0.2718
     96  CB        50.5250   16.3660   23.4900 C.3   107  ASP107      0.1424
     97  CG        49.3330   17.1600   23.9950 C.2   107  ASP107      0.3668
     98  OD1       49.3420   18.4030   23.8580 O.co2 107  ASP107     -0.2456
     99  OD2       48.3830   16.5470   24.5240 O.co2 107  ASP107     -0.2456
    100  N         52.8130   17.0870   21.1930 N.am  108  TRP108     -0.1976
    101  CA        54.2020   16.9570   20.7740 C.3   108  TRP108      0.1640
    102  C         55.0140   16.2000   21.8320 C.2   108  TRP108      0.2290
    103  O         54.8320   16.4070   23.0390 O.2   108  TRP108     -0.2864
    104  CB        54.7810   18.3510   20.5530 C.3   108  TRP108      0.0576
    105  CG        56.2220   18.3880   20.1860 C.ar  108  TRP108      0.0006
    106  CD1       57.2890   18.3880   21.0430 C.ar  108  TRP108      0.0946
    107  CD2       56.7640   18.5260   18.8700 C.ar  108  TRP108      0.0152
    108  NE1       58.4630   18.5330   20.3410 N.ar  108  TRP108     -0.2442
    109  CE2       58.1710   18.6210   19.0040 C.ar  108  TRP108      0.0810
    110  CE3       56.2000   18.5860   17.5890 C.ar  108  TRP108      0.0012
    111  CZ2       59.0210   18.7770   17.9020 C.ar  108  TRP108      0.0191
    112  CZ3       57.0470   18.7420   16.4910 C.ar  108  TRP108      0.0001
    113  CH2       58.4420   18.8370   16.6580 C.ar  108  TRP108      0.0015
    114  N         66.8010   19.3050   19.4860 N.3   159  ASN159     -0.1240
    115  CA        65.5310   19.0180   18.8020 C.3   159  ASN159      0.1653
    116  C         65.7090   19.1020   17.2740 C.2   159  ASN159      0.2266
    117  O         64.9290   19.7530   16.5760 O.2   159  ASN159     -0.2867
    118  CB        64.4830   20.0390   19.2670 C.3   159  ASN159      0.1155
    119  CG        63.0580   19.6050   18.9770 C.2   159  ASN159      0.2627
    120  OD1       62.6780   19.3850   17.8250 O.2   159  ASN159     -0.2716
    121  ND2       62.2540   19.4880   20.0320 N.am  159  ASN159     -0.0877
    122  N         48.2110   18.4730   10.1990 N.3   239  ARG239     -0.1245
    123  CA        47.6030   19.7220    9.7610 C.3   239  ARG239      0.1563
    124  C         48.7090   20.5810    9.1440 C.2   239  ARG239      0.2260
    125  O         49.8730   20.5230    9.5740 O.2   239  ARG239     -0.2867
    126  CB        46.9240   20.4640   10.9040 C.3   239  ARG239      0.0307
    127  CG        47.8060   20.9270   12.0160 C.3   239  ARG239      0.0489
    128  CD        46.9110   21.6800   12.9760 C.3   239  ARG239      0.2205
    129  NE        47.5940   22.1460   14.1770 N.pl3 239  ARG239     -0.0865
    130  CZ        48.0850   21.3560   15.1290 C.cat 239  ARG239      0.5346
    131  NH1       47.9880   20.0310   15.0340 N.pl3 239  ARG239      0.1354
    132  NH2       48.6530   21.9040   16.1980 N.pl3 239  ARG239      0.1354
    133  N         65.0380   29.2870   18.9540 N.3   249  ASP249     -0.1239
    134  CA        65.7430   28.0010   19.0790 C.3   249  ASP249      0.1674
    135  C         66.7220   27.5940   17.9980 C.2   249  ASP249      0.2266
    136  O         67.7060   26.9060   18.2790 O.2   249  ASP249     -0.2867
    137  CB        64.7440   26.8540   19.2200 C.3   249  ASP249      0.1410
    138  CG        64.0160   26.8820   20.5330 C.2   249  ASP249      0.3668
    139  OD1       64.4010   27.7030   21.3970 O.co2 249  ASP249     -0.2456
    140  OD2       63.0700   26.0790   20.6960 O.co2 249  ASP249     -0.2456
@<TRIPOS>BOND
     1    70    71    1
     2    71    72    1
     3    71    74    1
     4    73    72    2
     5    74    75    1
     6   124   125    2
     7   124   123    1
     8    76    75   ar
     9    76    78   ar
    10    75    77   ar
    11    58    57    1
    12    58    59    2
    13   123   122    1
    14   123   126    1
    15    56    57    1
    16    57    60    1
    17    49    50    2
    18    49    48    1
    19    78    79   ar
    20   126   127    1
    21    47    48    1
    22    77    79   ar
    23    77    80   ar
    24    62    64   ar
    25    62    61   ar
    26    48    51    1
    27    84    85    1
    28    60    61    1
    29    79    81   ar
    30    38    37    1
    31    38    39    2
    32    80    82   ar
    33    64    65   ar
    34    37    36    1
    35    37    40    1
    36    61    63   ar
    37   127   128    1
    38    87    86    2
    39    51    52    1
    40    85    86    1
    41    85    88    1
    42   128   129    1
    43    81    83   ar
    44    65    63   ar
    45    65    67   ar
    46    82    83   ar
    47    40    41    1
    48    52    53    1
    49    63    66   ar
    50    41    42    1
    51    88    89    1
    52   129   130    2
    53    67    69   ar
    54    42    43    1
    55    66    68   ar
    56    53    55   ar
    57    53    54   ar
    58    43    44    2
    59     1     2    1
    60   131   130    1
    61    89    90    1
    62    89    91    1
    63   130   132    1
    64    44    45    1
    65    44    46    1
    66    69    68   ar
    67     5     2    1
    68     5     6    1
    69     4     3    2
    70     2     3    1
    71   112   113   ar
    72   112   110   ar
    73   117   116    2
    74   113   111   ar
    75    24    23    1
    76     6     7   ar
    77     6     8   ar
    78   116   115    1
    79    25    23    1
    80     7     9   ar
    81   110   107   ar
    82    23    20    1
    83   120   119    2
    84     8    10   ar
    85   111   109   ar
    86   135   136    2
    87   135   134    1
    88     9    11   ar
    89   115   118    1
    90   115   114    1
    91   107   109   ar
    92   107   105   ar
    93   133   134    1
    94   119   118    1
    95   119   121   am
    96   109   108   ar
    97    10    11   ar
    98   134   137    1
    99    18    17    1
   100    18    12    1
   101   137   138    1
   102    20    19    1
   103    20    21    1
   104    19    14   am
   105    22    21    2
   106    17    16    1
   107    21    26   am
   108    16    13    1
   109    12    13    1
   110   105   104    1
   111   105   106   ar
   112   108   106   ar
   113    28    29    2
   114    28    27    1
   115    14    13    1
   116    14    15    2
   117   138   140   ar
   118   138   139   ar
   119   104   101    1
   120    26    27    1
   121   101   100    1
   122   101   102    1
   123   100    94   am
   124    27    30    1
   125    92    93    1
   126    95    94    2
   127    94    93    1
   128   102   103    2
   129    93    96    1
   130    30    31    1
   131    32    31   ar
   132    32    34   ar
   133    31    33   ar
   134    96    97    1
   135    34    35   ar
   136    98    97   ar
   137    97    99   ar
   138    33    35   ar
