@<TRIPOS>MOLECULE
tmp/3wdyC00.pdb
 105 103 0 0 0
SMALL
GASTEIGER

@<TRIPOS>ATOM
      1  N         63.2380   32.5760   10.0900 N.3    97  TRP97      -0.1241
      2  CA        63.0830   31.1430   10.1810 C.3    97  TRP97       0.1605
      3  C         61.6870   30.8090    9.6500 C.2    97  TRP97       0.2264
      4  O         60.7240   30.6970   10.4060 O.2    97  TRP97      -0.2867
      5  CB        63.2390   30.7440   11.6560 C.3    97  TRP97       0.0550
      6  CG        63.0990   29.3020   11.9640 C.ar   97  TRP97       0.0003
      7  CD1       62.8510   28.2850   11.0870 C.ar   97  TRP97       0.0946
      8  CD2       63.1530   28.7060   13.2670 C.ar   97  TRP97       0.0152
      9  NE1       62.7420   27.0920   11.7660 N.ar   97  TRP97      -0.2442
     10  CE2       62.9230   27.3240   13.1050 C.ar   97  TRP97       0.0810
     11  CE3       63.3680   29.2100   14.5550 C.ar   97  TRP97       0.0012
     12  CZ2       62.9000   26.4300   14.1930 C.ar   97  TRP97       0.0191
     13  CZ3       63.3440   28.3180   15.6380 C.ar   97  TRP97       0.0001
     14  CH2       63.1100   26.9450   15.4430 C.ar   97  TRP97       0.0015
     15  N         61.8690   24.6650    4.9760 N.3   118  GLU118     -0.1245
     16  CA        62.3470   25.2770    6.2030 C.3   118  GLU118      0.1567
     17  C         63.8000   25.6470    6.0930 C.2   118  GLU118      0.2260
     18  O         64.5590   25.0050    5.3740 O.2   118  GLU118     -0.2867
     19  CB        62.1520   24.3250    7.3860 C.3   118  GLU118      0.0388
     20  CG        62.6040   24.8970    8.7130 C.3   118  GLU118      0.1160
     21  CD        62.2790   23.9710    9.8750 C.2   118  GLU118      0.3649
     22  OE1       62.3090   22.7340    9.6650 O.co2 118  GLU118     -0.2457
     23  OE2       62.0140   24.4800   10.9900 O.co2 118  GLU118     -0.2457
     24  N         65.8820   22.6880    3.9280 N.3   127  HIS127     -0.1241
     25  CA        66.0810   21.6140    4.8960 C.3   127  HIS127      0.1621
     26  C         64.7480   20.9120    5.1100 C.2   127  HIS127      0.2264
     27  O         63.7750   21.5310    5.5440 O.2   127  HIS127     -0.2867
     28  CB        66.5740   22.1630    6.2360 C.3   127  HIS127      0.0745
     29  CG        68.0550   22.3540    6.3040 C.ar  127  HIS127      0.0817
     30  ND1       68.7210   23.2990    5.5520 N.ar  127  HIS127     -0.2268
     31  CD2       69.0050   21.7050    7.0200 C.ar  127  HIS127      0.1154
     32  CE1       70.0170   23.2260    5.8020 C.ar  127  HIS127      0.1986
     33  NE2       70.2160   22.2660    6.6890 N.ar  127  HIS127     -0.2212
     34  N         62.9150   18.2000    7.2380 N.3   129  VAL129     -0.1245
     35  CA        63.1250   17.5180    8.5070 C.3   129  VAL129      0.1561
     36  C         61.8890   16.8950    9.1390 C.2   129  VAL129      0.2260
     37  O         60.7810   17.4270    9.0220 O.2   129  VAL129     -0.2867
     38  CB        63.6690   18.5110    9.5480 C.3   129  VAL129      0.0252
     39  CG1       64.2420   17.7620   10.7370 C.3   129  VAL129      0.0019
     40  CG2       64.6840   19.4430    8.9060 C.3   129  VAL129      0.0019
     41  N         60.2180   15.2650   12.8320 N.3   131  HIS131     -0.1241
     42  CA        60.3660   15.3060   14.2730 C.3   131  HIS131      0.1621
     43  C         59.3630   14.3070   14.8110 C.2   131  HIS131      0.2264
     44  O         58.1700   14.4210   14.5570 O.2   131  HIS131     -0.2867
     45  CB        60.0560   16.7030   14.7990 C.3   131  HIS131      0.0745
     46  CG        60.8610   17.7840   14.1510 C.ar  131  HIS131      0.0817
     47  ND1       62.1240   18.1330   14.5790 N.ar  131  HIS131     -0.2268
     48  CD2       60.5840   18.5890   13.0950 C.ar  131  HIS131      0.1154
     49  CE1       62.5900   19.1080   13.8180 C.ar  131  HIS131      0.1986
     50  NE2       61.6750   19.4030   12.9110 N.ar  131  HIS131     -0.2212
     51  N         69.9840   19.7330   19.4410 N.3   158  ALA158     -0.1231
     52  CA        69.0730   18.9620   20.2790 C.3   158  ALA158      0.1694
     53  C         67.8480   18.4770   19.5050 C.2   158  ALA158      0.2592
     54  O         67.8590   17.3780   18.9450 O.2   158  ALA158     -0.2718
     55  CB        68.6350   19.7970   21.4770 C.3   158  ALA158      0.0304
     56  N         66.8010   19.3050   19.4860 N.am  159  ASN159     -0.1960
     57  CA        65.5310   19.0180   18.8020 C.3   159  ASN159      0.1819
     58  C         65.7090   19.1020   17.2740 C.2   159  ASN159      0.2621
     59  O         64.9290   19.7530   16.5760 O.2   159  ASN159     -0.2715
     60  CB        64.4830   20.0390   19.2670 C.3   159  ASN159      0.1195
     61  CG        63.0580   19.6050   18.9770 C.2   159  ASN159      0.2630
     62  OD1       62.6780   19.3850   17.8250 O.2   159  ASN159     -0.2716
     63  ND2       62.2540   19.4880   20.0320 N.am  159  ASN159     -0.0877
     64  N         66.7270   18.4140   16.7680 N.am  160  ALA160     -0.1977
     65  CA        67.0660   18.4220   15.3480 C.3   160  ALA160      0.1597
     66  C         66.2140   17.5600   14.4350 C.2   160  ALA160      0.2287
     67  O         65.9830   17.9190   13.2870 O.2   160  ALA160     -0.2864
     68  CB        68.5320   18.0320   15.1760 C.3   160  ALA160      0.0319
     69  N         65.0380   29.2870   18.9540 N.3   249  ASP249     -0.1225
     70  CA        65.7430   28.0010   19.0790 C.3   249  ASP249      0.1805
     71  C         66.7220   27.5940   17.9980 C.2   249  ASP249      0.2597
     72  O         67.7060   26.9060   18.2790 O.2   249  ASP249     -0.2718
     73  CB        64.7440   26.8540   19.2200 C.3   249  ASP249      0.1424
     74  CG        64.0160   26.8820   20.5330 C.2   249  ASP249      0.3668
     75  OD1       64.4010   27.7030   21.3970 O.co2 249  ASP249     -0.2456
     76  OD2       63.0700   26.0790   20.6960 O.co2 249  ASP249     -0.2456
     77  N         66.4360   27.9640   16.7570 N.am  250  TRP250     -0.1976
     78  CA        67.3250   27.6000   15.6700 C.3   250  TRP250      0.1640
     79  C         68.0500   28.8350   15.1530 C.2   250  TRP250      0.2290
     80  O         69.2020   29.0630   15.5040 O.2   250  TRP250     -0.2864
     81  CB        66.5350   26.9170   14.5490 C.3   250  TRP250      0.0576
     82  CG        67.3850   26.3500   13.4530 C.ar  250  TRP250      0.0006
     83  CD1       68.7400   26.4820   13.3050 C.ar  250  TRP250      0.0946
     84  CD2       66.9320   25.5960   12.3280 C.ar  250  TRP250      0.0152
     85  NE1       69.1570   25.8590   12.1530 N.ar  250  TRP250     -0.2442
     86  CE2       68.0680   25.3060   11.5330 C.ar  250  TRP250      0.0810
     87  CE3       65.6780   25.1340   11.9100 C.ar  250  TRP250      0.0012
     88  CZ2       67.9840   24.5750   10.3440 C.ar  250  TRP250      0.0191
     89  CZ3       65.5950   24.4030   10.7230 C.ar  250  TRP250      0.0001
     90  CH2       66.7410   24.1330    9.9580 C.ar  250  TRP250      0.0015
     91  N         70.1220   30.8580   17.6770 N.3   253  ASN253     -0.1225
     92  CA        71.3200   30.2100   18.1920 C.3   253  ASN253      0.1785
     93  C         72.4260   30.0570   17.1610 C.2   253  ASN253      0.2597
     94  O         73.6040   30.1640   17.5010 O.2   253  ASN253     -0.2718
     95  CB        70.9720   28.8520   18.8000 C.3   253  ASN253      0.1169
     96  CG        70.1960   28.9890   20.0990 C.2   253  ASN253      0.2627
     97  OD1       70.4980   29.8560   20.9260 O.2   253  ASN253     -0.2716
     98  ND2       69.1960   28.1320   20.2910 N.am  253  ASN253     -0.0877
     99  N         72.0520   29.8170   15.9070 N.am  254  VAL254     -0.1980
    100  CA        73.0300   29.6650   14.8360 C.3   254  VAL254      0.1595
    101  C         73.2140   30.9670   14.0420 C.2   254  VAL254      0.2287
    102  O         73.4680   30.9330   12.8410 O.2   254  VAL254     -0.2864
    103  CB        72.6260   28.5300   13.8570 C.3   254  VAL254      0.0276
    104  CG1       72.3550   27.2420   14.6350 C.3   254  VAL254      0.0022
    105  CG2       71.4040   28.9430   13.0470 C.3   254  VAL254      0.0022
@<TRIPOS>BOND
     1    24    25    1
     2    25    26    1
     3    25    28    1
     4    15    16    1
     5    26    27    2
     6    18    17    2
     7    30    32   ar
     8    30    29   ar
     9    32    33   ar
    10    17    16    1
    11    16    19    1
    12    28    29    1
    13    29    31   ar
    14    33    31   ar
    15    34    35    1
    16    19    20    1
    17    35    36    1
    18    35    38    1
    19    20    21    1
    20    40    38    1
    21    37    36    2
    22    38    39    1
    23     3     2    1
    24     3     4    2
    25    22    21   ar
    26    21    23   ar
    27    90    88   ar
    28    90    89   ar
    29     1     2    1
    30     2     5    1
    31    88    86   ar
    32    89    87   ar
    33     7     9   ar
    34     7     6   ar
    35    86    85   ar
    36    86    84   ar
    37     5     6    1
    38     9    10   ar
    39    87    84   ar
    40     6     8   ar
    41    85    83   ar
    42    84    82   ar
    43    41    42    1
    44   102   101    2
    45    50    48   ar
    46    50    49   ar
    47   105   103    1
    48    48    46   ar
    49    10     8   ar
    50    10    12   ar
    51     8    11   ar
    52    67    66    2
    53    83    82   ar
    54    82    81    1
    55    49    47   ar
    56   103   104    1
    57   103   100    1
    58   101   100    1
    59    46    47   ar
    60    46    45    1
    61    12    14   ar
    62    42    45    1
    63    42    43    1
    64    66    65    1
    65    81    78    1
    66    11    13   ar
    67    44    43    2
    68   100    99    1
    69    79    80    2
    70    79    78    1
    71    68    65    1
    72    65    64    1
    73    14    13   ar
    74    78    77    1
    75    99    93   am
    76    59    58    2
    77    77    71   am
    78    64    58   am
    79    93    94    2
    80    93    92    1
    81    58    57    1
    82    91    92    1
    83    62    61    2
    84    71    72    2
    85    71    70    1
    86    92    95    1
    87    95    96    1
    88    57    60    1
    89    57    56    1
    90    54    53    2
    91    69    70    1
    92    61    60    1
    93    61    63   am
    94    70    73    1
    95    73    74    1
    96    51    52    1
    97    56    53   am
    98    53    52    1
    99    96    98   am
   100    96    97    2
   101    52    55    1
   102    74    76   ar
   103    74    75   ar
