@<TRIPOS>MOLECULE
tmp/3wdzA00.pdb
 183 171 0 0 0
SMALL
GASTEIGER

@<TRIPOS>ATOM
      1  N        -16.0180    4.8490    8.6770 N.3    10  TYR10      -0.1241
      2  CA       -15.2550    3.6420    8.8260 C.3    10  TYR10       0.1605
      3  C        -15.4810    3.0790   10.2100 C.2    10  TYR10       0.2264
      4  O        -15.4510    3.8150   11.1970 O.2    10  TYR10      -0.2867
      5  CB       -13.7660    3.9630    8.6160 C.3    10  TYR10       0.0534
      6  CG       -12.7970    2.7960    8.7390 C.ar   10  TYR10      -0.0201
      7  CD1      -12.4540    2.0380    7.6240 C.ar   10  TYR10      -0.0009
      8  CD2      -12.2050    2.4580    9.9700 C.ar   10  TYR10      -0.0009
      9  CE1      -11.5760    0.9620    7.7240 C.ar   10  TYR10       0.0417
     10  CE2      -11.3150    1.3830   10.0780 C.ar   10  TYR10       0.0417
     11  CZ       -10.9990    0.6430    8.9480 C.ar   10  TYR10       0.1957
     12  OH       -10.1160   -0.4200    9.0030 O.3    10  TYR10      -0.2866
     13  N        -15.3080   -1.2550   10.9940 N.3    12  ARG12      -0.1245
     14  CA       -14.3670   -2.3790   10.9490 C.3    12  ARG12       0.1563
     15  C        -13.7860   -2.3150    9.5340 C.2    12  ARG12       0.2260
     16  O        -12.6810   -2.7660    9.2700 O.2    12  ARG12      -0.2867
     17  CB       -15.0090   -3.7390   11.3600 C.3    12  ARG12       0.0307
     18  CG       -15.6150   -3.7070   12.7630 C.3    12  ARG12       0.0489
     19  CD       -15.9320   -5.0540   13.4270 C.3    12  ARG12       0.2205
     20  NE       -17.1950   -4.9590   14.1930 N.pl3  12  ARG12      -0.0865
     21  CZ       -17.2950   -4.6690   15.4900 C.cat  12  ARG12       0.5346
     22  NH1      -16.2030   -4.4870   16.1940 N.pl3  12  ARG12       0.1354
     23  NH2      -18.4750   -4.5710   16.0950 N.pl3  12  ARG12       0.1354
     24  N        -14.8510    5.9040    3.2720 N.3    39  SER39      -0.1202
     25  CA       -14.5190    6.7400    4.4420 C.3    39  SER39       0.2020
     26  C        -13.4980    7.7580    3.9680 C.2    39  SER39       0.2619
     27  O        -12.9070    7.5880    2.8840 O.2    39  SER39      -0.2717
     28  CB       -13.9350    5.9400    5.6060 C.3    39  SER39       0.2103
     29  OG       -12.8470    5.1510    5.1520 O.3    39  SER39      -0.2182
     30  N        -13.2620    8.7810    4.7840 N.am   40  GLY40      -0.1956
     31  CA       -12.3950    9.8970    4.3940 C.3    40  GLY40       0.1869
     32  C        -12.9250   10.6430    3.1660 C.2    40  GLY40       0.2309
     33  O        -12.1570   11.1560    2.3760 O.2    40  GLY40      -0.2863
     34  N        -12.0350    6.6770    0.3130 N.3    56  ARG56      -0.1245
     35  CA       -11.4290    5.3730    0.0200 C.3    56  ARG56       0.1563
     36  C        -12.3550    4.2890    0.5270 C.2    56  ARG56       0.2260
     37  O        -13.0580    4.4900    1.5400 O.2    56  ARG56      -0.2867
     38  CB       -10.0960    5.2500    0.7710 C.3    56  ARG56       0.0307
     39  CG        -9.3500    3.9440    0.5740 C.3    56  ARG56       0.0489
     40  CD        -7.9900    3.9490    1.2350 C.3    56  ARG56       0.2205
     41  NE        -8.0310    4.1990    2.6740 N.pl3  56  ARG56      -0.0865
     42  CZ        -6.9430    4.1610    3.4570 C.cat  56  ARG56       0.5346
     43  NH1       -5.7470    3.8700    2.9470 N.pl3  56  ARG56       0.1354
     44  NH2       -7.0270    4.4060    4.7530 N.pl3  56  ARG56       0.1354
     45  N        -11.7850    1.1670    2.1570 N.3    58  ASN58      -0.1240
     46  CA       -10.9220    0.3070    2.9170 C.3    58  ASN58       0.1653
     47  C        -11.7500   -0.8830    3.4060 C.2    58  ASN58       0.2266
     48  O        -12.3780   -0.8470    4.4630 O.2    58  ASN58      -0.2867
     49  CB       -10.3220    1.0830    4.0860 C.3    58  ASN58       0.1155
     50  CG        -9.1540    0.3520    4.7410 C.2    58  ASN58       0.2627
     51  OD1       -8.9810   -0.8720    4.6020 O.2    58  ASN58      -0.2716
     52  ND2       -8.3490    1.1040    5.4730 N.am   58  ASN58      -0.0877
     53  N        -12.1110   -5.3610    3.8910 N.3    60  PRO60      -0.2116
     54  CA       -11.1910   -6.3420    4.4720 C.3    60  PRO60       0.1372
     55  C        -10.2470   -6.9710    3.4440 C.2    60  PRO60       0.2244
     56  O         -9.1760   -7.4180    3.8140 O.2    60  PRO60      -0.2868
     57  CB       -12.1320   -7.4020    5.0500 C.3    60  PRO60       0.0268
     58  CG       -13.3870   -7.2770    4.2380 C.3    60  PRO60       0.0207
     59  CD       -13.5160   -5.8040    3.9980 C.3    60  PRO60       0.0892
     60  N         -8.5010   -5.5100    0.8380 N.3    62  GLY62      -0.1210
     61  CA        -7.8340   -4.3930    0.1210 C.3    62  GLY62       0.1956
     62  C         -8.6830   -3.1540   -0.1660 C.2    62  GLY62       0.2611
     63  O         -9.9060   -3.2600   -0.3390 O.2    62  GLY62      -0.2717
     64  N         -8.0160   -2.0020   -0.2880 N.am   63  ASN63      -0.1974
     65  CA        -8.6620   -0.6850   -0.4310 C.3    63  ASN63       0.1688
     66  C         -8.4960    0.1490   -1.7250 C.2    63  ASN63       0.2292
     67  O         -7.3920    0.2970   -2.2130 O.2    63  ASN63      -0.2864
     68  CB        -8.2320    0.1750    0.7480 C.3    63  ASN63       0.1181
     69  CG        -6.7430    0.1870    0.9270 C.2    63  ASN63       0.2629
     70  OD1       -6.2220   -0.2240    1.9670 O.2    63  ASN63      -0.2716
     71  ND2       -6.0420    0.6290   -0.0980 N.am   63  ASN63      -0.0877
     72  N         -9.3010   11.4240    1.8700 N.3    91  ARG91      -0.1245
     73  CA        -9.0950   12.3970    2.9480 C.3    91  ARG91       0.1563
     74  C         -9.0610   13.8010    2.3950 C.2    91  ARG91       0.2260
     75  O         -8.2430   14.6440    2.7700 O.2    91  ARG91      -0.2867
     76  CB        -7.8880   12.0320    3.7990 C.3    91  ARG91       0.0307
     77  CG        -8.1870   10.7730    4.6090 C.3    91  ARG91       0.0489
     78  CD        -7.1320   10.4790    5.6480 C.3    91  ARG91       0.2205
     79  NE        -7.1520   11.3940    6.7870 N.pl3  91  ARG91      -0.0865
     80  CZ        -6.0820   11.5690    7.5640 C.cat  91  ARG91       0.5346
     81  NH1       -4.9560   10.9020    7.2770 N.pl3  91  ARG91       0.1354
     82  NH2       -6.1170   12.4090    8.6010 N.pl3  91  ARG91       0.1354
     83  N         -3.3580   16.2350    2.8610 N.3   137  ILE137     -0.1245
     84  CA        -4.3460   15.1800    3.0520 C.3   137  ILE137      0.1561
     85  C         -4.9210   15.3400    4.4680 C.2   137  ILE137      0.2260
     86  O         -4.2710   15.9350    5.3220 O.2   137  ILE137     -0.2867
     87  CB        -3.7830   13.7740    2.7860 C.3   137  ILE137      0.0252
     88  CG1       -2.9090   13.2990    3.9640 C.3   137  ILE137      0.0019
     89  CG2       -3.0710   13.7630    1.4370 C.3   137  ILE137      0.0019
     90  CD1       -2.6940   11.7990    4.0700 C.3   137  ILE137      0.0001
     91  N         -1.6190   16.8210    6.2640 N.3   154  PHE154     -0.1241
     92  CA        -0.4000   16.0530    6.2730 C.3   154  PHE154      0.1605
     93  C          0.1520   16.1770    4.8650 C.2   154  PHE154      0.2264
     94  O         -0.5990   16.0330    3.9040 O.2   154  PHE154     -0.2867
     95  CB        -0.7240   14.5830    6.6540 C.3   154  PHE154      0.0534
     96  CG         0.4430   13.6300    6.5630 C.ar  154  PHE154     -0.0203
     97  CD1        1.4660   13.6440    7.5290 C.ar  154  PHE154     -0.0042
     98  CD2        0.5160   12.6970    5.5220 C.ar  154  PHE154     -0.0042
     99  CE1        2.5390   12.7610    7.4430 C.ar  154  PHE154     -0.0003
    100  CE2        1.5810   11.8000    5.4400 C.ar  154  PHE154     -0.0003
    101  CZ         2.5930   11.8370    6.4000 C.ar  154  PHE154     -0.0000
    102  N          2.8730   16.2400    9.5860 N.3   159  ARG159     -0.1245
    103  CA         1.5570   16.5930    9.9840 C.3   159  ARG159      0.1563
    104  C          1.6510   18.0780   10.1700 C.2   159  ARG159      0.2260
    105  O          2.5320   18.5730   10.8750 O.2   159  ARG159     -0.2867
    106  CB         1.1420   15.8740   11.2590 C.3   159  ARG159      0.0307
    107  CG         1.0550   14.3820   11.0220 C.3   159  ARG159      0.0489
    108  CD        -0.0760   13.7190   11.7810 C.3   159  ARG159      0.2205
    109  NE        -0.1250   12.3040   11.4040 N.pl3 159  ARG159     -0.0865
    110  CZ         0.6710   11.3660   11.9260 C.cat 159  ARG159      0.5346
    111  NH1        1.5770   11.6720   12.8690 N.pl3 159  ARG159      0.1354
    112  NH2        0.5580   10.1190   11.5200 N.pl3 159  ARG159      0.1354
    113  N         -3.8260   16.9460   12.0710 N.3   184  SER184     -0.1217
    114  CA        -4.2440   16.0540   11.0030 C.3   184  SER184      0.1889
    115  C         -5.6540   15.4660   11.3640 C.2   184  SER184      0.2288
    116  O         -5.9200   15.0920   12.5340 O.2   184  SER184     -0.2866
    117  CB        -3.1840   14.9720   10.7960 C.3   184  SER184      0.2089
    118  OG        -3.4830   14.1890    9.6650 O.3   184  SER184     -0.2183
    119  N         -5.2340   14.8720   15.1110 N.3   201  TYR201     -0.1241
    120  CA        -4.1320   14.1490   15.7130 C.3   201  TYR201      0.1605
    121  C         -2.8930   15.0320   15.4720 C.2   201  TYR201      0.2264
    122  O         -2.6410   15.4290   14.3280 O.2   201  TYR201     -0.2867
    123  CB        -3.9850   12.7790   15.0230 C.3   201  TYR201      0.0534
    124  CG        -2.8720   11.8940   15.5650 C.ar  201  TYR201     -0.0201
    125  CD1       -2.8960   11.4200   16.8910 C.ar  201  TYR201     -0.0009
    126  CD2       -1.8070   11.5150   14.7510 C.ar  201  TYR201     -0.0009
    127  CE1       -1.8830   10.5980   17.3810 C.ar  201  TYR201      0.0417
    128  CE2       -0.7930   10.7010   15.2310 C.ar  201  TYR201      0.0417
    129  CZ        -0.8280   10.2360   16.5420 C.ar  201  TYR201      0.1957
    130  OH         0.2050    9.4320   17.0000 O.3   201  TYR201     -0.2866
    131  N         -4.3930   12.2560   20.1170 N.3   206  GLN206     -0.1245
    132  CA        -5.6300   12.7030   19.4860 C.3   206  GLN206      0.1566
    133  C         -6.2090   13.7900   20.3670 C.2   206  GLN206      0.2260
    134  O         -6.3760   13.5980   21.5890 O.2   206  GLN206     -0.2867
    135  CB        -6.6350   11.5540   19.2770 C.3   206  GLN206      0.0367
    136  CG        -6.2680   10.5140   18.1910 C.3   206  GLN206      0.0905
    137  CD        -5.3870    9.3690   18.7010 C.2   206  GLN206      0.2608
    138  OE1       -5.0120    9.3390   19.8800 O.2   206  GLN206     -0.2717
    139  NE2       -5.0560    8.4180   17.8200 N.am  206  GLN206     -0.0878
    140  N        -10.2940   12.3330   16.4920 N.3   231  SER231     -0.1202
    141  CA        -9.6720   12.6810   15.2300 C.3   231  SER231      0.2020
    142  C        -10.4220   11.9760   14.0720 C.2   231  SER231      0.2618
    143  O        -11.0260   10.9280   14.2800 O.2   231  SER231     -0.2717
    144  CB        -8.2170   12.3160   15.2620 C.3   231  SER231      0.2103
    145  OG        -7.7190   12.3200   13.9410 O.3   231  SER231     -0.2182
    146  N        -10.3910   12.5500   12.8700 N.am  232  ALA232     -0.1979
    147  CA       -11.2450   12.0950   11.7320 C.3   232  ALA232      0.1597
    148  C        -12.7060   12.1280   12.0650 C.2   232  ALA232      0.2287
    149  O        -13.4620   11.2400   11.7210 O.2   232  ALA232     -0.2864
    150  CB       -10.8490   10.7430   11.1670 C.3   232  ALA232      0.0319
    151  N        -12.0870    8.8690   15.7660 N.3   248  TYR248     -0.1241
    152  CA       -11.2620    7.8840   16.4550 C.3   248  TYR248      0.1605
    153  C        -10.5130    8.6280   17.5710 C.2   248  TYR248      0.2264
    154  O        -10.0830    9.7650   17.3390 O.2   248  TYR248     -0.2867
    155  CB       -10.2670    7.2670   15.4750 C.3   248  TYR248      0.0534
    156  CG        -9.3340    6.2420   16.0830 C.ar  248  TYR248     -0.0201
    157  CD1       -9.8100    4.9740   16.4440 C.ar  248  TYR248     -0.0009
    158  CD2       -7.9720    6.5150   16.2680 C.ar  248  TYR248     -0.0009
    159  CE1       -8.9630    4.0160   16.9860 C.ar  248  TYR248      0.0417
    160  CE2       -7.1140    5.5640   16.8120 C.ar  248  TYR248      0.0417
    161  CZ        -7.6180    4.3180   17.1670 C.ar  248  TYR248      0.1957
    162  OH        -6.8250    3.3480   17.7160 O.3   248  TYR248     -0.2866
    163  N        -13.8600    3.7660   18.3360 N.3   253  PHE253     -0.1241
    164  CA       -14.6080    4.6250   17.4280 C.3   253  PHE253      0.1605
    165  C        -15.7950    5.2400   18.1600 C.2   253  PHE253      0.2264
    166  O        -16.6540    4.5340   18.6810 O.2   253  PHE253     -0.2867
    167  CB       -15.0710    3.8260   16.2360 C.3   253  PHE253      0.0534
    168  CG       -13.9500    3.3550   15.3860 C.ar  253  PHE253     -0.0203
    169  CD1      -13.2440    2.2180   15.7240 C.ar  253  PHE253     -0.0042
    170  CD2      -13.5710    4.0720   14.2700 C.ar  253  PHE253     -0.0042
    171  CE1      -12.1750    1.7950   14.9460 C.ar  253  PHE253     -0.0003
    172  CE2      -12.5140    3.6590   13.4840 C.ar  253  PHE253     -0.0003
    173  CZ       -11.8040    2.5250   13.8220 C.ar  253  PHE253     -0.0000
    174  N        -15.6280    6.8590   12.1340 N.3   278  SER278     -0.1202
    175  CA       -14.7620    7.9940   11.8350 C.3   278  SER278      0.2020
    176  C        -14.7270    8.2440   10.3170 C.2   278  SER278      0.2619
    177  O        -15.1200    7.3600    9.5220 O.2   278  SER278     -0.2717
    178  CB       -13.3340    7.6680   12.2950 C.3   278  SER278      0.2103
    179  OG       -12.7200    6.7070   11.4140 O.3   278  SER278     -0.2182
    180  N        -14.2330    9.4180    9.9020 N.am  279  GLY279     -0.1956
    181  CA       -14.0160    9.6570    8.4660 C.3   279  GLY279      0.1869
    182  C        -15.2920    9.7730    7.6690 C.2   279  GLY279      0.2309
    183  O        -15.3420    9.3430    6.5280 O.2   279  GLY279     -0.2863
@<TRIPOS>BOND
     1    67    66    2
     2    66    65    1
     3    65    64    1
     4    65    68    1
     5    63    62    2
     6    64    62   am
     7    62    61    1
     8    71    69   am
     9    35    34    1
    10    35    36    1
    11    35    38    1
    12    61    60    1
    13    36    37    2
    14    39    38    1
    15    39    40    1
    16    68    69    1
    17    69    70    2
    18    40    41    1
    19    89    87    1
    20    72    73    1
    21    45    46    1
    22    33    32    2
    23    74    75    2
    24    74    73    1
    25    41    42    2
    26    87    84    1
    27    87    88    1
    28    83    84    1
    29    27    26    2
    30    46    47    1
    31    46    49    1
    32    43    42    1
    33    73    76    1
    34    84    85    1
    35    32    31    1
    36    24    25    1
    37    47    48    2
    38    55    56    2
    39    55    54    1
    40    42    44    1
    41    76    77    1
    42    53    59    1
    43    53    54    1
    44    94    93    2
    45    88    90    1
    46    26    25    1
    47    26    30   am
    48    59    58    1
    49    49    50    1
    50    58    57    1
    51    31    30    1
    52    25    28    1
    53    85    86    2
    54    54    57    1
    55    51    50    2
    56    77    78    1
    57    50    52   am
    58    93    92    1
    59    29    28    1
    60   100    98   ar
    61   100   101   ar
    62    98    96   ar
    63    78    79    1
    64    91    92    1
    65    92    95    1
    66   101    99   ar
    67   183   182    2
    68    96    95    1
    69    96    97   ar
    70    79    80    2
    71    81    80    1
    72    99    97   ar
    73    80    82    1
    74     7     9   ar
    75     7     6   ar
    76   182   181    1
    77     9    11   ar
    78   181   180    1
    79     5     6    1
    80     5     2    1
    81     1     2    1
    82     6     8   ar
    83     2     3    1
    84    11    12    1
    85    11    10   ar
    86    16    15    2
    87   177   176    2
    88    15    14    1
    89   102   103    1
    90   118   117    1
    91   180   176   am
    92     8    10   ar
    93   103   104    1
    94   103   106    1
    95   104   105    2
    96     3     4    2
    97   176   175    1
    98   117   114    1
    99    14    13    1
   100    14    17    1
   101   114   115    1
   102   114   113    1
   103   107   106    1
   104   107   108    1
   105   150   147    1
   106    17    18    1
   107   115   116    2
   108   109   108    1
   109   109   110    2
   110   179   178    1
   111   112   110    1
   112   149   148    2
   113   147   148    1
   114   147   146    1
   115   175   174    1
   116   175   178    1
   117   110   111    1
   118    18    19    1
   119   146   142   am
   120    19    20    1
   121   172   173   ar
   122   172   170   ar
   123   173   171   ar
   124   145   144    1
   125   142   143    2
   126   142   141    1
   127    20    21    2
   128   170   168   ar
   129   122   121    2
   130   126   128   ar
   131   126   124   ar
   132   171   169   ar
   133   123   124    1
   134   123   120    1
   135   119   120    1
   136   141   144    1
   137   141   140    1
   138   128   129   ar
   139   168   169   ar
   140   168   167    1
   141   121   120    1
   142   155   156    1
   143   155   152    1
   144    21    23    1
   145    21    22    1
   146   124   125   ar
   147   151   152    1
   148   156   158   ar
   149   156   157   ar
   150   167   164    1
   151   158   160   ar
   152   157   159   ar
   153   152   153    1
   154   129   130    1
   155   129   127   ar
   156   160   161   ar
   157   125   127   ar
   158   159   161   ar
   159   161   162    1
   160   154   153    2
   161   164   165    1
   162   164   163    1
   163   139   137   am
   164   165   166    2
   165   136   137    1
   166   136   135    1
   167   137   138    2
   168   135   132    1
   169   132   131    1
   170   132   133    1
   171   133   134    2
