@<TRIPOS>MOLECULE
tmp/3we8A00.pdb
 114 106 0 0 0
SMALL
GASTEIGER

@<TRIPOS>ATOM
      1  N        -65.5830  123.6370    3.8970 N.3    12  LEU12      -0.1245
      2  CA       -66.9750  123.5150    4.3060 C.3    12  LEU12       0.1561
      3  C        -67.1970  122.2420    5.1260 C.2    12  LEU12       0.2260
      4  O        -68.1170  122.1670    5.9400 O.2    12  LEU12      -0.2867
      5  CB       -67.9010  123.5550    3.0800 C.3    12  LEU12       0.0270
      6  CG       -68.0060  124.9100    2.3890 C.3    12  LEU12       0.0019
      7  CD1      -68.9000  124.8050    1.1530 C.3    12  LEU12       0.0001
      8  CD2      -68.6480  125.9140    3.3150 C.3    12  LEU12       0.0001
      9  N        -67.0900  111.5670    1.7270 N.3    17  PHE17      -0.1241
     10  CA       -67.2030  112.1780    0.3970 C.3    17  PHE17       0.1605
     11  C        -65.9380  112.9210   -0.0520 C.2    17  PHE17       0.2264
     12  O        -65.9000  113.4340   -1.1550 O.2    17  PHE17      -0.2867
     13  CB       -68.3650  113.1630    0.3800 C.3    17  PHE17       0.0534
     14  CG       -68.3260  114.1630    1.5180 C.ar   17  PHE17      -0.0203
     15  CD1      -69.0580  113.9310    2.6650 C.ar   17  PHE17      -0.0042
     16  CD2      -67.5630  115.3290    1.4240 C.ar   17  PHE17      -0.0042
     17  CE1      -69.0200  114.8390    3.7580 C.ar   17  PHE17      -0.0003
     18  CE2      -67.5350  116.2630    2.4750 C.ar   17  PHE17      -0.0003
     19  CZ       -68.2750  116.0230    3.6550 C.ar   17  PHE17      -0.0000
     20  N        -64.4620  119.3260    1.0130 N.3    20  VAL20      -0.1245
     21  CA       -65.1750  120.2980    0.1830 C.3    20  VAL20       0.1561
     22  C        -64.9250  121.7010    0.6840 C.2    20  VAL20       0.2260
     23  O        -65.0780  121.9630    1.8920 O.2    20  VAL20      -0.2867
     24  CB       -66.6790  120.0500    0.2280 C.3    20  VAL20       0.0252
     25  CG1      -67.4210  121.1390   -0.5840 C.3    20  VAL20       0.0019
     26  CG2      -67.0250  118.6680   -0.3610 C.3    20  VAL20       0.0019
     27  N        -68.7650  124.8770   -5.0230 N.3    33  ALA33      -0.1245
     28  CA       -68.1140  124.0540   -4.0000 C.3    33  ALA33       0.1562
     29  C        -67.0360  123.2590   -4.6850 C.2    33  ALA33       0.2260
     30  O        -67.2310  122.7540   -5.7890 O.2    33  ALA33      -0.2867
     31  CB       -69.1470  123.0900   -3.3410 C.3    33  ALA33       0.0290
     32  N        -64.6940  120.1120   -4.4730 N.3    35  LYS35      -0.1245
     33  CA       -64.6000  118.8470   -3.7620 C.3    35  LYS35       0.1561
     34  C        -63.3730  118.0800   -4.2360 C.2    35  LYS35       0.2260
     35  O        -63.1430  117.9210   -5.4520 O.2    35  LYS35      -0.2867
     36  CB       -65.8590  118.0080   -4.0300 C.3    35  LYS35       0.0271
     37  CG       -65.7330  116.5650   -3.5540 C.3    35  LYS35       0.0035
     38  CD       -66.9470  115.7130   -4.0560 C.3    35  LYS35       0.0206
     39  CE       -68.0210  115.6020   -3.0000 C.3    35  LYS35       0.1093
     40  NZ       -69.1360  114.6650   -3.4430 N.3    35  LYS35      -0.1314
     41  N        -77.4150  118.7450   -6.9500 N.3    72  ILE72      -0.1245
     42  CA       -76.2950  119.6840   -7.0610 C.3    72  ILE72       0.1561
     43  C        -75.4960  119.3140   -8.3190 C.2    72  ILE72       0.2260
     44  O        -75.0060  118.1830   -8.4440 O.2    72  ILE72      -0.2867
     45  CB       -75.4040  119.6110   -5.8140 C.3    72  ILE72       0.0252
     46  CG1      -76.1170  120.2710   -4.6410 C.3    72  ILE72       0.0019
     47  CG2      -74.0390  120.3300   -6.0350 C.3    72  ILE72       0.0019
     48  CD1      -76.3420  121.8340   -4.8660 C.3    72  ILE72       0.0001
     49  N        -68.7130  122.0270   -8.1650 N.3    88  LEU88      -0.1231
     50  CA       -70.1140  121.7130   -7.9620 C.3    88  LEU88       0.1693
     51  C        -70.8550  122.9870   -7.6460 C.2    88  LEU88       0.2592
     52  O        -70.2440  123.9650   -7.1840 O.2    88  LEU88      -0.2718
     53  CB       -70.2500  120.7590   -6.7700 C.3    88  LEU88       0.0284
     54  CG       -69.6920  119.3690   -7.1360 C.3    88  LEU88       0.0019
     55  CD1      -69.2030  118.6160   -5.9100 C.3    88  LEU88       0.0001
     56  CD2      -70.7630  118.5460   -7.8310 C.3    88  LEU88       0.0001
     57  N        -72.1640  122.9900   -7.8730 N.am   89  GLU89      -0.1966
     58  CA       -72.9780  124.1620   -7.4990 C.3    89  GLU89       0.1733
     59  C        -72.9200  124.3610   -6.0140 C.2    89  GLU89       0.2616
     60  O        -72.7000  123.4090   -5.2660 O.2    89  GLU89      -0.2715
     61  CB       -74.4360  123.9590   -7.8600 C.3    89  GLU89       0.0429
     62  CG       -74.6850  123.9460   -9.3430 C.3    89  GLU89       0.1163
     63  CD       -76.1740  123.8130   -9.6490 C.2    89  GLU89       0.3649
     64  OE1      -76.7640  122.7490   -9.3000 O.co2  89  GLU89      -0.2457
     65  OE2      -76.7570  124.8010  -10.1810 O.co2  89  GLU89      -0.2457
     66  N        -73.1120  125.6090   -5.5780 N.am   90  ARG90      -0.1964
     67  CA       -73.2560  125.8850   -4.1630 C.3    90  ARG90       0.1714
     68  C        -74.3760  126.9070   -3.9210 C.2    90  ARG90       0.2458
     69  O        -74.2190  128.0910   -4.2280 O.2    90  ARG90      -0.2730
     70  CB       -71.9350  126.4030   -3.5770 C.3    90  ARG90       0.0347
     71  CG       -72.1090  126.9600   -2.1690 C.3    90  ARG90       0.0492
     72  CD       -70.7790  127.2400   -1.5400 C.3    90  ARG90       0.2205
     73  NE       -70.0610  128.3340   -2.2080 N.pl3  90  ARG90      -0.0865
     74  CZ       -70.1740  129.6320   -1.8970 C.cat  90  ARG90       0.5346
     75  NH1      -70.9910  130.0190   -0.9080 N.pl3  90  ARG90       0.1354
     76  NH2      -69.4620  130.5390   -2.5730 N.pl3  90  ARG90       0.1354
     77  N        -75.5220  126.4500   -3.4020 N.am   91  PRO91      -0.2727
     78  CA       -76.5730  127.4150   -3.0520 C.3    91  PRO91       0.1402
     79  C        -76.0930  128.2640   -1.8820 C.2    91  PRO91       0.2269
     80  O        -75.2060  127.8570   -1.0920 O.2    91  PRO91      -0.2865
     81  CB       -77.7170  126.5370   -2.5640 C.3    91  PRO91       0.0296
     82  CG       -77.4120  125.1400   -3.1430 C.3    91  PRO91       0.0237
     83  CD       -75.9360  125.0520   -3.1730 C.3    91  PRO91       0.0939
     84  N        -77.1930  128.0890    2.7100 N.3    94  VAL94      -0.1245
     85  CA       -77.4730  126.6690    2.5600 C.3    94  VAL94       0.1561
     86  C        -77.2180  125.9430    3.8760 C.2    94  VAL94       0.2260
     87  O        -76.3920  126.3670    4.6820 O.2    94  VAL94      -0.2867
     88  CB       -76.6290  126.0590    1.4410 C.3    94  VAL94       0.0252
     89  CG1      -75.1750  126.0320    1.8450 C.3    94  VAL94       0.0019
     90  CG2      -77.0830  124.6300    1.1170 C.3    94  VAL94       0.0019
     91  N        -79.1030  119.0260    0.6150 N.3   142  LEU142     -0.1245
     92  CA       -78.8190  120.4110    0.9880 C.3   142  LEU142      0.1561
     93  C        -80.1100  121.2010    0.8560 C.2   142  LEU142      0.2260
     94  O        -80.8950  120.9730   -0.0620 O.2   142  LEU142     -0.2867
     95  CB       -77.7910  121.0340    0.0320 C.3   142  LEU142      0.0270
     96  CG       -76.3880  120.4330    0.1140 C.3   142  LEU142      0.0019
     97  CD1      -75.4250  121.2080   -0.8240 C.3   142  LEU142      0.0001
     98  CD2      -75.8990  120.5370    1.5780 C.3   142  LEU142      0.0001
     99  N        -76.7670  115.4550   -2.9100 N.3   153  ILE153     -0.1231
    100  CA       -75.3120  115.4160   -3.0830 C.3   153  ILE153      0.1692
    101  C        -74.7640  114.0420   -2.8030 C.2   153  ILE153      0.2592
    102  O        -75.4730  113.1710   -2.2850 O.2   153  ILE153     -0.2718
    103  CB       -74.5810  116.3550   -2.0910 C.3   153  ILE153      0.0266
    104  CG1      -75.0640  116.0820   -0.6570 C.3   153  ILE153      0.0019
    105  CG2      -74.8290  117.8440   -2.4550 C.3   153  ILE153      0.0020
    106  CD1      -74.2220  116.8160    0.4200 C.3   153  ILE153      0.0001
    107  N        -73.4760  113.8840   -3.1310 N.am  154  ASP154     -0.1974
    108  CA       -72.6650  112.7240   -2.7740 C.3   154  ASP154      0.1709
    109  C        -73.0540  111.4020   -3.4350 C.2   154  ASP154      0.2293
    110  O        -73.6110  110.4750   -2.8050 O.2   154  ASP154     -0.2864
    111  CB       -72.5330  112.5990   -1.2510 C.3   154  ASP154      0.1436
    112  CG       -71.6760  113.6960   -0.6650 C.2   154  ASP154      0.3671
    113  OD1      -70.9180  114.3180   -1.4500 O.co2 154  ASP154     -0.2456
    114  OD2      -71.7780  113.9280    0.5630 O.co2 154  ASP154     -0.2456
@<TRIPOS>BOND
     1    65    63   ar
     2    63    62    1
     3    63    64   ar
     4    62    61    1
     5    44    43    2
     6    43    42    1
     7    49    50    1
     8    50    51    1
     9    50    53    1
    10    57    51   am
    11    57    58    1
    12    61    58    1
    13    56    54    1
    14    51    52    2
    15    58    59    1
    16    54    53    1
    17    54    55    1
    18    42    41    1
    19    42    45    1
    20    47    45    1
    21    59    66   am
    22    59    60    2
    23    45    46    1
    24    30    29    2
    25    66    67    1
    26    35    34    2
    27    27    28    1
    28    48    46    1
    29    29    28    1
    30    32    33    1
    31    34    33    1
    32    69    68    2
    33    67    68    1
    34    67    70    1
    35    38    37    1
    36    38    39    1
    37    36    33    1
    38    36    37    1
    39    28    31    1
    40    68    77   am
    41    70    71    1
    42    40    39    1
    43   109   110    2
    44   109   108    1
    45    77    83    1
    46    77    78    1
    47    83    82    1
    48    82    81    1
    49   107   101   am
    50   107   108    1
    51   100    99    1
    52   100   101    1
    53   100   103    1
    54    78    81    1
    55    78    79    1
    56   101   102    2
    57   108   111    1
    58    76    74    1
    59   105   103    1
    60    73    74    2
    61    73    72    1
    62    71    72    1
    63   103   104    1
    64    74    75    1
    65    79    80    2
    66   113   112   ar
    67   111   112    1
    68    12    11    2
    69    97    96    1
    70   112   114   ar
    71   104   106    1
    72    25    24    1
    73    26    24    1
    74    94    93    2
    75    11    10    1
    76    95    96    1
    77    95    92    1
    78    96    98    1
    79    21    24    1
    80    21    22    1
    81    21    20    1
    82    13    10    1
    83    13    14    1
    84    10     9    1
    85    91    92    1
    86    22    23    2
    87    93    92    1
    88    90    88    1
    89     7     6    1
    90    16    14   ar
    91    16    18   ar
    92    88    89    1
    93    88    85    1
    94    14    15   ar
    95     6     5    1
    96     6     8    1
    97    18    19   ar
    98    85    84    1
    99    85    86    1
   100    15    17   ar
   101     5     2    1
   102    19    17   ar
   103    86    87    2
   104     1     2    1
   105     2     3    1
   106     3     4    2
