@<TRIPOS>MOLECULE
tmp/3we9A00.pdb
 132 119 0 0 0
SMALL
GASTEIGER

@<TRIPOS>ATOM
      1  N         22.2190   46.5470   26.9860 N.3    28  CYS28      -0.1235
      2  CA        23.0290   45.4790   27.5640 C.3    28  CYS28       0.1677
      3  C         22.6600   45.2700   29.0290 C.2    28  CYS28       0.2270
      4  O         22.5410   44.1350   29.4890 O.2    28  CYS28      -0.2867
      5  CB        24.5220   45.8100   27.4520 C.3    28  CYS28       0.0956
      6  SG        25.1840   45.7550   25.7600 S.3    28  CYS28      -0.0801
      7  N         19.7270   43.2460   29.1830 N.3    31  ALA31      -0.1231
      8  CA        20.0140   41.8520   28.8540 C.3    31  ALA31       0.1694
      9  C         20.6510   41.1400   30.0470 C.2    31  ALA31       0.2591
     10  O         20.3350   39.9850   30.3370 O.2    31  ALA31      -0.2718
     11  CB        20.9460   41.7800   27.6480 C.3    31  ALA31       0.0304
     12  N         21.5460   41.8410   30.7340 N.am   32  LEU32      -0.1980
     13  CA        22.2410   41.2900   31.8930 C.3    32  LEU32       0.1596
     14  C         21.3400   41.0970   33.1080 C.2    32  LEU32       0.2287
     15  O         21.6390   40.2820   33.9840 O.2    32  LEU32      -0.2864
     16  CB        23.4040   42.2050   32.2820 C.3    32  LEU32       0.0297
     17  CG        24.5810   42.3240   31.3080 C.3    32  LEU32       0.0022
     18  CD1       25.5490   43.3890   31.8140 C.3    32  LEU32       0.0001
     19  CD2       25.2770   40.9840   31.1650 C.3    32  LEU32       0.0001
     20  N         31.8080   45.1930   32.5110 N.3    47  LEU47      -0.1245
     21  CA        31.4570   46.2230   31.5380 C.3    47  LEU47       0.1561
     22  C         31.7750   47.6360   32.0330 C.2    47  LEU47       0.2260
     23  O         32.0670   48.5230   31.2320 O.2    47  LEU47      -0.2867
     24  CB        29.9800   46.1130   31.1490 C.3    47  LEU47       0.0270
     25  CG        29.5920   44.8250   30.4100 C.3    47  LEU47       0.0019
     26  CD1       28.1800   44.9670   29.8600 C.3    47  LEU47       0.0001
     27  CD2       30.5710   44.5560   29.2760 C.3    47  LEU47       0.0001
     28  N         35.2330   48.1440   31.1700 N.3    50  CYS50      -0.1235
     29  CA        35.3300   48.4420   29.7460 C.3    50  CYS50       0.1677
     30  C         35.0040   49.9080   29.4630 C.2    50  CYS50       0.2270
     31  O         35.7670   50.5990   28.7830 O.2    50  CYS50      -0.2867
     32  CB        34.3910   47.5280   28.9500 C.3    50  CYS50       0.0956
     33  SG        34.9300   45.7910   28.8840 S.3    50  CYS50      -0.0801
     34  N         41.9640   44.5180   25.6870 N.3    78  PHE78      -0.1241
     35  CA        41.0470   45.6450   25.5940 C.3    78  PHE78       0.1605
     36  C         41.7600   46.9700   25.8580 C.2    78  PHE78       0.2264
     37  O         41.5980   47.9280   25.1050 O.2    78  PHE78      -0.2867
     38  CB        39.8930   45.4520   26.5830 C.3    78  PHE78       0.0534
     39  CG        38.7610   46.4220   26.3950 C.ar   78  PHE78      -0.0203
     40  CD1       38.8160   47.6960   26.9490 C.ar   78  PHE78      -0.0042
     41  CD2       37.6410   46.0610   25.6520 C.ar   78  PHE78      -0.0042
     42  CE1       37.7690   48.6000   26.7680 C.ar   78  PHE78      -0.0003
     43  CE2       36.5870   46.9570   25.4630 C.ar   78  PHE78      -0.0003
     44  CZ        36.6510   48.2270   26.0210 C.ar   78  PHE78      -0.0000
     45  N         35.2260   44.4750   21.5380 N.3   103  GLY103     -0.1225
     46  CA        34.0090   43.7250   21.8090 C.3   103  GLY103      0.1811
     47  C         34.2680   42.2370   21.9930 C.2   103  GLY103      0.2280
     48  O         33.7280   41.6160   22.9090 O.2   103  GLY103     -0.2866
     49  N         35.7490   41.6590   25.2810 N.3   106  ALA106     -0.1231
     50  CA        34.7400   41.8010   26.3280 C.3   106  ALA106      0.1694
     51  C         33.9460   40.4990   26.4260 C.2   106  ALA106      0.2592
     52  O         33.5840   40.0540   27.5190 O.2   106  ALA106     -0.2718
     53  CB        33.8110   42.9720   26.0100 C.3   106  ALA106      0.0304
     54  N         33.6790   39.8890   25.2760 N.am  107  GLY107     -0.1957
     55  CA        32.9460   38.6380   25.2650 C.3   107  GLY107      0.1869
     56  C         33.7180   37.5700   26.0170 C.2   107  GLY107      0.2309
     57  O         33.1450   36.7820   26.7700 O.2   107  GLY107     -0.2863
     58  N         33.6300   38.0700   29.8170 N.3   110  LEU110     -0.1245
     59  CA        32.3780   37.5860   30.3870 C.3   110  LEU110      0.1561
     60  C         32.1280   36.0860   30.3610 C.2   110  LEU110      0.2260
     61  O         31.2810   35.5970   31.1040 O.2   110  LEU110     -0.2867
     62  CB        31.2040   38.2700   29.6840 C.3   110  LEU110      0.0270
     63  CG        31.0990   39.7940   29.8010 C.3   110  LEU110      0.0019
     64  CD1       29.9760   40.2820   28.8960 C.3   110  LEU110      0.0001
     65  CD2       30.8410   40.2000   31.2510 C.3   110  LEU110      0.0001
     66  N         29.1460   33.7630   32.2050 N.3   114  LEU114     -0.1245
     67  CA        28.0180   33.2100   31.4630 C.3   114  LEU114      0.1561
     68  C         27.9190   31.6870   31.5590 C.2   114  LEU114      0.2260
     69  O         26.8310   31.1220   31.4440 O.2   114  LEU114     -0.2867
     70  CB        28.1210   33.6200   29.9890 C.3   114  LEU114      0.0270
     71  CG        28.2250   35.1300   29.7630 C.3   114  LEU114      0.0019
     72  CD1       28.4690   35.4320   28.2750 C.3   114  LEU114      0.0001
     73  CD2       26.9460   35.7950   30.2520 C.3   114  LEU114      0.0001
     74  N         29.7080   37.1970   19.7980 N.3   129  LEU129     -0.1231
     75  CA        28.6600   38.0860   20.2880 C.3   129  LEU129      0.1693
     76  C         29.2370   39.4670   20.6100 C.2   129  LEU129      0.2592
     77  O         28.7120   40.4840   20.1700 O.2   129  LEU129     -0.2718
     78  CB        28.0050   37.5040   21.5420 C.3   129  LEU129      0.0284
     79  CG        26.9250   38.3980   22.1670 C.3   129  LEU129      0.0019
     80  CD1       25.8030   38.6290   21.1630 C.3   129  LEU129      0.0001
     81  CD2       26.3950   37.7540   23.4450 C.3   129  LEU129      0.0001
     82  N         30.3210   39.4950   21.3770 N.am  130  GLY130     -0.1957
     83  CA        30.9350   40.7630   21.7340 C.3   130  GLY130      0.1869
     84  C         31.4260   41.5240   20.5160 C.2   130  GLY130      0.2309
     85  O         31.2770   42.7460   20.4270 O.2   130  GLY130     -0.2863
     86  N         28.4310   42.9270   18.6500 N.3   133  ILE133     -0.1231
     87  CA        27.8630   44.0610   19.3750 C.3   133  ILE133      0.1692
     88  C         28.6830   45.3310   19.1370 C.2   133  ILE133      0.2591
     89  O         28.1340   46.4310   18.9990 O.2   133  ILE133     -0.2718
     90  CB        27.7790   43.7420   20.8840 C.3   133  ILE133      0.0266
     91  CG1       26.6780   42.6960   21.1220 C.3   133  ILE133      0.0019
     92  CG2       27.5250   45.0110   21.6830 C.3   133  ILE133      0.0020
     93  CD1       26.6430   42.1270   22.5480 C.3   133  ILE133      0.0001
     94  N         30.0020   45.1830   19.0790 N.am  134  GLN134     -0.1979
     95  CA        30.8560   46.3380   18.8270 C.3   134  GLN134      0.1601
     96  C         30.6010   46.8440   17.4010 C.2   134  GLN134      0.2287
     97  O         30.5330   48.0520   17.1540 O.2   134  GLN134     -0.2864
     98  CB        32.3280   45.9560   19.0100 C.3   134  GLN134      0.0394
     99  CG        33.2740   47.1400   18.9670 C.3   134  GLN134      0.0908
    100  CD        33.0530   48.1100   20.1190 C.2   134  GLN134      0.2608
    101  OE1       31.9520   48.6190   20.3160 O.2   134  GLN134     -0.2717
    102  NE2       34.1070   48.3720   20.8820 N.am  134  GLN134     -0.0878
    103  N         27.3990   48.7820   17.4100 N.3   137  ARG137     -0.1245
    104  CA        27.5850   50.0960   18.0010 C.3   137  ARG137      0.1563
    105  C         28.2580   51.0210   16.9920 C.2   137  ARG137      0.2260
    106  O         27.8620   52.1760   16.8350 O.2   137  ARG137     -0.2867
    107  CB        28.4360   49.9890   19.2690 C.3   137  ARG137      0.0307
    108  CG        27.6910   49.3890   20.4480 C.3   137  ARG137      0.0489
    109  CD        28.6300   49.1140   21.6040 C.3   137  ARG137      0.2205
    110  NE        27.9040   48.7730   22.8220 N.pl3 137  ARG137     -0.0865
    111  CZ        27.2730   49.6560   23.5910 C.cat 137  ARG137      0.5346
    112  NH1       27.2810   50.9430   23.2700 N.pl3 137  ARG137      0.1354
    113  NH2       26.6360   49.2530   24.6820 N.pl3 137  ARG137      0.1354
    114  N         19.7980   36.0220   28.8590 N.3   207  THR207     -0.1203
    115  CA        20.6960   37.1660   28.7250 C.3   207  THR207      0.1994
    116  C         21.3240   37.1910   27.3330 C.2   207  THR207      0.2617
    117  O         21.4010   38.2420   26.7050 O.2   207  THR207     -0.2717
    118  CB        21.8030   37.1340   29.8050 C.3   207  THR207      0.1784
    119  OG1       21.2390   37.5000   31.0710 O.3   207  THR207     -0.2211
    120  CG2       22.9390   38.1060   29.4630 C.3   207  THR207      0.0376
    121  N         21.7640   36.0360   26.8460 N.am  208  VAL208     -0.1979
    122  CA        22.3640   35.9600   25.5160 C.3   208  VAL208      0.1595
    123  C         21.3000   36.2040   24.4480 C.2   208  VAL208      0.2287
    124  O         21.5240   36.9500   23.4970 O.2   208  VAL208     -0.2864
    125  CB        23.0250   34.5820   25.2660 C.3   208  VAL208      0.0276
    126  CG1       23.5320   34.4990   23.8310 C.3   208  VAL208      0.0022
    127  CG2       24.1840   34.3740   26.2380 C.3   208  VAL208      0.0022
    128  N         20.4460   39.8740   24.3030 N.3   211  ALA211     -0.1245
    129  CA        21.5100   40.6160   23.6260 C.3   211  ALA211      0.1562
    130  C         21.3970   40.4510   22.1110 C.2   211  ALA211      0.2260
    131  O         21.5330   41.4140   21.3590 O.2   211  ALA211     -0.2867
    132  CB        22.8780   40.1280   24.1090 C.3   211  ALA211      0.0290
@<TRIPOS>BOND
     1   106   105    2
     2   105   104    1
     3    97    96    2
     4    96    95    1
     5   103   104    1
     6   104   107    1
     7    86    87    1
     8    95    98    1
     9    95    94    1
    10    99    98    1
    11    99   100    1
    12    89    88    2
    13    94    88   am
    14    88    87    1
    15   107   108    1
    16    87    90    1
    17    74    75    1
    18   100   101    2
    19   100   102   am
    20    77    76    2
    21    75    76    1
    22    75    78    1
    23    85    84    2
    24   108   109    1
    25    84    83    1
    26    76    82   am
    27    90    91    1
    28    90    92    1
    29    91    93    1
    30    80    79    1
    31   131   130    2
    32    82    83    1
    33    45    46    1
    34    78    79    1
    35   109   110    1
    36    46    47    1
    37    47    48    2
    38   130   129    1
    39    79    81    1
    40   110   111    2
    41   112   111    1
    42   124   123    2
    43   111   113    1
    44   129   132    1
    45   129   128    1
    46   126   125    1
    47   123   122    1
    48    37    36    2
    49    55    54    1
    50    55    56    1
    51   125   122    1
    52   125   127    1
    53    54    51   am
    54    49    50    1
    55    43    41   ar
    56    43    44   ar
    57   122   121    1
    58    35    34    1
    59    35    36    1
    60    35    38    1
    61    41    39   ar
    62     6     5    1
    63    53    50    1
    64    56    57    2
    65    44    42   ar
    66    50    51    1
    67    39    38    1
    68    39    40   ar
    69    51    52    2
    70   117   116    2
    71    42    40   ar
    72   121   116   am
    73     1     2    1
    74   116   115    1
    75     5     2    1
    76     2     3    1
    77    11     8    1
    78    72    71    1
    79   115   114    1
    80   115   118    1
    81    31    30    2
    82     8     7    1
    83     8     9    1
    84    33    32    1
    85    64    63    1
    86    32    29    1
    87     3     4    2
    88    27    25    1
    89   120   118    1
    90    30    29    1
    91    62    63    1
    92    62    59    1
    93    29    28    1
    94    71    70    1
    95    71    73    1
    96    63    65    1
    97   118   119    1
    98    58    59    1
    99    26    25    1
   100    70    67    1
   101     9    10    2
   102     9    12   am
   103    60    59    1
   104    60    61    2
   105    25    24    1
   106    12    13    1
   107    24    21    1
   108    19    17    1
   109    23    22    2
   110    17    18    1
   111    17    16    1
   112    69    68    2
   113    67    68    1
   114    67    66    1
   115    21    22    1
   116    21    20    1
   117    13    16    1
   118    13    14    1
   119    14    15    2
