@<TRIPOS>MOLECULE
tmp/3webA00.pdb
 181 175 0 0 0
SMALL
GASTEIGER

@<TRIPOS>ATOM
      1  N         10.4710   20.0450   25.1100 N.3    18  ILE18      -0.1245
      2  CA         9.9280   18.7600   25.5340 C.3    18  ILE18       0.1561
      3  C          9.3860   18.9650   26.9430 C.2    18  ILE18       0.2260
      4  O         10.1240   19.3780   27.8340 O.2    18  ILE18      -0.2867
      5  CB        10.9790   17.6350   25.4950 C.3    18  ILE18       0.0252
      6  CG1       11.5280   17.4680   24.0680 C.3    18  ILE18       0.0019
      7  CG2       10.3620   16.3220   25.9770 C.3    18  ILE18       0.0019
      8  CD1       12.6450   16.4490   23.9400 C.3    18  ILE18       0.0001
      9  N         12.5810   11.8020   30.4620 N.3    30  ILE30      -0.1245
     10  CA        11.3660   11.3340   29.8030 C.3    30  ILE30       0.1561
     11  C         10.6740   10.4280   30.8090 C.2    30  ILE30       0.2260
     12  O         11.1910    9.3630   31.1540 O.2    30  ILE30      -0.2867
     13  CB        11.6890   10.5660   28.4920 C.3    30  ILE30       0.0252
     14  CG1       12.4620   11.4650   27.5100 C.3    30  ILE30       0.0019
     15  CG2       10.4310    9.9620   27.8670 C.3    30  ILE30       0.0019
     16  CD1       11.6480   12.5570   26.8440 C.3    30  ILE30       0.0001
     17  N          5.8580   17.5240   22.7440 N.3    38  VAL38      -0.1245
     18  CA         7.0840   17.9580   22.0670 C.3    38  VAL38       0.1561
     19  C          6.7170   19.0340   21.0610 C.2    38  VAL38       0.2260
     20  O          5.7340   18.8880   20.3340 O.2    38  VAL38      -0.2867
     21  CB         7.7910   16.7970   21.3370 C.3    38  VAL38       0.0252
     22  CG1        9.0450   17.2850   20.6080 C.3    38  VAL38       0.0019
     23  CG2        8.1410   15.6790   22.3080 C.3    38  VAL38       0.0019
     24  N         13.3270    8.8250   13.3110 N.3    55  ALA55      -0.1245
     25  CA        13.9280    8.8430   14.6390 C.3    55  ALA55       0.1562
     26  C         14.9810    7.7480   14.7850 C.2    55  ALA55       0.2260
     27  O         14.8790    6.6840   14.1660 O.2    55  ALA55      -0.2867
     28  CB        12.8610    8.7090   15.7150 C.3    55  ALA55       0.0290
     29  N         10.8710    3.0300   14.6980 N.3    67  PRO67      -0.2102
     30  CA         9.6400    3.3460   13.9630 C.3    67  PRO67       0.1504
     31  C          8.7950    4.4260   14.6400 C.2    67  PRO67       0.2576
     32  O          8.6180    4.4020   15.8570 O.2    67  PRO67      -0.2718
     33  CB         8.8820    2.0130   13.9700 C.3    67  PRO67       0.0282
     34  CG         9.3460    1.3340   15.2130 C.3    67  PRO67       0.0208
     35  CD        10.7970    1.7020   15.3390 C.3    67  PRO67       0.0893
     36  N          8.2900    5.3680   13.8480 N.am   68  LEU68      -0.1966
     37  CA         7.3440    6.3590   14.3470 C.3    68  LEU68       0.1728
     38  C          5.9320    5.9860   13.9100 C.2    68  LEU68       0.2616
     39  O          5.7430    5.3670   12.8610 O.2    68  LEU68      -0.2715
     40  CB         7.7140    7.7640   13.8580 C.3    68  LEU68       0.0311
     41  CG         9.0710    8.3280   14.3060 C.3    68  LEU68       0.0022
     42  CD1        9.4560    9.5430   13.4770 C.3    68  LEU68       0.0001
     43  CD2        9.0750    8.6700   15.7890 C.3    68  LEU68       0.0001
     44  N          4.9490    6.3590   14.7240 N.am   69  LYS69      -0.1963
     45  CA         3.5460    6.0590   14.4350 C.3    69  LYS69       0.1728
     46  C          2.9600    6.9840   13.3720 C.2    69  LYS69       0.2616
     47  O          2.1280    6.5630   12.5670 O.2    69  LYS69      -0.2715
     48  CB         2.7000    6.1290   15.7090 C.3    69  LYS69       0.0311
     49  CG         2.9390    4.9860   16.6860 C.3    69  LYS69       0.0038
     50  CD         2.1090    5.1730   17.9500 C.3    69  LYS69       0.0206
     51  CE         2.5680    4.2650   19.0830 C.3    69  LYS69       0.1093
     52  NZ         2.3000    2.8230   18.8160 N.3    69  LYS69      -0.1314
     53  N          3.3860    8.2450   13.3750 N.am   70  LYS70      -0.1977
     54  CA         2.8650    9.2310   12.4240 C.3    70  LYS70       0.1596
     55  C          3.9850   10.0250   11.7360 C.2    70  LYS70       0.2287
     56  O          4.0870   11.2380   11.9410 O.2    70  LYS70      -0.2864
     57  CB         1.8940   10.1900   13.1270 C.3    70  LYS70       0.0298
     58  CG         0.7390    9.5060   13.8520 C.3    70  LYS70       0.0038
     59  CD        -0.0580   10.4670   14.7200 C.3    70  LYS70       0.0206
     60  CE         0.7000   10.8670   15.9780 C.3    70  LYS70       0.1093
     61  NZ        -0.1230   11.7000   16.8980 N.3    70  LYS70      -0.1314
     62  N          5.9100   22.4860   14.7520 N.3    93  TYR93      -0.1241
     63  CA         5.3860   21.1360   14.8780 C.3    93  TYR93       0.1605
     64  C          5.0590   20.8120   16.3320 C.2    93  TYR93       0.2264
     65  O          5.8050   21.1900   17.2420 O.2    93  TYR93      -0.2867
     66  CB         6.4250   20.1570   14.3700 C.3    93  TYR93       0.0534
     67  CG         6.1220   18.6990   14.6420 C.ar   93  TYR93      -0.0201
     68  CD1        5.1720   18.0220   13.8900 C.ar   93  TYR93      -0.0009
     69  CD2        6.8060   17.9980   15.6320 C.ar   93  TYR93      -0.0009
     70  CE1        4.9040   16.6800   14.1160 C.ar   93  TYR93       0.0417
     71  CE2        6.5460   16.6530   15.8610 C.ar   93  TYR93       0.0417
     72  CZ         5.5930   16.0050   15.1040 C.ar   93  TYR93       0.1957
     73  OH         5.3490   14.6670   15.3160 O.3    93  TYR93      -0.2866
     74  N          3.5240   17.4510   18.8680 N.3    95  VAL95      -0.1231
     75  CA         3.1600   16.0390   19.0170 C.3    95  VAL95       0.1692
     76  C          3.0660   15.6600   20.4960 C.2    95  VAL95       0.2593
     77  O          3.8470   16.1360   21.3310 O.2    95  VAL95      -0.2718
     78  CB         4.1050   15.0920   18.2160 C.3    95  VAL95       0.0266
     79  CG1        5.5250   15.0820   18.7720 C.3    95  VAL95       0.0020
     80  CG2        3.5500   13.6750   18.1360 C.3    95  VAL95       0.0020
     81  N          2.0800   14.8210   20.8000 N.am   96  THR96      -0.1939
     82  CA         1.9150   14.2420   22.1240 C.3    96  THR96       0.2028
     83  C          1.9980   12.7330   21.9700 C.2    96  THR96       0.2642
     84  O          1.3600   12.1560   21.0860 O.2    96  THR96      -0.2714
     85  CB         0.5640   14.6370   22.7490 C.3    96  THR96       0.1808
     86  OG1        0.5360   16.0530   22.9620 O.3    96  THR96      -0.2208
     87  CG2        0.3400   13.9290   24.0950 C.3    96  THR96       0.0379
     88  N          2.8120   12.1000   22.8070 N.am   97  PHE97      -0.1959
     89  CA         2.8280   10.6460   22.8770 C.3    97  PHE97       0.1771
     90  C          2.8740   10.1980   24.3240 C.2    97  PHE97       0.2620
     91  O          3.3600   10.9230   25.1940 O.2    97  PHE97      -0.2715
     92  CB         3.9910   10.0490   22.0740 C.3    97  PHE97       0.0574
     93  CG         5.3530   10.5260   22.5060 C.ar   97  PHE97      -0.0200
     94  CD1        6.0790    9.8320   23.4730 C.ar   97  PHE97      -0.0042
     95  CD2        5.9240   11.6560   21.9280 C.ar   97  PHE97      -0.0042
     96  CE1        7.3390   10.2650   23.8640 C.ar   97  PHE97      -0.0003
     97  CE2        7.1840   12.0890   22.3130 C.ar   97  PHE97      -0.0003
     98  CZ         7.8930   11.3950   23.2820 C.ar   97  PHE97      -0.0000
     99  N          2.3570    9.0010   24.5690 N.am   98  PHE98      -0.1960
    100  CA         2.3400    8.4370   25.9000 C.3    98  PHE98       0.1771
    101  C          3.4540    7.4110   26.0130 C.2    98  PHE98       0.2619
    102  O          3.5880    6.5280   25.1620 O.2    98  PHE98      -0.2715
    103  CB         0.9780    7.7980   26.1860 C.3    98  PHE98       0.0574
    104  CG         0.7870    7.3900   27.6200 C.ar   98  PHE98      -0.0200
    105  CD1        0.4220    8.3270   28.5820 C.ar   98  PHE98      -0.0042
    106  CD2        0.9640    6.0650   28.0090 C.ar   98  PHE98      -0.0042
    107  CE1        0.2450    7.9510   29.9060 C.ar   98  PHE98      -0.0003
    108  CE2        0.7880    5.6850   29.3300 C.ar   98  PHE98      -0.0003
    109  CZ         0.4250    6.6290   30.2780 C.ar   98  PHE98      -0.0000
    110  N          4.2640    7.5490   27.0560 N.am   99  VAL99      -0.1963
    111  CA         5.3200    6.5840   27.3350 C.3    99  VAL99       0.1727
    112  C          4.7800    5.5210   28.2920 C.2    99  VAL99       0.2616
    113  O          4.4370    5.8260   29.4350 O.2    99  VAL99      -0.2715
    114  CB         6.5760    7.2630   27.9240 C.3    99  VAL99       0.0290
    115  CG1        7.6910    6.2470   28.1300 C.3    99  VAL99       0.0023
    116  CG2        7.0510    8.3830   27.0120 C.3    99  VAL99       0.0023
    117  N          4.7070    4.2820   27.8050 N.am  100  GLU100     -0.1977
    118  CA         4.1880    3.1440   28.5700 C.3   100  GLU100      0.1602
    119  C          5.0880    2.7550   29.7430 C.2   100  GLU100      0.2287
    120  O          6.2740    3.0940   29.7650 O.2   100  GLU100     -0.2864
    121  CB         4.0100    1.9300   27.6540 C.3   100  GLU100      0.0415
    122  CG         2.8130    2.0010   26.7210 C.3   100  GLU100      0.1163
    123  CD         2.6040    0.7110   25.9450 C.2   100  GLU100      0.3649
    124  OE1        2.6110   -0.3750   26.5700 O.co2 100  GLU100     -0.2457
    125  OE2        2.4280    0.7820   24.7080 O.co2 100  GLU100     -0.2457
    126  N          8.1010    0.5380   28.9010 N.3   103  THR103     -0.1218
    127  CA         9.2850    1.1930   28.3520 C.3   103  THR103      0.1862
    128  C         10.4720    1.0020   29.2980 C.2   103  THR103      0.2287
    129  O         10.3750    1.3210   30.4900 O.2   103  THR103     -0.2866
    130  CB         9.0440    2.7010   28.1130 C.3   103  THR103      0.1770
    131  OG1        7.8550    2.8820   27.3350 O.3   103  THR103     -0.2211
    132  CG2       10.2230    3.3350   27.3780 C.3   103  THR103      0.0375
    133  N         20.1070    7.3570   26.6040 N.3   108  LEU108     -0.1245
    134  CA        20.5360    7.2470   25.2130 C.3   108  LEU108      0.1561
    135  C         20.4850    8.5990   24.5100 C.2   108  LEU108      0.2260
    136  O         19.7280    9.4910   24.9110 O.2   108  LEU108     -0.2867
    137  CB        19.6710    6.2300   24.4550 C.3   108  LEU108      0.0270
    138  CG        18.2760    6.6150   23.9420 C.3   108  LEU108      0.0019
    139  CD1       17.7130    5.4840   23.0910 C.3   108  LEU108      0.0001
    140  CD2       17.3060    6.9790   25.0570 C.3   108  LEU108      0.0001
    141  N         19.2630   10.6440   21.3540 N.3   110  ILE110     -0.1245
    142  CA        18.1670   10.5510   20.4090 C.3   110  ILE110      0.1561
    143  C         18.4950   11.4590   19.2330 C.2   110  ILE110      0.2260
    144  O         18.9970   12.5700   19.4260 O.2   110  ILE110     -0.2867
    145  CB        16.8290   10.9360   21.0790 C.3   110  ILE110      0.0252
    146  CG1       16.4050    9.8250   22.0450 C.3   110  ILE110      0.0019
    147  CG2       15.7410   11.1870   20.0380 C.3   110  ILE110      0.0019
    148  CD1       15.3220   10.2300   23.0180 C.3   110  ILE110      0.0001
    149  N         16.5890   12.9720   15.7410 N.3   112  TRP112     -0.1241
    150  CA        15.2490   13.1420   15.2100 C.3   112  TRP112      0.1605
    151  C         15.3170   14.0630   14.0090 C.2   112  TRP112      0.2264
    152  O         15.8210   15.1880   14.1090 O.2   112  TRP112     -0.2867
    153  CB        14.3530   13.7130   16.3130 C.3   112  TRP112      0.0550
    154  CG        12.9530   14.0670   15.9190 C.ar  112  TRP112      0.0003
    155  CD1       12.0920   13.3260   15.1540 C.ar  112  TRP112      0.0946
    156  CD2       12.2260   15.2320   16.3300 C.ar  112  TRP112      0.0152
    157  NE1       10.8870   13.9740   15.0380 N.ar  112  TRP112     -0.2442
    158  CE2       10.9390   15.1460   15.7500 C.ar  112  TRP112      0.0810
    159  CE3       12.5440   16.3490   17.1190 C.ar  112  TRP112      0.0012
    160  CZ2        9.9620   16.1360   15.9330 C.ar  112  TRP112      0.0191
    161  CZ3       11.5660   17.3350   17.3080 C.ar  112  TRP112      0.0001
    162  CH2       10.2910   17.2200   16.7100 C.ar  112  TRP112      0.0015
    163  N         19.9510   14.9520   20.9160 N.3   127  PHE127     -0.1241
    164  CA        20.0080   15.3020   22.3370 C.3   127  PHE127      0.1605
    165  C         20.1080   14.0630   23.2220 C.2   127  PHE127      0.2264
    166  O         19.6820   12.9700   22.8130 O.2   127  PHE127     -0.2867
    167  CB        18.8020   16.1700   22.7290 C.3   127  PHE127      0.0534
    168  CG        17.4810   15.4690   22.6180 C.ar  127  PHE127     -0.0203
    169  CD1       16.8260   15.3760   21.3940 C.ar  127  PHE127     -0.0042
    170  CD2       16.8810   14.9240   23.7450 C.ar  127  PHE127     -0.0042
    171  CE1       15.5980   14.7380   21.3040 C.ar  127  PHE127     -0.0003
    172  CE2       15.6620   14.2820   23.6640 C.ar  127  PHE127     -0.0003
    173  CZ        15.0200   14.1880   22.4370 C.ar  127  PHE127     -0.0000
    174  N         15.1980    7.9180   30.1120 N.3   131  ILE131     -0.1245
    175  CA        13.8580    7.4230   30.3700 C.3   131  ILE131      0.1561
    176  C         13.8430    6.9320   31.8090 C.2   131  ILE131      0.2260
    177  O         14.6520    6.0760   32.1780 O.2   131  ILE131     -0.2867
    178  CB        13.4670    6.2930   29.3960 C.3   131  ILE131      0.0252
    179  CG1       13.6340    6.7650   27.9460 C.3   131  ILE131      0.0019
    180  CG2       12.0370    5.8350   29.6660 C.3   131  ILE131      0.0019
    181  CD1       13.6350    5.6590   26.9130 C.3   131  ILE131      0.0001
@<TRIPOS>BOND
     1    55    56    2
     2    55    54    1
     3    54    57    1
     4    54    53    1
     5    47    46    2
     6    39    38    2
     7    57    58    1
     8    24    25    1
     9    46    53   am
    10    46    45    1
    11    42    41    1
    12    36    37    1
    13    36    31   am
    14    58    59    1
    15    40    41    1
    16    40    37    1
    17    68    70   ar
    18    68    67   ar
    19    38    37    1
    20    38    44   am
    21    30    33    1
    22    30    31    1
    23    30    29    1
    24    33    34    1
    25   151   152    2
    26   151   150    1
    27    70    72   ar
    28    27    26    2
    29    41    43    1
    30    66    67    1
    31    66    63    1
    32    45    44    1
    33    45    48    1
    34    25    26    1
    35    25    28    1
    36    31    32    2
    37    67    69   ar
    38    29    35    1
    39    59    60    1
    40    62    63    1
    41    63    64    1
    42   157   155   ar
    43   157   158   ar
    44    72    73    1
    45    72    71   ar
    46   155   154   ar
    47   150   149    1
    48   150   153    1
    49    34    35    1
    50    69    71   ar
    51    48    49    1
    52   158   160   ar
    53   158   156   ar
    54   154   153    1
    55   154   156   ar
    56   160   162   ar
    57    60    61    1
    58   156   159   ar
    59    64    65    2
    60    49    50    1
    61   162   161   ar
    62   159   161   ar
    63    50    51    1
    64    80    78    1
    65    78    79    1
    66    78    75    1
    67    52    51    1
    68    74    75    1
    69    75    76    1
    70   143   144    2
    71   143   142    1
    72   147   145    1
    73    20    19    2
    74   142   145    1
    75   142   141    1
    76    76    81   am
    77    76    77    2
    78    22    21    1
    79    81    82    1
    80   163   164    1
    81    19    18    1
    82   145   146    1
    83    84    83    2
    84   171   169   ar
    85   171   173   ar
    86    21    18    1
    87    21    23    1
    88   169   168   ar
    89    95    97   ar
    90    95    93   ar
    91    83    82    1
    92    83    88   am
    93   146   148    1
    94    18    17    1
    95    92    93    1
    96    92    89    1
    97    82    85    1
    98    97    98   ar
    99   164   167    1
   100   164   165    1
   101   173   172   ar
   102    93    94   ar
   103   168   167    1
   104   168   170   ar
   105    85    86    1
   106    85    87    1
   107    88    89    1
   108   166   165    2
   109    89    90    1
   110   139   138    1
   111    98    96   ar
   112    94    96   ar
   113   172   170   ar
   114     8     6    1
   115   138   137    1
   116   138   140    1
   117     6     5    1
   118    90    99   am
   119    90    91    2
   120   137   134    1
   121   135   136    2
   122   135   134    1
   123    99   100    1
   124   125   123   ar
   125     1     2    1
   126   102   101    2
   127   134   133    1
   128     5     2    1
   129     5     7    1
   130     2     3    1
   131   100   101    1
   132   100   103    1
   133   123   124   ar
   134   123   122    1
   135   101   110   am
   136   103   104    1
   137   122   121    1
   138    16    14    1
   139   181   179    1
   140     3     4    2
   141   116   114    1
   142   110   111    1
   143   131   130    1
   144   111   114    1
   145   111   112    1
   146   132   130    1
   147    14    13    1
   148   104   106   ar
   149   104   105   ar
   150   121   118    1
   151   117   112   am
   152   117   118    1
   153    15    13    1
   154   114   115    1
   155   179   178    1
   156   106   108   ar
   157   130   127    1
   158   112   113    2
   159   127   126    1
   160   127   128    1
   161    13    10    1
   162   118   119    1
   163   105   107   ar
   164   128   129    2
   165   108   109   ar
   166   178   180    1
   167   178   175    1
   168   119   120    2
   169    10     9    1
   170    10    11    1
   171   107   109   ar
   172   174   175    1
   173   175   176    1
   174    11    12    2
   175   176   177    2
