@<TRIPOS>MOLECULE
tmp/3wecA01.pdb
 197 187 0 0 0
SMALL
GASTEIGER

@<TRIPOS>ATOM
      1  N         11.3920   14.1530   18.3160 N.3    56  LYS56      -0.1245
      2  CA        10.2400   13.5750   19.0310 C.3    56  LYS56       0.1561
      3  C         10.1260   14.0680   20.4680 C.2    56  LYS56       0.2260
      4  O          9.3730   13.5060   21.2580 O.2    56  LYS56      -0.2867
      5  CB        10.3070   12.0450   19.0220 C.3    56  LYS56       0.0271
      6  CG        10.0680   11.3970   17.6700 C.3    56  LYS56       0.0035
      7  CD         9.8200    9.8890   17.7800 C.3    56  LYS56       0.0206
      8  CE         8.3730    9.5600   18.0700 C.3    56  LYS56       0.1093
      9  NZ         8.0550    8.1420   17.7680 N.3    56  LYS56      -0.1314
     10  N          8.3650   15.6060   22.3450 N.3    58  PHE58      -0.1241
     11  CA         6.9960   16.1300   22.3510 C.3    58  PHE58       0.1605
     12  C          6.5420   16.9230   23.5960 C.2    58  PHE58       0.2264
     13  O          5.7340   17.8330   23.4790 O.2    58  PHE58      -0.2867
     14  CB         6.0130   15.0140   21.9950 C.3    58  PHE58       0.0534
     15  CG         5.6990   14.9420   20.5240 C.ar   58  PHE58      -0.0203
     16  CD1        4.6170   15.6600   19.9920 C.ar   58  PHE58      -0.0042
     17  CD2        6.4850   14.1840   19.6690 C.ar   58  PHE58      -0.0042
     18  CE1        4.3180   15.6060   18.6370 C.ar   58  PHE58      -0.0003
     19  CE2        6.1970   14.1300   18.3120 C.ar   58  PHE58      -0.0003
     20  CZ         5.1160   14.8370   17.7950 C.ar   58  PHE58      -0.0000
     21  N          3.0260   21.7800   20.9350 N.3    63  PHE63      -0.1227
     22  CA         1.9280   21.0630   20.2880 C.3    63  PHE63       0.1736
     23  C          0.7010   20.7930   21.1630 C.2    63  PHE63       0.2595
     24  O         -0.4400   20.9430   20.6980 O.2    63  PHE63      -0.2718
     25  CB         2.3970   19.7610   19.6390 C.3    63  PHE63       0.0547
     26  CG         1.2710   18.9370   19.0990 C.ar   63  PHE63      -0.0202
     27  CD1        0.4690   19.4280   18.0770 C.ar   63  PHE63      -0.0042
     28  CD2        0.9870   17.6950   19.6390 C.ar   63  PHE63      -0.0042
     29  CE1       -0.5900   18.6870   17.5950 C.ar   63  PHE63      -0.0003
     30  CE2       -0.0650   16.9480   19.1580 C.ar   63  PHE63      -0.0003
     31  CZ        -0.8550   17.4460   18.1360 C.ar   63  PHE63      -0.0000
     32  N          0.9320   20.3850   22.4080 N.am   64  PHE64      -0.1976
     33  CA        -0.1680   20.0450   23.3130 C.3    64  PHE64       0.1639
     34  C         -0.8450   21.2880   23.8280 C.2    64  PHE64       0.2290
     35  O         -2.0730   21.3280   23.9630 O.2    64  PHE64      -0.2864
     36  CB         0.3110   19.1910   24.4760 C.3    64  PHE64       0.0560
     37  CG         0.9200   17.8900   24.0460 C.ar   64  PHE64      -0.0200
     38  CD1        0.1550   16.9430   23.3880 C.ar   64  PHE64      -0.0042
     39  CD2        2.2600   17.6210   24.2890 C.ar   64  PHE64      -0.0042
     40  CE1        0.7100   15.7450   22.9700 C.ar   64  PHE64      -0.0003
     41  CE2        2.8230   16.4190   23.8870 C.ar   64  PHE64      -0.0003
     42  CZ         2.0520   15.4840   23.2260 C.ar   64  PHE64      -0.0000
     43  N         -1.5140   10.5770   28.7910 N.3    78  PHE78      -0.1227
     44  CA        -0.8600   10.2870   27.5290 C.3    78  PHE78       0.1736
     45  C          0.6450   10.0790   27.7350 C.2    78  PHE78       0.2595
     46  O          1.3070   10.9040   28.3950 O.2    78  PHE78      -0.2718
     47  CB        -1.1580   11.4310   26.5530 C.3    78  PHE78       0.0547
     48  CG        -0.5440   11.2670   25.1920 C.ar   78  PHE78      -0.0202
     49  CD1        0.2440   12.2790   24.6560 C.ar   78  PHE78      -0.0042
     50  CD2       -0.7540   10.1150   24.4390 C.ar   78  PHE78      -0.0042
     51  CE1        0.8000   12.1420   23.3950 C.ar   78  PHE78      -0.0003
     52  CE2       -0.1830    9.9730   23.1790 C.ar   78  PHE78      -0.0003
     53  CZ         0.5970   10.9890   22.6580 C.ar   78  PHE78      -0.0000
     54  N          1.1450    8.9470   27.2170 N.am   79  LEU79      -0.1980
     55  CA         2.5910    8.6680   27.1060 C.3    79  LEU79       0.1596
     56  C          3.2570    9.8720   26.4730 C.2    79  LEU79       0.2287
     57  O          2.8180   10.3360   25.4250 O.2    79  LEU79      -0.2864
     58  CB         2.8530    7.4590   26.1930 C.3    79  LEU79       0.0297
     59  CG         3.3350    6.0640   26.6100 C.3    79  LEU79       0.0022
     60  CD1        3.9400    5.3700   25.3900 C.3    79  LEU79       0.0001
     61  CD2        4.3380    6.0660   27.7510 C.3    79  LEU79       0.0001
     62  N         10.5740    7.4260   27.8190 N.3    90  PHE90      -0.1227
     63  CA         9.5530    6.9730   26.8690 C.3    90  PHE90       0.1736
     64  C          9.9800    7.0480   25.3830 C.2    90  PHE90       0.2595
     65  O          9.1460    6.8540   24.4690 O.2    90  PHE90      -0.2718
     66  CB         8.2370    7.7540   27.0660 C.3    90  PHE90       0.0547
     67  CG         7.5640    7.5060   28.3870 C.ar   90  PHE90      -0.0202
     68  CD1        7.7280    6.2960   29.0660 C.ar   90  PHE90      -0.0042
     69  CD2        6.7340    8.4800   28.9440 C.ar   90  PHE90      -0.0042
     70  CE1        7.0960    6.0770   30.2840 C.ar   90  PHE90      -0.0003
     71  CE2        6.0890    8.2620   30.1570 C.ar   90  PHE90      -0.0003
     72  CZ         6.2700    7.0620   30.8270 C.ar   90  PHE90      -0.0000
     73  N         11.2620    7.3590   25.1440 N.am   91  MET91      -0.1965
     74  CA        11.8080    7.4770   23.7810 C.3    91  MET91       0.1736
     75  C         11.1570    8.5950   22.9780 C.2    91  MET91       0.2616
     76  O         11.3210    8.6420   21.7570 O.2    91  MET91      -0.2715
     77  CB        11.6400    6.1600   22.9950 C.3    91  MET91       0.0427
     78  CG        12.1100    4.8860   23.6840 C.3    91  MET91       0.0599
     79  SD        13.8570    4.5100   23.5520 S.3    91  MET91      -0.1393
     80  CE        13.9770    3.1260   24.6890 C.3    91  MET91       0.0692
     81  N         10.3630    9.4510   23.6360 N.am   92  LEU92      -0.1977
     82  CA         9.9180   10.7260   23.0530 C.3    92  LEU92       0.1596
     83  C         11.0130   11.7530   23.2680 C.2    92  LEU92       0.2287
     84  O         10.8570   12.7560   23.9870 O.2    92  LEU92      -0.2864
     85  CB         8.5910   11.2050   23.6400 C.3    92  LEU92       0.0297
     86  CG         7.3470   10.3380   23.3900 C.3    92  LEU92       0.0022
     87  CD1        6.1560   11.2650   23.3200 C.3    92  LEU92       0.0001
     88  CD2        7.3980    9.5230   22.1100 C.3    92  LEU92       0.0001
     89  N         -1.5910    5.1830   24.8190 N.3   176  LEU176     -0.1231
     90  CA        -0.7750    5.2790   23.5870 C.3   176  LEU176      0.1693
     91  C         -1.3810    6.3430   22.6840 C.2   176  LEU176      0.2592
     92  O         -0.7080    6.9480   21.9040 O.2   176  LEU176     -0.2718
     93  CB        -0.7900    3.9480   22.7850 C.3   176  LEU176      0.0284
     94  CG         0.5110    3.3180   22.1970 C.3   176  LEU176      0.0019
     95  CD1        0.1850    2.1720   21.2520 C.3   176  LEU176      0.0001
     96  CD2        1.5390    4.3200   21.6310 C.3   176  LEU176      0.0001
     97  N         -2.6840    6.5420   22.7720 N.am  177  ASP177     -0.1960
     98  CA        -3.3230    7.4180   21.8180 C.3   177  ASP177      0.1840
     99  C         -3.8520    8.6570   22.5380 C.2   177  ASP177      0.2621
    100  O         -4.0090    8.6650   23.7760 O.2   177  ASP177     -0.2715
    101  CB        -4.3970    6.6280   21.0400 C.3   177  ASP177      0.1450
    102  CG        -4.7580    7.2450   19.6620 C.2   177  ASP177      0.3671
    103  OD1       -4.3670    8.3840   19.3060 O.co2 177  ASP177     -0.2456
    104  OD2       -5.5230    6.5880   18.9300 O.co2 177  ASP177     -0.2456
    105  N         -4.0990    9.7170   21.7730 N.am  178  ILE178     -0.1977
    106  CA        -4.7710   10.8840   22.3090 C.3   178  ILE178      0.1596
    107  C         -6.2740   10.7160   22.0940 C.2   178  ILE178      0.2287
    108  O         -6.7060   10.4450   20.9780 O.2   178  ILE178     -0.2864
    109  CB        -4.2810   12.1950   21.6390 C.3   178  ILE178      0.0276
    110  CG1       -2.7440   12.2050   21.5280 C.3   178  ILE178      0.0022
    111  CG2       -4.8560   13.4180   22.3750 C.3   178  ILE178      0.0022
    112  CD1       -2.1440   13.5640   21.1910 C.3   178  ILE178      0.0001
    113  N          6.7010    1.7490   29.3020 N.3   239  LEU239     -0.1245
    114  CA         6.6400    2.1480   27.8890 C.3   239  LEU239      0.1561
    115  C          6.3820    0.9160   27.0220 C.2   239  LEU239      0.2260
    116  O          5.5180    0.8960   26.1190 O.2   239  LEU239     -0.2867
    117  CB         7.9210    2.8760   27.4580 C.3   239  LEU239      0.0270
    118  CG         8.2430    2.8280   25.9650 C.3   239  LEU239      0.0019
    119  CD1        7.2150    3.7420   25.2790 C.3   239  LEU239      0.0001
    120  CD2        9.6350    3.3600   25.6790 C.3   239  LEU239      0.0001
    121  N          3.4060    0.4530   24.6060 N.3   243  ALA243     -0.1245
    122  CA         3.8090    0.3210   23.2370 C.3   243  ALA243      0.1562
    123  C          3.3000   -0.9250   22.5540 C.2   243  ALA243      0.2260
    124  O          2.6980   -0.8150   21.5070 O.2   243  ALA243     -0.2867
    125  CB         5.3540    0.5460   23.0520 C.3   243  ALA243      0.0290
    126  N         -1.2050   -1.5510   19.5180 N.3   247  THR247     -0.1218
    127  CA        -0.6290   -1.7760   18.2030 C.3   247  THR247      0.1862
    128  C         -0.8540   -3.2470   17.7920 C.2   247  THR247      0.2287
    129  O         -1.2520   -3.5060   16.6700 O.2   247  THR247     -0.2866
    130  CB         0.9060   -1.5080   18.1770 C.3   247  THR247      0.1770
    131  OG1        1.5330   -2.2010   19.2820 O.3   247  THR247     -0.2211
    132  CG2        1.1720   -0.0400   18.2680 C.3   247  THR247      0.0375
    133  N         -1.3040    1.9600   13.6600 N.3   290  ALA290     -0.1245
    134  CA        -1.0900    3.3800   13.8200 C.3   290  ALA290      0.1562
    135  C         -1.1220    4.0730   12.4530 C.2   290  ALA290      0.2260
    136  O         -0.2620    3.8140   11.6240 O.2   290  ALA290     -0.2867
    137  CB         0.2340    3.6590   14.5230 C.3   290  ALA290      0.0290
    138  N         -0.8410    7.3790   12.1340 N.3   292  GLU292     -0.1231
    139  CA         0.1970    8.4200   12.2370 C.3   292  GLU292      0.1699
    140  C          1.3720    8.2250   13.2090 C.2   292  GLU292      0.2592
    141  O          1.2450    7.5840   14.2650 O.2   292  GLU292     -0.2718
    142  CB        -0.4120    9.7810   12.4680 C.3   292  GLU292      0.0402
    143  CG        -1.4940    9.8570   13.5130 C.3   292  GLU292      0.1161
    144  CD        -2.2890   11.1410   13.3450 C.2   292  GLU292      0.3649
    145  OE1       -2.4980   11.5450   12.1810 O.co2 292  GLU292     -0.2457
    146  OE2       -2.6750   11.7670   14.3550 O.co2 292  GLU292     -0.2457
    147  N          2.5220    8.7580   12.7820 N.am  293  ALA293     -0.1966
    148  CA         3.7020    8.9680   13.6130 C.3   293  ALA293      0.1728
    149  C          3.8640   10.5020   13.7500 C.2   293  ALA293      0.2616
    150  O          3.4260   11.2430   12.8680 O.2   293  ALA293     -0.2715
    151  CB         4.9210    8.3750   12.9400 C.3   293  ALA293      0.0334
    152  N          4.4700   10.9830   14.8360 N.am  294  GLY294     -0.1955
    153  CA         4.6040   12.4310   15.0380 C.3   294  GLY294      0.1869
    154  C          6.0460   12.9290   15.0290 C.2   294  GLY294      0.2309
    155  O          6.9350   12.2220   15.5040 O.2   294  GLY294     -0.2863
    156  N          2.5100   15.6050   11.4440 N.3   315  MET315     -0.1245
    157  CA         1.7930   14.3690   11.5510 C.3   315  MET315      0.1570
    158  C          2.1180   13.5570   10.3090 C.2   315  MET315      0.2261
    159  O          1.7550   13.9510    9.1990 O.2   315  MET315     -0.2867
    160  CB         0.3080   14.7100   11.5380 C.3   315  MET315      0.0387
    161  CG        -0.4910   14.0170   12.5960 C.3   315  MET315      0.0595
    162  SD         0.0220   14.6110   14.2120 S.3   315  MET315     -0.1393
    163  CE        -1.3840   15.6850   14.5170 C.3   315  MET315      0.0692
    164  N          1.4220    7.4460    7.9710 N.3   318  LEU318     -0.1245
    165  CA         1.9110    6.1150    7.6400 C.3   318  LEU318      0.1561
    166  C          0.9290    5.3320    6.7750 C.2   318  LEU318      0.2260
    167  O          1.3340    4.6850    5.7990 O.2   318  LEU318     -0.2867
    168  CB         2.1800    5.3530    8.9350 C.3   318  LEU318      0.0270
    169  CG         2.9880    5.9900   10.0720 C.3   318  LEU318      0.0019
    170  CD1        3.0560    4.9800   11.1970 C.3   318  LEU318      0.0001
    171  CD2        4.4070    6.3420    9.6460 C.3   318  LEU318      0.0001
    172  N          4.7290    1.1730    8.4090 N.3   343  SER343     -0.1217
    173  CA         3.9680    0.9210    9.6410 C.3   343  SER343      0.1889
    174  C          4.7670    0.8940   10.9730 C.2   343  SER343      0.2288
    175  O          4.1890    1.0570   12.0360 O.2   343  SER343     -0.2866
    176  CB         3.0440   -0.2900    9.4810 C.3   343  SER343      0.2089
    177  OG         2.2160   -0.0390    8.3660 O.3   343  SER343     -0.2183
    178  N         -6.9690    9.6030   18.2030 N.3   387  MET387     -0.1230
    179  CA        -6.4350   10.4710   17.1470 C.3   387  MET387      0.1702
    180  C         -5.5500    9.7630   16.1260 C.2   387  MET387      0.2593
    181  O         -5.6740   10.0260   14.9380 O.2   387  MET387     -0.2718
    182  CB        -5.7030   11.6740   17.7440 C.3   387  MET387      0.0401
    183  CG        -6.6390   12.7950   18.1530 C.3   387  MET387      0.0596
    184  SD        -5.8040   14.3760   18.4570 S.3   387  MET387     -0.1393
    185  CE        -4.2310   14.0980   17.5850 C.3   387  MET387      0.0692
    186  N         -4.6370    8.9130   16.5800 N.am  388  GLY388     -0.1942
    187  CA        -3.6670    8.2830   15.6750 C.3   388  GLY388      0.2014
    188  C         -3.7790    6.7660   15.4610 C.2   388  GLY388      0.2638
    189  O         -3.1550    6.2070   14.5570 O.2   388  GLY388     -0.2714
    190  N         -4.5360    6.0780   16.3000 N.am  389  LEU389     -0.1977
    191  CA        -4.6010    4.5890   16.2180 C.3   389  LEU389      0.1596
    192  C         -5.8960    4.1410   15.5780 C.2   389  LEU389      0.2287
    193  O         -6.8940    4.8510   15.6380 O.2   389  LEU389     -0.2864
    194  CB        -4.4670    3.9710   17.6060 C.3   389  LEU389      0.0297
    195  CG        -3.1160    3.5590   18.2250 C.3   389  LEU389      0.0022
    196  CD1       -1.8820    4.1460   17.5840 C.3   389  LEU389      0.0001
    197  CD2       -3.1460    3.7610   19.7480 C.3   389  LEU389      0.0001
@<TRIPOS>BOND
     1   167   166    2
     2   166   165    1
     3   165   164    1
     4   165   168    1
     5   177   176    1
     6   172   173    1
     7   168   169    1
     8   159   158    2
     9   176   173    1
    10   173   174    1
    11   171   169    1
    12   169   170    1
    13   158   157    1
    14   174   175    2
    15   156   157    1
    16   160   157    1
    17   160   161    1
    18   136   135    2
    19   138   139    1
    20   145   144   ar
    21   139   142    1
    22   139   140    1
    23   135   134    1
    24   142   143    1
    25   161   162    1
    26   147   140   am
    27   147   148    1
    28   150   149    2
    29   151   148    1
    30   140   141    2
    31   144   143    1
    32   144   146   ar
    33   148   149    1
    34   133   134    1
    35   149   152   am
    36   134   137    1
    37   162   163    1
    38   189   188    2
    39   152   153    1
    40   181   180    2
    41   154   153    1
    42   154   155    2
    43   188   187    1
    44   188   190   am
    45   192   193    2
    46   192   191    1
    47   187   186    1
    48   180   186   am
    49   180   179    1
    50   191   190    1
    51   191   194    1
    52   129   128    2
    53   179   182    1
    54   179   178    1
    55   196   195    1
    56   185   184    1
    57    29    27   ar
    58    29    31   ar
    59   194   195    1
    60     6     7    1
    61     6     5    1
    62   182   183    1
    63     9     8    1
    64     7     8    1
    65   128   127    1
    66    20    19   ar
    67    20    18   ar
    68    27    26   ar
    69    31    30   ar
    70   183   184    1
    71   130   127    1
    72   130   132    1
    73   130   131    1
    74   127   126    1
    75   195   197    1
    76    19    17   ar
    77     1     2    1
    78    18    16   ar
    79   104   102   ar
    80     5     2    1
    81     2     3    1
    82    26    28   ar
    83    26    25    1
    84    30    28   ar
    85   103   102   ar
    86    25    22    1
    87   102   101    1
    88    17    15   ar
    89    16    15   ar
    90    22    21    1
    91    22    23    1
    92     3     4    2
    93    15    14    1
    94    24    23    2
    95   108   107    2
    96   101    98    1
    97    23    32   am
    98   112   110    1
    99    95    94    1
   100   124   123    2
   101   110   109    1
   102    96    94    1
   103   109   106    1
   104   109   111    1
   105    76    75    2
   106   105   106    1
   107   105    99   am
   108    98    99    1
   109    98    97    1
   110    92    91    2
   111    14    11    1
   112   107   106    1
   113    88    86    1
   114    94    93    1
   115    10    11    1
   116    11    12    1
   117    32    33    1
   118    99   100    2
   119   123   122    1
   120    53    52   ar
   121    53    51   ar
   122    91    97   am
   123    91    90    1
   124    93    90    1
   125    40    42   ar
   126    40    38   ar
   127    75    81   am
   128    75    74    1
   129    77    78    1
   130    77    74    1
   131   125   122    1
   132    82    83    1
   133    82    81    1
   134    82    85    1
   135    52    50   ar
   136    42    41   ar
   137   122   121    1
   138    83    84    2
   139    33    34    1
   140    33    36    1
   141    87    86    1
   142    38    37   ar
   143    86    85    1
   144    51    49   ar
   145    13    12    2
   146    79    78    1
   147    79    80    1
   148    90    89    1
   149    74    73    1
   150    34    35    2
   151    41    39   ar
   152    37    39   ar
   153    37    36    1
   154    50    48   ar
   155    65    64    2
   156    49    48   ar
   157    73    64   am
   158    48    47    1
   159   119   118    1
   160    64    63    1
   161    60    59    1
   162    57    56    2
   163   120   118    1
   164   118   117    1
   165   116   115    2
   166    58    59    1
   167    58    55    1
   168    56    55    1
   169    47    44    1
   170    59    61    1
   171    63    66    1
   172    63    62    1
   173   115   114    1
   174    66    67    1
   175    55    54    1
   176    54    45   am
   177   117   114    1
   178    44    45    1
   179    44    43    1
   180    45    46    2
   181   114   113    1
   182    67    69   ar
   183    67    68   ar
   184    69    71   ar
   185    68    70   ar
   186    71    72   ar
   187    70    72   ar
