@<TRIPOS>MOLECULE
tmp/3weeB00.pdb
 96 95 0 0 0
SMALL
GASTEIGER

@<TRIPOS>ATOM
      1  N        -25.5890   76.2540    5.9300 N.3    11  HIS11      -0.1226
      2  CA       -25.2940   77.5800    5.4170 C.3    11  HIS11       0.1752
      3  C        -24.7230   78.4580    6.5230 C.2    11  HIS11       0.2595
      4  O        -23.6680   79.0570    6.3620 O.2    11  HIS11      -0.2718
      5  CB       -26.5600   78.2070    4.8390 C.3    11  HIS11       0.0759
      6  CG       -26.3120   79.3980    3.9670 C.ar   11  HIS11       0.0818
      7  ND1      -25.8510   79.2910    2.6730 N.ar   11  HIS11      -0.2268
      8  CD2      -26.4670   80.7220    4.2050 C.ar   11  HIS11       0.1154
      9  CE1      -25.7340   80.4990    2.1520 C.ar   11  HIS11       0.1986
     10  NE2      -26.1000   81.3840    3.0610 N.ar   11  HIS11      -0.2212
     11  N        -25.4420   78.5100    7.6450 N.am   12  ARG12      -0.1980
     12  CA       -25.1120   79.3470    8.7950 C.3    12  ARG12       0.1597
     13  C        -24.5320   78.5680    9.9600 C.2    12  ARG12       0.2287
     14  O        -24.8800   77.4140   10.1870 O.2    12  ARG12      -0.2864
     15  CB       -26.3650   80.0580    9.2850 C.3    12  ARG12       0.0334
     16  CG       -26.9810   80.9550    8.2740 C.3    12  ARG12       0.0492
     17  CD       -28.3870   81.3560    8.6470 C.3    12  ARG12       0.2205
     18  NE       -28.7960   82.4500    7.7850 N.pl3  12  ARG12      -0.0865
     19  CZ       -29.1600   82.2910    6.5190 C.cat  12  ARG12       0.5346
     20  NH1      -29.1860   81.0770    5.9820 N.pl3  12  ARG12       0.1354
     21  NH2      -29.5080   83.3430    5.7900 N.pl3  12  ARG12       0.1354
     22  N        -23.0460   85.0530   13.9670 N.3    25  ILE25      -0.1231
     23  CA       -23.6610   84.2940   12.8880 C.3    25  ILE25       0.1692
     24  C        -22.7040   84.3330   11.7020 C.2    25  ILE25       0.2592
     25  O        -22.6410   85.3350   10.9970 O.2    25  ILE25      -0.2718
     26  CB       -25.0270   84.8650   12.4650 C.3    25  ILE25       0.0266
     27  CG1      -25.9390   85.0540   13.6820 C.3    25  ILE25       0.0019
     28  CG2      -25.6610   83.9880   11.3860 C.3    25  ILE25       0.0020
     29  CD1      -27.2540   85.7340   13.3710 C.3    25  ILE25       0.0001
     30  N        -21.9910   83.2370   11.4560 N.am   26  ILE26      -0.1966
     31  CA       -20.9900   83.2000   10.3890 C.3    26  ILE26       0.1712
     32  C        -21.3730   82.1880    9.3090 C.2    26  ILE26       0.2458
     33  O        -22.2560   81.3770    9.5160 O.2    26  ILE26      -0.2730
     34  CB       -19.6040   82.8560   10.9550 C.3    26  ILE26       0.0289
     35  CG1      -19.5680   81.4280   11.4910 C.3    26  ILE26       0.0022
     36  CG2      -19.2270   83.8430   12.0290 C.3    26  ILE26       0.0023
     37  CD1      -18.2410   81.0470   12.1080 C.3    26  ILE26       0.0001
     38  N        -20.7450   82.2640    8.1280 N.am   27  PRO27      -0.2727
     39  CA       -21.0270   81.2200    7.1380 C.3    27  PRO27       0.1402
     40  C        -20.4540   79.8610    7.5380 C.2    27  PRO27       0.2269
     41  O        -19.3830   79.7900    8.1310 O.2    27  PRO27      -0.2865
     42  CB       -20.3560   81.7460    5.8680 C.3    27  PRO27       0.0296
     43  CG       -19.3650   82.7340    6.3380 C.3    27  PRO27       0.0237
     44  CD       -19.9430   83.3560    7.5590 C.3    27  PRO27       0.0939
     45  N        -16.1090   83.6390    8.8120 N.3    45  GLY45      -0.1210
     46  CA       -16.7990   84.9140    8.8830 C.3    45  GLY45       0.1956
     47  C        -17.1370   85.5000    7.5340 C.2    45  GLY45       0.2613
     48  O        -16.3550   85.3460    6.6250 O.2    45  GLY45      -0.2717
     49  N        -18.2890   86.1400    7.3760 N.am   46  THR46      -0.1938
     50  CA       -18.6150   86.7100    6.0790 C.3    46  THR46       0.2028
     51  C        -17.5460   87.7560    5.7850 C.2    46  THR46       0.2642
     52  O        -16.9570   87.7490    4.7080 O.2    46  THR46      -0.2714
     53  CB       -20.0000   87.3540    6.0290 C.3    46  THR46       0.1808
     54  OG1      -20.9800   86.3560    5.7530 O.3    46  THR46      -0.2208
     55  CG2      -20.0660   88.3910    4.9420 C.3    46  THR46       0.0379
     56  N        -17.2070   88.5930    6.7670 N.am   47  TYR47      -0.1959
     57  CA       -16.1360   89.5750    6.5600 C.3    47  TYR47       0.1771
     58  C        -14.9370   88.6680    6.6940 C.2    47  TYR47       0.2619
     59  O        -15.1090   87.5090    7.0170 O.2    47  TYR47      -0.2715
     60  CB       -16.0830   90.6770    7.6320 C.3    47  TYR47       0.0574
     61  CG       -17.4250   91.2230    8.0880 C.ar   47  TYR47      -0.0198
     62  CD1      -18.4600   91.4610    7.2010 C.ar   47  TYR47      -0.0009
     63  CD2      -17.6610   91.4600    9.4320 C.ar   47  TYR47      -0.0009
     64  CE1      -19.6830   91.9330    7.6430 C.ar   47  TYR47       0.0417
     65  CE2      -18.8710   91.9270    9.8790 C.ar   47  TYR47       0.0417
     66  CZ       -19.8760   92.1610    8.9820 C.ar   47  TYR47       0.1957
     67  OH       -21.0770   92.6250    9.4430 O.3    47  TYR47      -0.2866
     68  N        -13.7390   89.1520    6.4210 N.am   48  ASN48      -0.1972
     69  CA       -12.5490   88.3140    6.4930 C.3    48  ASN48       0.1688
     70  C        -12.4970   87.3630    5.3020 C.2    48  ASN48       0.2292
     71  O        -11.5050   87.3310    4.5730 O.2    48  ASN48      -0.2864
     72  CB       -12.5000   87.4830    7.7850 C.3    48  ASN48       0.1181
     73  CG       -12.5070   88.3230    9.0400 C.2    48  ASN48       0.2629
     74  OD1      -11.7680   89.2920    9.1710 O.2    48  ASN48      -0.2716
     75  ND2      -13.3500   87.9380    9.9840 N.am   48  ASN48      -0.0877
     76  N        -12.2440   78.8260   16.8810 N.3    84  TYR84      -0.1241
     77  CA       -12.3600   80.2240   16.4820 C.3    84  TYR84       0.1605
     78  C        -13.4420   80.9210   17.2970 C.2    84  TYR84       0.2264
     79  O        -13.2010   81.9710   17.8870 O.2    84  TYR84      -0.2867
     80  CB       -12.6600   80.3350   14.9870 C.3    84  TYR84       0.0534
     81  CG       -13.0120   81.7260   14.5170 C.ar   84  TYR84      -0.0201
     82  CD1      -12.0290   82.6810   14.3230 C.ar   84  TYR84      -0.0009
     83  CD2      -14.3220   82.0730   14.2300 C.ar   84  TYR84      -0.0009
     84  CE1      -12.3400   83.9430   13.8820 C.ar   84  TYR84       0.0417
     85  CE2      -14.6420   83.3380   13.7840 C.ar   84  TYR84       0.0417
     86  CZ       -13.6430   84.2640   13.6120 C.ar   84  TYR84       0.1957
     87  OH       -13.9470   85.5240   13.1700 O.3    84  TYR84      -0.2866
     88  N        -27.3150   86.7560   -3.3680 N.3   213  GLN213     -0.1245
     89  CA       -28.0650   86.8570   -2.1290 C.3   213  GLN213      0.1566
     90  C        -29.0590   88.0100   -2.1510 C.2   213  GLN213      0.2260
     91  O        -30.2170   87.8630   -1.7430 O.2   213  GLN213     -0.2867
     92  CB       -27.1110   87.0320   -0.9650 C.3   213  GLN213      0.0367
     93  CG       -27.7910   87.3590    0.3220 C.3   213  GLN213      0.0905
     94  CD       -26.8120   87.8790    1.3440 C.2   213  GLN213      0.2608
     95  OE1      -26.1960   87.0940    2.0750 O.2   213  GLN213     -0.2717
     96  NE2      -26.6610   89.2090    1.4130 N.am  213  GLN213     -0.0878
@<TRIPOS>BOND
     1    88    89    1
     2    90    89    1
     3    90    91    2
     4    89    92    1
     5    92    93    1
     6    93    94    1
     7    94    96   am
     8    94    95    2
     9     9     7   ar
    10     9    10   ar
    11     7     6   ar
    12    10     8   ar
    13     6     8   ar
    14     6     5    1
    15    71    70    2
    16    52    51    2
    17     5     2    1
    18    55    53    1
    19    70    69    1
    20     2     1    1
    21     2     3    1
    22    54    53    1
    23    51    50    1
    24    51    56   am
    25    21    19    1
    26    42    43    1
    27    42    39    1
    28    20    19    1
    29    53    50    1
    30    50    49    1
    31    43    44    1
    32     4     3    2
    33    68    69    1
    34    68    58   am
    35    69    72    1
    36    19    18    2
    37     3    11   am
    38    57    58    1
    39    57    56    1
    40    57    60    1
    41    48    47    2
    42    58    59    2
    43    39    40    1
    44    39    38    1
    45    62    64   ar
    46    62    61   ar
    47    49    47   am
    48    47    46    1
    49    40    41    2
    50    44    38    1
    51    60    61    1
    52    64    66   ar
    53    11    12    1
    54    18    17    1
    55    72    73    1
    56    61    63   ar
    57    38    32   am
    58    16    17    1
    59    16    15    1
    60    12    15    1
    61    12    13    1
    62    45    46    1
    63    66    67    1
    64    66    65   ar
    65    73    74    2
    66    73    75   am
    67    32    33    2
    68    32    31    1
    69    63    65   ar
    70    13    14    2
    71    31    34    1
    72    31    30    1
    73    34    35    1
    74    34    36    1
    75    25    24    2
    76    28    26    1
    77    30    24   am
    78    35    37    1
    79    24    23    1
    80    26    23    1
    81    26    27    1
    82    23    22    1
    83    87    86    1
    84    29    27    1
    85    86    85   ar
    86    86    84   ar
    87    85    83   ar
    88    84    82   ar
    89    83    81   ar
    90    82    81   ar
    91    81    80    1
    92    80    77    1
    93    77    76    1
    94    77    78    1
    95    78    79    2
