@<TRIPOS>MOLECULE
tmp/3wefE01.pdb
 193 181 0 0 0
SMALL
GASTEIGER

@<TRIPOS>ATOM
      1  N         -1.5970   39.5800    6.5150 N.3    18  PHE18      -0.1241
      2  CA        -0.9670   39.4800    7.8260 C.3    18  PHE18       0.1605
      3  C         -0.3680   38.1160    8.1710 C.2    18  PHE18       0.2264
      4  O          0.4130   38.0130    9.1180 O.2    18  PHE18      -0.2867
      5  CB        -1.9370   39.9130    8.9320 C.3    18  PHE18       0.0534
      6  CG        -2.3580   41.3630    8.8740 C.ar   18  PHE18      -0.0203
      7  CD1       -1.5730   42.3570    9.4420 C.ar   18  PHE18      -0.0042
      8  CD2       -3.5680   41.7260    8.2890 C.ar   18  PHE18      -0.0042
      9  CE1       -1.9730   43.6920    9.3900 C.ar   18  PHE18      -0.0003
     10  CE2       -3.9820   43.0520    8.2410 C.ar   18  PHE18      -0.0003
     11  CZ        -3.1860   44.0400    8.7920 C.ar   18  PHE18      -0.0000
     12  N          2.4560   37.7740   11.1480 N.3    22  ILE22      -0.1245
     13  CA         1.9430   37.1940   12.3970 C.3    22  ILE22       0.1561
     14  C          2.7900   35.9950   12.7870 C.2    22  ILE22       0.2260
     15  O          3.2630   35.9110   13.9220 O.2    22  ILE22      -0.2867
     16  CB         0.4560   36.7900   12.3190 C.3    22  ILE22       0.0252
     17  CG1       -0.4080   38.0510   12.2210 C.3    22  ILE22       0.0019
     18  CG2        0.0540   35.9390   13.5340 C.3    22  ILE22       0.0019
     19  CD1       -1.8870   37.7820   12.0040 C.3    22  ILE22       0.0001
     20  N         -1.7090   36.3860   18.7340 N.3    33  VAL33      -0.1245
     21  CA        -2.1960   37.1400   17.5800 C.3    33  VAL33       0.1561
     22  C         -2.8760   36.2170   16.5530 C.2    33  VAL33       0.2260
     23  O         -3.9490   36.5510   16.0330 O.2    33  VAL33      -0.2867
     24  CB        -1.0840   38.0120   16.9350 C.3    33  VAL33       0.0252
     25  CG1       -1.6220   38.7790   15.7380 C.3    33  VAL33       0.0019
     26  CG2       -0.5040   39.0050   17.9580 C.3    33  VAL33       0.0019
     27  N         -6.4210   35.5870   17.9000 N.3    36  PHE36      -0.1227
     28  CA        -7.1420   36.8480   17.9000 C.3    36  PHE36       0.1736
     29  C         -7.6060   37.1690   16.4730 C.2    36  PHE36       0.2595
     30  O         -8.7820   37.4850   16.2580 O.2    36  PHE36      -0.2718
     31  CB        -6.2440   37.9290   18.5050 C.3    36  PHE36       0.0547
     32  CG        -6.8770   39.2790   18.6130 C.ar   36  PHE36      -0.0202
     33  CD1       -8.2070   39.4220   19.0010 C.ar   36  PHE36      -0.0042
     34  CD2       -6.1290   40.4250   18.3490 C.ar   36  PHE36      -0.0042
     35  CE1       -8.7740   40.6790   19.1300 C.ar   36  PHE36      -0.0003
     36  CE2       -6.7030   41.6900   18.4790 C.ar   36  PHE36      -0.0003
     37  CZ        -8.0210   41.8110   18.8740 C.ar   36  PHE36      -0.0000
     38  N         -6.7030   37.0140   15.5040 N.am   37  TYR37      -0.1976
     39  CA        -7.0400   37.2350   14.1000 C.3    37  TYR37       0.1639
     40  C         -8.1800   36.3360   13.6400 C.2    37  TYR37       0.2290
     41  O         -9.1170   36.7740   12.9720 O.2    37  TYR37      -0.2864
     42  CB        -5.8370   37.0290   13.1690 C.3    37  TYR37       0.0560
     43  CG        -6.2640   37.1900   11.7260 C.ar   37  TYR37      -0.0198
     44  CD1       -6.7900   36.1180   11.0010 C.ar   37  TYR37      -0.0009
     45  CD2       -6.2110   38.4330   11.1060 C.ar   37  TYR37      -0.0009
     46  CE1       -7.2280   36.2720    9.6970 C.ar   37  TYR37       0.0417
     47  CE2       -6.6550   38.6000    9.8050 C.ar   37  TYR37       0.0417
     48  CZ        -7.1630   37.5190    9.1110 C.ar   37  TYR37       0.1957
     49  OH        -7.5850   37.7030    7.8130 O.3    37  TYR37      -0.2866
     50  N        -11.5380   37.2390   15.3460 N.3    40  LEU40      -0.1231
     51  CA       -12.1010   38.4050   14.6620 C.3    40  LEU40       0.1693
     52  C        -12.5960   38.0660   13.2570 C.2    40  LEU40       0.2591
     53  O        -13.6490   38.5580   12.8260 O.2    40  LEU40      -0.2718
     54  CB       -11.1000   39.5590   14.6120 C.3    40  LEU40       0.0284
     55  CG       -10.7790   40.1230   15.9970 C.3    40  LEU40       0.0019
     56  CD1       -9.7870   41.2760   15.9720 C.3    40  LEU40       0.0001
     57  CD2      -12.0690   40.5600   16.6320 C.3    40  LEU40       0.0001
     58  N        -11.8360   37.2140   12.5670 N.am   41  ARG41      -0.1980
     59  CA       -12.1930   36.8050   11.2170 C.3    41  ARG41       0.1597
     60  C        -13.5270   36.0610   11.2210 C.2    41  ARG41       0.2287
     61  O        -14.3820   36.3180   10.3770 O.2    41  ARG41      -0.2864
     62  CB       -11.0670   35.9890   10.5740 C.3    41  ARG41       0.0334
     63  CG       -11.3720   35.3710    9.2130 C.3    41  ARG41       0.0492
     64  CD       -12.0270   36.3410    8.2380 C.3    41  ARG41       0.2205
     65  NE       -11.0990   37.3110    7.6650 N.pl3  41  ARG41      -0.0865
     66  CZ       -11.4100   38.5850    7.4300 C.cat  41  ARG41       0.5346
     67  NH1      -12.6190   39.0420    7.7340 N.pl3  41  ARG41       0.1354
     68  NH2      -10.5140   39.4100    6.9040 N.pl3  41  ARG41       0.1354
     69  N        -16.2710   38.6390   11.7660 N.3    44  ASP44      -0.1239
     70  CA       -16.5800   39.3740   10.5380 C.3    44  ASP44       0.1674
     71  C        -17.2550   38.5390    9.4580 C.2    44  ASP44       0.2266
     72  O        -18.0080   39.0730    8.6490 O.2    44  ASP44      -0.2867
     73  CB       -15.3450   40.0490    9.9440 C.3    44  ASP44       0.1410
     74  CG       -15.6960   41.2980    9.1400 C.2    44  ASP44       0.3668
     75  OD1      -16.8460   41.4730    8.6740 O.co2  44  ASP44      -0.2456
     76  OD2      -14.7960   42.1470    8.9770 O.co2  44  ASP44      -0.2456
     77  N        -20.8150   38.8800   10.5290 N.3    47  GLU47      -0.1231
     78  CA       -21.3070   40.2210   10.2370 C.3    47  GLU47       0.1699
     79  C        -21.5920   40.4700    8.7530 C.2    47  GLU47       0.2592
     80  O        -22.5240   41.1950    8.4040 O.2    47  GLU47      -0.2718
     81  CB       -20.2990   41.2480   10.7460 C.3    47  GLU47       0.0402
     82  CG       -20.9010   42.6060   11.0630 C.3    47  GLU47       0.1161
     83  CD       -20.7800   43.6030    9.9230 C.2    47  GLU47       0.3649
     84  OE1      -20.4250   43.1930    8.7960 O.co2  47  GLU47      -0.2457
     85  OE2      -21.0440   44.8020   10.1640 O.co2  47  GLU47      -0.2457
     86  N        -20.7850   39.8680    7.8880 N.am   48  ASP48      -0.1974
     87  CA       -20.8720   40.0810    6.4480 C.3    48  ASP48       0.1709
     88  C        -22.0030   39.3260    5.7570 C.2    48  ASP48       0.2293
     89  O        -22.5520   39.7960    4.7610 O.2    48  ASP48      -0.2864
     90  CB       -19.5380   39.7140    5.7890 C.3    48  ASP48       0.1436
     91  CG       -18.5940   40.9010    5.6740 C.2    48  ASP48       0.3671
     92  OD1      -19.0850   41.9960    5.3150 O.co2  48  ASP48      -0.2456
     93  OD2      -17.3730   40.7360    5.9140 O.co2  48  ASP48      -0.2456
     94  N        -25.0080   38.2370    4.2960 N.3    50  MET50      -0.1245
     95  CA       -26.3290   38.8400    4.0970 C.3    50  MET50       0.1570
     96  C        -27.4530   37.8040    4.0210 C.2    50  MET50       0.2261
     97  O        -28.6310   38.1350    4.1830 O.2    50  MET50      -0.2867
     98  CB       -26.3310   39.7710    2.8800 C.3    50  MET50       0.0387
     99  CG       -25.2990   40.8970    2.9670 C.3    50  MET50       0.0595
    100  SD       -25.3730   41.7880    4.5390 S.3    50  MET50      -0.1393
    101  CE       -23.7350   42.5020    4.6670 C.3    50  MET50       0.0692
    102  N        -16.5260   44.6540   20.1250 N.3   114  MET114     -0.1245
    103  CA       -16.6370   44.7550   18.6720 C.3   114  MET114      0.1570
    104  C        -18.0280   44.3490   18.2190 C.2   114  MET114      0.2261
    105  O        -18.6230   45.0140   17.3610 O.2   114  MET114     -0.2867
    106  CB       -15.5960   43.8950   17.9570 C.3   114  MET114      0.0387
    107  CG       -14.3740   44.6920   17.5250 C.3   114  MET114      0.0595
    108  SD       -13.1360   43.8520   16.5030 S.3   114  MET114     -0.1393
    109  CE       -14.1990   43.1590   15.2270 C.3   114  MET114      0.0692
    110  N        -20.6770   46.4120   15.9640 N.3   118  MET118     -0.1245
    111  CA       -21.0270   45.7960   14.6930 C.3   118  MET118      0.1570
    112  C        -22.5470   45.7190   14.5700 C.2   118  MET118      0.2261
    113  O        -23.1150   46.1870   13.5770 O.2   118  MET118     -0.2867
    114  CB       -20.3760   44.4190   14.5540 C.3   118  MET118      0.0387
    115  CG       -18.8640   44.4500   14.3960 C.3   118  MET118      0.0595
    116  SD       -18.0820   42.9670   13.7120 S.3   118  MET118     -0.1393
    117  CE       -19.2810   41.7090   14.1110 C.3   118  MET118      0.0692
    118  N        -17.4850   54.2180   14.1660 N.3   135  TYR135     -0.1241
    119  CA       -17.4990   53.0060   13.3430 C.3   135  TYR135      0.1605
    120  C        -16.0980   52.4220   13.1690 C.2   135  TYR135      0.2264
    121  O        -15.8830   51.2310   13.4130 O.2   135  TYR135     -0.2867
    122  CB       -18.1800   53.2330   11.9830 C.3   135  TYR135      0.0534
    123  CG       -18.0190   52.0640   11.0310 C.ar  135  TYR135     -0.0201
    124  CD1      -18.7720   50.9040   11.1880 C.ar  135  TYR135     -0.0009
    125  CD2      -17.1000   52.1110    9.9870 C.ar  135  TYR135     -0.0009
    126  CE1      -18.6120   49.8230   10.3330 C.ar  135  TYR135      0.0417
    127  CE2      -16.9280   51.0390    9.1330 C.ar  135  TYR135      0.0417
    128  CZ       -17.6900   49.8990    9.3050 C.ar  135  TYR135      0.1957
    129  OH       -17.5260   48.8340    8.4470 O.3   135  TYR135     -0.2866
    130  N        -14.5300   48.6540   14.4540 N.3   139  VAL139     -0.1245
    131  CA       -14.0770   47.6150   13.5360 C.3   139  VAL139      0.1561
    132  C        -12.5600   47.5820   13.4040 C.2   139  VAL139      0.2260
    133  O        -11.9920   46.5790   12.9590 O.2   139  VAL139     -0.2867
    134  CB       -14.7330   47.7390   12.1490 C.3   139  VAL139      0.0252
    135  CG1      -16.2390   47.5710   12.2620 C.3   139  VAL139      0.0019
    136  CG2      -14.3760   49.0660   11.4900 C.3   139  VAL139      0.0019
    137  N         -9.2760   46.6000   17.4150 N.3   143  VAL143     -0.1245
    138  CA        -8.2240   45.6760   16.9950 C.3   143  VAL143      0.1561
    139  C         -6.8330   46.1760   17.4110 C.2   143  VAL143      0.2260
    140  O         -5.9720   45.3900   17.8360 O.2   143  VAL143     -0.2867
    141  CB        -8.2310   45.4380   15.4580 C.3   143  VAL143      0.0252
    142  CG1       -7.1150   44.4530   15.0510 C.3   143  VAL143      0.0019
    143  CG2       -9.5720   44.8840   14.9960 C.3   143  VAL143      0.0019
    144  N         -4.4940   44.4260   20.0930 N.3   147  LEU147     -0.1245
    145  CA        -3.1100   44.0560   19.7990 C.3   147  LEU147      0.1561
    146  C         -2.1300   44.6580   20.7920 C.2   147  LEU147      0.2260
    147  O         -1.2820   43.9420   21.3330 O.2   147  LEU147     -0.2867
    148  CB        -2.6730   44.4020   18.3670 C.3   147  LEU147      0.0270
    149  CG        -3.3600   43.5960   17.2650 C.3   147  LEU147      0.0019
    150  CD1       -3.2460   44.3590   15.9700 C.3   147  LEU147      0.0001
    151  CD2       -2.7730   42.2020   17.1390 C.3   147  LEU147      0.0001
    152  N         -8.2790   52.0320    8.6800 N.3   176  GLN176     -0.1245
    153  CA        -9.6660   51.8470    8.2860 C.3   176  GLN176      0.1566
    154  C        -10.1990   52.9740    7.4140 C.2   176  GLN176      0.2260
    155  O        -10.8290   52.6970    6.3940 O.2   176  GLN176     -0.2867
    156  CB       -10.5770   51.6060    9.4890 C.3   176  GLN176      0.0367
    157  CG       -11.9710   51.1240    9.1070 C.3   176  GLN176      0.0905
    158  CD       -11.9540   49.8160    8.3350 C.2   176  GLN176      0.2608
    159  OE1      -11.1030   48.9580    8.5680 O.2   176  GLN176     -0.2717
    160  NE2      -12.8860   49.6600    7.4040 N.am  176  GLN176     -0.0878
    161  N        -22.4750   49.3000   -0.6310 N.3   192  ARG192     -0.1245
    162  CA       -21.9490   49.7410    0.6580 C.3   192  ARG192      0.1563
    163  C        -21.6710   51.2410    0.6260 C.2   192  ARG192      0.2260
    164  O        -21.1910   51.7780   -0.3770 O.2   192  ARG192     -0.2867
    165  CB       -20.6910   48.9420    1.0210 C.3   192  ARG192      0.0307
    166  CG       -20.9730   47.4580    1.2150 C.3   192  ARG192      0.0489
    167  CD       -19.9270   46.5500    0.5850 C.3   192  ARG192      0.2205
    168  NE       -19.0330   46.0160    1.6030 N.pl3 192  ARG192     -0.0865
    169  CZ       -17.8040   46.4670    1.8310 C.cat 192  ARG192      0.5346
    170  NH1      -17.3080   47.4550    1.0990 N.pl3 192  ARG192      0.1354
    171  NH2      -17.0680   45.9240    2.7910 N.pl3 192  ARG192      0.1354
    172  N        -19.8170   53.8510    3.1630 N.3   194  PHE194     -0.1241
    173  CA       -19.0360   54.0250    4.3740 C.3   194  PHE194      0.1605
    174  C        -18.6190   55.4740    4.5530 C.2   194  PHE194      0.2264
    175  O        -18.3220   55.9050    5.6660 O.2   194  PHE194     -0.2867
    176  CB       -17.8150   53.1120    4.3350 C.3   194  PHE194      0.0534
    177  CG       -18.1410   51.6720    4.5870 C.ar  194  PHE194     -0.0203
    178  CD1      -18.6610   51.2730    5.8140 C.ar  194  PHE194     -0.0042
    179  CD2      -17.9200   50.7160    3.6070 C.ar  194  PHE194     -0.0042
    180  CE1      -18.9680   49.9440    6.0560 C.ar  194  PHE194     -0.0003
    181  CE2      -18.2130   49.3810    3.8420 C.ar  194  PHE194     -0.0003
    182  CZ       -18.7420   48.9930    5.0670 C.ar  194  PHE194     -0.0000
    183  N          5.4880   44.0760   12.0650 N.3   252  PHE252     -0.1241
    184  CA         4.0560   43.7930   12.0170 C.3   252  PHE252      0.1605
    185  C          3.2690   45.1050   11.9880 C.2   252  PHE252      0.2264
    186  O          2.4470   45.3150   11.0990 O.2   252  PHE252     -0.2867
    187  CB         3.6570   42.9170   13.2080 C.3   252  PHE252      0.0534
    188  CG         2.1710   42.7780   13.4010 C.ar  252  PHE252     -0.0203
    189  CD1        1.4590   43.7020   14.1510 C.ar  252  PHE252     -0.0042
    190  CD2        1.4900   41.7060   12.8650 C.ar  252  PHE252     -0.0042
    191  CE1        0.0970   43.5710   14.3420 C.ar  252  PHE252     -0.0003
    192  CE2        0.1280   41.5660   13.0530 C.ar  252  PHE252     -0.0003
    193  CZ        -0.5660   42.4960   13.7880 C.ar  252  PHE252     -0.0000
@<TRIPOS>BOND
     1   161   162    1
     2   164   163    2
     3   167   166    1
     4   167   168    1
     5   163   162    1
     6   162   165    1
     7   165   166    1
     8   170   169    1
     9   168   169    2
    10   169   171    1
    11    98    99    1
    12    98    95    1
    13    99   100    1
    14   172   173    1
    15   179   181   ar
    16   179   177   ar
    17   181   182   ar
    18    96    95    1
    19    96    97    2
    20    95    94    1
    21   176   173    1
    22   176   177    1
    23   173   174    1
    24   100   101    1
    25   174   175    2
    26   177   178   ar
    27    89    88    2
    28   182   180   ar
    29    92    91   ar
    30    91    90    1
    31    91    93   ar
    32    88    87    1
    33    90    87    1
    34   178   180   ar
    35   155   154    2
    36    87    86    1
    37     1     2    1
    38    68    66    1
    39   160   158   am
    40   154   153    1
    41    66    65    2
    42    66    67    1
    43    65    64    1
    44    49    48    1
    45     2     3    1
    46     2     5    1
    47    86    79   am
    48     3     4    2
    49    64    63    1
    50    10     8   ar
    51    10    11   ar
    52   153   152    1
    53   153   156    1
    54     8     6   ar
    55   158   159    2
    56   158   157    1
    57    80    79    2
    58   129   128    1
    59    72    71    2
    60    75    74   ar
    61    79    78    1
    62    11     9   ar
    63    84    83   ar
    64     6     5    1
    65     6     7   ar
    66    76    74   ar
    67   157   156    1
    68    48    46   ar
    69    48    47   ar
    70   127   128   ar
    71   127   125   ar
    72    74    73    1
    73    63    62    1
    74   128   126   ar
    75     9     7   ar
    76    71    70    1
    77    46    44   ar
    78    47    45   ar
    79    83    85   ar
    80    83    82    1
    81    73    70    1
    82   125   123   ar
    83    78    77    1
    84    78    81    1
    85   126   124   ar
    86    61    60    2
    87    70    69    1
    88    62    59    1
    89    81    82    1
    90    44    43   ar
    91   123   124   ar
    92   123   122    1
    93   186   185    2
    94    45    43   ar
    95    12    13    1
    96    59    60    1
    97    59    58    1
    98   136   134    1
    99    43    42    1
   100   122   119    1
   101   185   184    1
   102    19    17    1
   103   184   183    1
   104   184   187    1
   105   134   135    1
   106   134   131    1
   107    17    16    1
   108    16    13    1
   109    16    18    1
   110    13    14    1
   111    58    52   am
   112    14    15    2
   113    53    52    2
   114   190   192   ar
   115   190   188   ar
   116   133   132    2
   117    41    40    2
   118   192   193   ar
   119   120   119    1
   120   120   121    2
   121    42    39    1
   122   187   188    1
   123    52    51    1
   124   119   118    1
   125   188   189   ar
   126   132   131    1
   127   131   130    1
   128   113   112    2
   129    40    39    1
   130   116   117    1
   131   116   115    1
   132   193   191   ar
   133    39    38    1
   134   189   191   ar
   135   115   114    1
   136   114   111    1
   137   112   111    1
   138    54    51    1
   139    54    55    1
   140    51    50    1
   141   111   110    1
   142   143   141    1
   143   142   141    1
   144   109   108    1
   145   141   138    1
   146    38    29   am
   147    25    24    1
   148   150   149    1
   149    56    55    1
   150    55    57    1
   151    23    22    2
   152    30    29    2
   153    29    28    1
   154   108   107    1
   155    22    21    1
   156    24    21    1
   157    24    26    1
   158   138   139    1
   159   138   137    1
   160   151   149    1
   161   149   148    1
   162   105   104    2
   163   139   140    2
   164   107   106    1
   165    21    20    1
   166    27    28    1
   167    28    31    1
   168   106   103    1
   169   104   103    1
   170    34    36   ar
   171    34    32   ar
   172   148   145    1
   173    36    37   ar
   174    31    32    1
   175    32    33   ar
   176   103   102    1
   177    37    35   ar
   178    33    35   ar
   179   145   144    1
   180   145   146    1
   181   146   147    2
