@<TRIPOS>MOLECULE
tmp/3welA00.pdb
 211 206 0 0 0
SMALL
GASTEIGER

@<TRIPOS>ATOM
      1  N          7.9680   -3.7320  -18.3560 N.3   176  ASP176     -0.1225
      2  CA         6.6660   -3.8810  -18.9930 C.3   176  ASP176      0.1805
      3  C          6.4940   -2.7200  -19.9620 C.2   176  ASP176      0.2598
      4  O          5.7590   -1.7680  -19.6890 O.2   176  ASP176     -0.2718
      5  CB         5.5540   -3.8660  -17.9360 C.3   176  ASP176      0.1424
      6  CG         4.1930   -4.1850  -18.5090 C.2   176  ASP176      0.3668
      7  OD1        4.0520   -4.2600  -19.7580 O.co2 176  ASP176     -0.2456
      8  OD2        3.2520   -4.3520  -17.7070 O.co2 176  ASP176     -0.2456
      9  N          7.1830   -2.8010  -21.0890 N.am  177  ILE177     -0.1966
     10  CA         7.0970   -1.7820  -22.1300 C.3   177  ILE177      0.1727
     11  C          6.6830   -2.5120  -23.4100 C.2   177  ILE177      0.2616
     12  O          7.2400   -3.5670  -23.7350 O.2   177  ILE177     -0.2715
     13  CB         8.4430   -1.0890  -22.3140 C.3   177  ILE177      0.0290
     14  CG1        8.7820   -0.2370  -21.0830 C.3   177  ILE177      0.0022
     15  CG2        8.4430   -0.2100  -23.5670 C.3   177  ILE177      0.0023
     16  CD1       10.2020    0.2810  -21.0990 C.3   177  ILE177      0.0001
     17  N          5.6910   -1.9830  -24.1220 N.am  178  ALA178     -0.1977
     18  CA         5.0850   -2.7410  -25.2190 C.3   178  ALA178      0.1597
     19  C          6.0490   -2.8920  -26.3800 C.2   178  ALA178      0.2287
     20  O          6.7990   -1.9650  -26.7040 O.2   178  ALA178     -0.2864
     21  CB         3.8060   -2.0970  -25.6790 C.3   178  ALA178      0.0319
     22  N          5.3560   -2.9350  -29.3740 N.3   180  PHE180     -0.1227
     23  CA         5.0360   -2.0200  -30.4920 C.3   180  PHE180      0.1736
     24  C          5.9220   -0.7710  -30.5090 C.2   180  PHE180      0.2595
     25  O          6.0060   -0.0820  -31.5270 O.2   180  PHE180     -0.2718
     26  CB         3.5240   -1.6960  -30.6350 C.3   180  PHE180      0.0547
     27  CG         2.8640   -1.0920  -29.4120 C.ar  180  PHE180     -0.0202
     28  CD1        3.1880    0.1910  -28.9630 C.ar  180  PHE180     -0.0042
     29  CD2        1.8370   -1.7730  -28.7780 C.ar  180  PHE180     -0.0042
     30  CE1        2.5370    0.7440  -27.8560 C.ar  180  PHE180     -0.0003
     31  CE2        1.1790   -1.2270  -27.6830 C.ar  180  PHE180     -0.0003
     32  CZ         1.5270    0.0390  -27.2170 C.ar  180  PHE180     -0.0000
     33  N          6.6010   -0.5140  -29.3900 N.am  181  ASN181     -0.1974
     34  CA         7.6130    0.5450  -29.3090 C.3   181  ASN181      0.1688
     35  C          8.9610    0.0770  -29.8600 C.2   181  ASN181      0.2292
     36  O          9.5660   -0.8470  -29.3120 O.2   181  ASN181     -0.2864
     37  CB         7.8380    0.9420  -27.8410 C.3   181  ASN181      0.1181
     38  CG         6.6290    1.5960  -27.2160 C.2   181  ASN181      0.2629
     39  OD1        6.2420    2.7010  -27.6080 O.2   181  ASN181     -0.2716
     40  ND2        6.0390    0.9370  -26.2110 N.am  181  ASN181     -0.0877
     41  N         13.1090    0.6840  -27.4710 N.3   184  LEU184     -0.1245
     42  CA        13.0530    0.6630  -26.0080 C.3   184  LEU184      0.1561
     43  C         13.3600   -0.7150  -25.4360 C.2   184  LEU184      0.2260
     44  O         13.0760   -1.7420  -26.0830 O.2   184  LEU184     -0.2867
     45  CB        11.6780    1.1340  -25.5050 C.3   184  LEU184      0.0270
     46  CG        11.1430    2.4470  -26.0650 C.3   184  LEU184      0.0019
     47  CD1        9.8830    2.8960  -25.3000 C.3   184  LEU184      0.0001
     48  CD2       12.2340    3.5230  -26.0240 C.3   184  LEU184      0.0001
     49  N         -7.7480  -11.4680  -24.6260 N.3   273  TRP273     -0.1241
     50  CA        -8.0750  -10.8200  -23.3730 C.3   273  TRP273      0.1605
     51  C         -9.4750  -10.2810  -23.5800 C.2   273  TRP273      0.2264
     52  O         -9.6890   -9.4630  -24.4710 O.2   273  TRP273     -0.2867
     53  CB        -7.1190   -9.6660  -23.0930 C.3   273  TRP273      0.0550
     54  CG        -7.4600   -8.9490  -21.8290 C.ar  273  TRP273      0.0003
     55  CD1       -8.1410   -9.4630  -20.7650 C.ar  273  TRP273      0.0946
     56  CD2       -7.1660   -7.5890  -21.5000 C.ar  273  TRP273      0.0152
     57  NE1       -8.2760   -8.5090  -19.7900 N.ar  273  TRP273     -0.2442
     58  CE2       -7.6870   -7.3500  -20.2150 C.ar  273  TRP273      0.0810
     59  CE3       -6.5080   -6.5480  -22.1640 C.ar  273  TRP273      0.0012
     60  CZ2       -7.5650   -6.1130  -19.5730 C.ar  273  TRP273      0.0191
     61  CZ3       -6.3900   -5.3180  -21.5270 C.ar  273  TRP273      0.0001
     62  CH2       -6.9220   -5.1100  -20.2490 C.ar  273  TRP273      0.0015
     63  N         -7.4550  -15.8640  -20.9080 N.3   301  ASP301     -0.1225
     64  CA        -6.7000  -14.7700  -20.2960 C.3   301  ASP301      0.1805
     65  C         -7.3070  -14.5120  -18.9190 C.2   301  ASP301      0.2597
     66  O         -8.1620  -15.2700  -18.4800 O.2   301  ASP301     -0.2718
     67  CB        -6.8060  -13.5060  -21.1630 C.3   301  ASP301      0.1424
     68  CG        -5.5760  -12.6130  -21.0620 C.2   301  ASP301      0.3668
     69  OD1       -5.0380  -12.4230  -19.9430 O.co2 301  ASP301     -0.2456
     70  OD2       -5.1250  -12.1150  -22.1130 O.co2 301  ASP301     -0.2456
     71  N         -6.8850  -13.4300  -18.2660 N.am  302  ILE302     -0.1980
     72  CA        -7.2500  -13.1520  -16.8660 C.3   302  ILE302      0.1595
     73  C         -8.7610  -13.0880  -16.5880 C.2   302  ILE302      0.2287
     74  O         -9.1910  -13.0630  -15.4260 O.2   302  ILE302     -0.2864
     75  CB        -6.5900  -11.8590  -16.3630 C.3   302  ILE302      0.0276
     76  CG1       -6.9810  -10.6630  -17.2430 C.3   302  ILE302      0.0022
     77  CG2       -5.0830  -12.0150  -16.3060 C.3   302  ILE302      0.0022
     78  CD1       -6.4620   -9.3490  -16.7080 C.3   302  ILE302      0.0001
     79  N         -3.6230  -18.3590  -18.2290 N.3   340  ILE340     -0.1245
     80  CA        -2.6070  -17.4010  -17.8070 C.3   340  ILE340      0.1561
     81  C         -2.4510  -17.3970  -16.2870 C.2   340  ILE340      0.2260
     82  O         -3.4190  -17.6670  -15.5480 O.2   340  ILE340     -0.2867
     83  CB        -2.9560  -15.9880  -18.3270 C.3   340  ILE340      0.0252
     84  CG1       -1.7810  -15.0150  -18.1770 C.3   340  ILE340      0.0019
     85  CG2       -4.2010  -15.4230  -17.6170 C.3   340  ILE340      0.0019
     86  CD1       -2.0510  -13.6670  -18.8650 C.3   340  ILE340      0.0001
     87  N         -3.3770   -6.4470  -11.8400 N.3   376  TRP376     -0.1241
     88  CA        -4.7790   -6.5620  -12.2600 C.3   376  TRP376      0.1605
     89  C         -5.8490   -6.6510  -11.1560 C.2   376  TRP376      0.2264
     90  O         -6.9320   -6.0860  -11.3220 O.2   376  TRP376     -0.2867
     91  CB        -4.9690   -7.7050  -13.2520 C.3   376  TRP376      0.0550
     92  CG        -4.1230   -7.5780  -14.4520 C.ar  376  TRP376      0.0003
     93  CD1       -3.1880   -8.4730  -14.8920 C.ar  376  TRP376      0.0946
     94  CD2       -4.1210   -6.4980  -15.3920 C.ar  376  TRP376      0.0152
     95  NE1       -2.6070   -8.0180  -16.0490 N.ar  376  TRP376     -0.2442
     96  CE2       -3.1610   -6.8090  -16.3820 C.ar  376  TRP376      0.0810
     97  CE3       -4.8340   -5.2990  -15.4970 C.ar  376  TRP376      0.0012
     98  CZ2       -2.9050   -5.9680  -17.4660 C.ar  376  TRP376      0.0191
     99  CZ3       -4.5780   -4.4620  -16.5770 C.ar  376  TRP376      0.0001
    100  CH2       -3.6130   -4.7970  -17.5400 C.ar  376  TRP376      0.0015
    101  N          0.6960  -20.1470  -19.2020 N.3   411  TRP411     -0.1241
    102  CA         1.2180  -18.8800  -19.7300 C.3   411  TRP411      0.1605
    103  C          1.5760  -17.9810  -18.5380 C.2   411  TRP411      0.2264
    104  O          0.7030  -17.6070  -17.7590 O.2   411  TRP411     -0.2867
    105  CB         0.1280  -18.2380  -20.5970 C.3   411  TRP411      0.0550
    106  CG         0.3690  -16.8440  -21.1340 C.ar  411  TRP411      0.0003
    107  CD1        1.5590  -16.1780  -21.2480 C.ar  411  TRP411      0.0946
    108  CD2       -0.6430  -15.9600  -21.6250 C.ar  411  TRP411      0.0152
    109  NE1        1.3380  -14.9220  -21.7810 N.ar  411  TRP411     -0.2442
    110  CE2       -0.0060  -14.7720  -22.0260 C.ar  411  TRP411      0.0810
    111  CE3       -2.0370  -16.0610  -21.7540 C.ar  411  TRP411      0.0012
    112  CZ2       -0.7170  -13.6840  -22.5600 C.ar  411  TRP411      0.0191
    113  CZ3       -2.7410  -14.9820  -22.2800 C.ar  411  TRP411      0.0001
    114  CH2       -2.0780  -13.8160  -22.6800 C.ar  411  TRP411      0.0015
    115  N          2.7700  -14.3730  -17.3430 N.3   413  ASP413     -0.1225
    116  CA         2.7980  -13.0190  -17.8830 C.3   413  ASP413      0.1805
    117  C          3.1980  -12.0330  -16.7900 C.2   413  ASP413      0.2597
    118  O          3.3200  -12.4180  -15.6290 O.2   413  ASP413     -0.2718
    119  CB         1.3980  -12.6890  -18.4000 C.3   413  ASP413      0.1424
    120  CG         1.3330  -11.3620  -19.0990 C.2   413  ASP413      0.3668
    121  OD1        2.3530  -10.9520  -19.7090 O.co2 413  ASP413     -0.2456
    122  OD2        0.2620  -10.7170  -19.0270 O.co2 413  ASP413     -0.2456
    123  N          3.4310  -10.7760  -17.1700 N.am  414  MET414     -0.1979
    124  CA         3.6140   -9.6590  -16.2290 C.3   414  MET414      0.1605
    125  C          4.8080   -9.8590  -15.3050 C.2   414  MET414      0.2287
    126  O          4.8560   -9.2990  -14.2020 O.2   414  MET414     -0.2864
    127  CB         2.3530   -9.4560  -15.3840 C.3   414  MET414      0.0413
    128  CG         1.0590   -9.3570  -16.1770 C.3   414  MET414      0.0598
    129  SD         1.0050   -7.9370  -17.2870 S.3   414  MET414     -0.1393
    130  CE         0.8910   -6.5890  -16.1070 C.3   414  MET414      0.0692
    131  N          1.9960   -1.5050  -11.4750 N.3   420  PHE420     -0.1241
    132  CA         1.2400   -0.3980  -12.0780 C.3   420  PHE420      0.1605
    133  C          1.5900    0.9450  -11.4360 C.2   420  PHE420      0.2264
    134  O          1.2970    2.0160  -11.9970 O.2   420  PHE420     -0.2867
    135  CB        -0.2750   -0.6530  -12.0070 C.3   420  PHE420      0.0534
    136  CG        -0.7510   -1.7830  -12.8770 C.ar  420  PHE420     -0.0203
    137  CD1        0.1180   -2.4310  -13.7450 C.ar  420  PHE420     -0.0042
    138  CD2       -2.0790   -2.1810  -12.8400 C.ar  420  PHE420     -0.0042
    139  CE1       -0.3310   -3.4710  -14.5500 C.ar  420  PHE420     -0.0003
    140  CE2       -2.5360   -3.2090  -13.6340 C.ar  420  PHE420     -0.0003
    141  CZ        -1.6600   -3.8620  -14.4950 C.ar  420  PHE420     -0.0000
    142  N         13.3640    2.9770  -20.9820 N.3   441  SER441     -0.1217
    143  CA        12.2520    3.5600  -21.7360 C.3   441  SER441      0.1889
    144  C         12.6950    4.7080  -22.6410 C.2   441  SER441      0.2288
    145  O         11.8920    5.5630  -23.0160 O.2   441  SER441     -0.2866
    146  CB        11.1350    4.0240  -20.7940 C.3   441  SER441      0.2089
    147  OG         9.9400    4.2560  -21.5250 O.3   441  SER441     -0.2183
    148  N          6.6480  -14.1480  -20.6080 N.3   496  ARG496     -0.1245
    149  CA         6.9220  -12.8390  -21.2050 C.3   496  ARG496      0.1563
    150  C          8.3380  -12.3900  -20.9050 C.2   496  ARG496      0.2260
    151  O          9.1760  -12.2380  -21.8100 O.2   496  ARG496     -0.2867
    152  CB         5.9270  -11.7850  -20.7130 C.3   496  ARG496      0.0307
    153  CG         5.9030  -10.5740  -21.6600 C.3   496  ARG496      0.0489
    154  CD         4.7760   -9.6270  -21.3560 C.3   496  ARG496      0.2205
    155  NE         4.9580   -8.8900  -20.1070 N.pl3 496  ARG496     -0.0865
    156  CZ         4.1110   -7.9480  -19.7050 C.cat 496  ARG496      0.5346
    157  NH1        3.0460   -7.6750  -20.4430 N.pl3 496  ARG496      0.1354
    158  NH2        4.3130   -7.2970  -18.5790 N.pl3 496  ARG496      0.1354
    159  N          6.8250  -15.1530  -26.3430 N.3   509  TRP509     -0.1241
    160  CA         6.1980  -14.4570  -27.4800 C.3   509  TRP509      0.1605
    161  C          6.5780  -12.9880  -27.4310 C.2   509  TRP509      0.2264
    162  O          7.0740  -12.5150  -26.4160 O.2   509  TRP509     -0.2867
    163  CB         4.6760  -14.6500  -27.4940 C.3   509  TRP509      0.0550
    164  CG         3.8690  -13.5820  -26.7690 C.ar  509  TRP509      0.0003
    165  CD1        3.0460  -12.6410  -27.3520 C.ar  509  TRP509      0.0946
    166  CD2        3.7560  -13.3840  -25.3510 C.ar  509  TRP509      0.0152
    167  NE1        2.4400  -11.8790  -26.3850 N.ar  509  TRP509     -0.2442
    168  CE2        2.8700  -12.2920  -25.1480 C.ar  509  TRP509      0.0810
    169  CE3        4.3300  -14.0030  -24.2340 C.ar  509  TRP509      0.0012
    170  CZ2        2.5320  -11.8200  -23.8700 C.ar  509  TRP509      0.0191
    171  CZ3        3.9840  -13.5280  -22.9510 C.ar  509  TRP509      0.0001
    172  CH2        3.1010  -12.4500  -22.7880 C.ar  509  TRP509      0.0015
    173  N          3.2450   -7.3550  -26.1520 N.3   512  ASP512     -0.1239
    174  CA         2.2310   -6.4400  -26.6680 C.3   512  ASP512      0.1674
    175  C          2.6730   -5.7100  -27.9250 C.2   512  ASP512      0.2266
    176  O          3.0870   -4.5480  -27.8570 O.2   512  ASP512     -0.2867
    177  CB         1.8390   -5.4350  -25.5810 C.3   512  ASP512      0.1410
    178  CG         1.2370   -6.1070  -24.3860 C.2   512  ASP512      0.3668
    179  OD1        0.6760   -7.1980  -24.5620 O.co2 512  ASP512     -0.2456
    180  OD2        1.3160   -5.5460  -23.2720 O.co2 512  ASP512     -0.2456
    181  N         -1.6550   -7.4900  -31.1690 N.3   545  PHE545     -0.1227
    182  CA        -2.2970   -7.4670  -29.8670 C.3   545  PHE545      0.1736
    183  C         -3.0930   -6.1870  -29.6600 C.2   545  PHE545      0.2595
    184  O         -4.3140   -6.2250  -29.4470 O.2   545  PHE545     -0.2718
    185  CB        -1.2940   -7.6480  -28.7270 C.3   545  PHE545      0.0547
    186  CG        -1.9020   -7.4400  -27.3700 C.ar  545  PHE545     -0.0202
    187  CD1       -2.6640   -8.4450  -26.7790 C.ar  545  PHE545     -0.0042
    188  CD2       -1.7270   -6.2340  -26.6930 C.ar  545  PHE545     -0.0042
    189  CE1       -3.2470   -8.2550  -25.5340 C.ar  545  PHE545     -0.0003
    190  CE2       -2.3010   -6.0320  -25.4370 C.ar  545  PHE545     -0.0003
    191  CZ        -3.0660   -7.0530  -24.8600 C.ar  545  PHE545     -0.0000
    192  N         -2.3990   -5.0570  -29.7250 N.am  546  ALA546     -0.1980
    193  CA        -3.0240   -3.7630  -29.4500 C.3   546  ALA546      0.1597
    194  C         -3.5670   -3.1250  -30.7210 C.2   546  ALA546      0.2287
    195  O         -3.0400   -3.3650  -31.8100 O.2   546  ALA546     -0.2864
    196  CB        -2.0390   -2.8300  -28.7660 C.3   546  ALA546      0.0319
    197  N         -3.7940  -13.7280  -30.7210 N.3   570  HIS570     -0.1241
    198  CA        -4.1650  -13.1630  -29.4200 C.3   570  HIS570      0.1621
    199  C         -4.4610  -11.6790  -29.6280 C.2   570  HIS570      0.2264
    200  O         -3.9530  -11.0720  -30.5890 O.2   570  HIS570     -0.2867
    201  CB        -3.0420  -13.3770  -28.4020 C.3   570  HIS570      0.0745
    202  CG        -3.2880  -12.7350  -27.0680 C.ar  570  HIS570      0.0817
    203  ND1       -4.4990  -12.7920  -26.4160 N.ar  570  HIS570     -0.2268
    204  CD2       -2.4560  -12.0440  -26.2550 C.ar  570  HIS570      0.1154
    205  CE1       -4.4110  -12.1480  -25.2610 C.ar  570  HIS570      0.1986
    206  NE2       -3.1800  -11.6830  -25.1430 N.ar  570  HIS570     -0.2212
    207  N         -6.0120   -7.7310  -27.5400 N.3   572  ALA572     -0.1245
    208  CA        -6.4490   -6.9470  -26.3750 C.3   572  ALA572      0.1562
    209  C         -7.9730   -6.8330  -26.3270 C.2   572  ALA572      0.2260
    210  O         -8.6320   -7.0120  -27.3370 O.2   572  ALA572     -0.2867
    211  CB        -5.8180   -5.5570  -26.4160 C.3   572  ALA572      0.0290
@<TRIPOS>BOND
     1   195   194    2
     2    25    24    2
     3   181   182    1
     4   197   198    1
     5   194   193    1
     6    26    23    1
     7    26    27    1
     8   200   199    2
     9    24    23    1
    10    24    33   am
    11    23    22    1
    12   182   183    1
    13   182   185    1
    14    35    36    2
    15    35    34    1
    16   192   183   am
    17   192   193    1
    18   183   184    2
    19   199   198    1
    20   193   196    1
    21   198   201    1
    22    27    28   ar
    23    27    29   ar
    24    33    34    1
    25    34    37    1
    26    28    30   ar
    27    29    31   ar
    28   185   186    1
    29   201   202    1
    30   175   176    2
    31   175   174    1
    32    30    32   ar
    33    37    38    1
    34    31    32   ar
    35    39    38    2
    36   207   208    1
    37   163   160    1
    38   163   164    1
    39   160   161    1
    40   160   159    1
    41    41    42    1
    42   161   162    2
    43   186   187   ar
    44   186   188   ar
    45   165   164   ar
    46   165   167   ar
    47   210   209    2
    48    38    40   am
    49   202   203   ar
    50   202   204   ar
    51   187   189   ar
    52   164   166   ar
    53    20    19    2
    54   188   190   ar
    55   174   173    1
    56   174   177    1
    57   211   208    1
    58   203   205   ar
    59   167   168   ar
    60    19    18    1
    61   208   209    1
    62   204   206   ar
    63    44    43    2
    64    46    48    1
    65    46    45    1
    66    46    47    1
    67    42    45    1
    68    42    43    1
    69    21    18    1
    70   177   178    1
    71   189   191   ar
    72   190   191   ar
    73   166   168   ar
    74   166   169   ar
    75   205   206   ar
    76    18    17    1
    77   168   170   ar
    78    49    50    1
    79   179   178   ar
    80    52    51    2
    81   178   180   ar
    82   169   171   ar
    83    17    11   am
    84   170   172   ar
    85    12    11    2
    86    51    50    1
    87    15    13    1
    88    11    10    1
    89    50    53    1
    90    53    54    1
    91   145   144    2
    92   171   172   ar
    93   114   112   ar
    94   114   113   ar
    95   144   143    1
    96   112   110   ar
    97    13    10    1
    98    13    14    1
    99   113   111   ar
   100    59    61   ar
   101    59    56   ar
   102    10     9    1
   103    70    68   ar
   104   110   109   ar
   105   110   108   ar
   106    54    56   ar
   107    54    55   ar
   108   151   150    2
   109   109   107   ar
   110   111   108   ar
   111   143   142    1
   112   143   146    1
   113   153   154    1
   114   153   152    1
   115   108   106   ar
   116    61    62   ar
   117   147   146    1
   118    56    58   ar
   119   154   155    1
   120   107   106   ar
   121   149   150    1
   122   149   152    1
   123   149   148    1
   124    67    68    1
   125    67    64    1
   126   106   105    1
   127    16    14    1
   128     9     3   am
   129    68    69   ar
   130    63    64    1
   131    55    57   ar
   132   105   102    1
   133   157   156    1
   134    64    65    1
   135    62    60   ar
   136    58    57   ar
   137    58    60   ar
   138   155   156    2
   139     3     4    2
   140     3     2    1
   141     7     6   ar
   142   102   101    1
   143   102   103    1
   144   121   120   ar
   145   156   158    1
   146   120   122   ar
   147   120   119    1
   148     2     1    1
   149     2     5    1
   150    65    66    2
   151    65    71   am
   152    86    84    1
   153   103   104    2
   154     6     5    1
   155     6     8   ar
   156   119   116    1
   157    83    84    1
   158    83    80    1
   159    83    85    1
   160    71    72    1
   161    79    80    1
   162   116   115    1
   163   116   117    1
   164    80    81    1
   165   100    98   ar
   166   100    99   ar
   167    98    96   ar
   168   129   128    1
   169   129   130    1
   170    76    78    1
   171    76    75    1
   172   123   117   am
   173   123   124    1
   174    72    73    1
   175    72    75    1
   176   117   118    2
   177    73    74    2
   178    99    97   ar
   179    96    95   ar
   180    96    94   ar
   181    75    77    1
   182    81    82    2
   183   124   127    1
   184   124   125    1
   185   128   127    1
   186    95    93   ar
   187    97    94   ar
   188    94    92   ar
   189   125   126    2
   190    93    92   ar
   191   139   141   ar
   192   139   137   ar
   193   141   140   ar
   194    92    91    1
   195   137   136   ar
   196   140   138   ar
   197    91    88    1
   198   136   138   ar
   199   136   135    1
   200    88    87    1
   201    88    89    1
   202   132   135    1
   203   132   131    1
   204   132   133    1
   205   134   133    2
   206    90    89    2
