@<TRIPOS>MOLECULE
tmp/3wemA00.pdb
 240 232 0 0 0
SMALL
GASTEIGER

@<TRIPOS>ATOM
      1  N         32.7960   28.3660   48.6650 N.3   179  ASP179     -0.1225
      2  CA        32.6950   29.4060   47.6590 C.3   179  ASP179      0.1805
      3  C         33.8400   29.2060   46.6710 C.2   179  ASP179      0.2598
      4  O         34.8660   29.8880   46.7180 O.2   179  ASP179     -0.2718
      5  CB        32.7500   30.7880   48.3350 C.3   179  ASP179      0.1424
      6  CG        32.5220   31.9390   47.3680 C.2   179  ASP179      0.3668
      7  OD1       32.3970   31.6920   46.1490 O.co2 179  ASP179     -0.2456
      8  OD2       32.4600   33.1010   47.8340 O.co2 179  ASP179     -0.2456
      9  N         33.6290   28.2650   45.7560 N.am  180  ILE180     -0.1966
     10  CA        34.6130   27.9090   44.7420 C.3   180  ILE180      0.1727
     11  C         33.9240   27.9330   43.3830 C.2   180  ILE180      0.2616
     12  O         32.8420   27.3690   43.2220 O.2   180  ILE180     -0.2715
     13  CB        35.2390   26.5110   45.0130 C.3   180  ILE180      0.0290
     14  CG1       36.1180   26.5410   46.2640 C.3   180  ILE180      0.0022
     15  CG2       36.0560   26.0220   43.8170 C.3   180  ILE180      0.0023
     16  CD1       36.6260   25.1670   46.6730 C.3   180  ILE180      0.0001
     17  N         34.5540   28.5790   42.4100 N.am  181  ALA181     -0.1977
     18  CA        33.9130   28.8410   41.1260 C.3   181  ALA181      0.1597
     19  C         33.7380   27.5640   40.3200 C.2   181  ALA181      0.2287
     20  O         34.6290   26.7120   40.2840 O.2   181  ALA181     -0.2864
     21  CB        34.7160   29.8540   40.3340 C.3   181  ALA181      0.0319
     22  N         33.7910   27.2460   37.1980 N.3   183  PHE183     -0.1227
     23  CA        34.7400   27.1180   36.0880 C.3   183  PHE183      0.1736
     24  C         35.9340   26.2270   36.4640 C.2   183  PHE183      0.2595
     25  O         36.7150   25.8350   35.5960 O.2   183  PHE183     -0.2718
     26  CB        35.1990   28.4840   35.5270 C.3   183  PHE183      0.0547
     27  CG        35.8270   29.4330   36.5220 C.ar  183  PHE183     -0.0202
     28  CD1       37.0400   29.1520   37.1290 C.ar  183  PHE183     -0.0042
     29  CD2       35.2450   30.6760   36.7520 C.ar  183  PHE183     -0.0042
     30  CE1       37.6250   30.0630   38.0040 C.ar  183  PHE183     -0.0003
     31  CE2       35.8230   31.5890   37.6150 C.ar  183  PHE183     -0.0003
     32  CZ        37.0160   31.2840   38.2440 C.ar  183  PHE183     -0.0000
     33  N         36.0860   25.9330   37.7550 N.am  184  ASN184     -0.1974
     34  CA        37.0800   24.9630   38.2130 C.3   184  ASN184      0.1688
     35  C         36.5500   23.5320   38.1060 C.2   184  ASN184      0.2292
     36  O         35.5260   23.2060   38.7040 O.2   184  ASN184     -0.2864
     37  CB        37.4790   25.2450   39.6660 C.3   184  ASN184      0.1181
     38  CG        38.2130   26.5650   39.8370 C.2   184  ASN184      0.2629
     39  OD1       39.3220   26.7400   39.3380 O.2   184  ASN184     -0.2716
     40  ND2       37.6030   27.4920   40.5630 N.am  184  ASN184     -0.0877
     41  N         36.7860   20.3590   41.7320 N.3   187  LEU187     -0.1245
     42  CA        36.7700   20.8330   43.1110 C.3   187  LEU187      0.1561
     43  C         35.3610   20.7860   43.7010 C.2   187  LEU187      0.2260
     44  O         34.3660   20.8920   42.9780 O.2   187  LEU187     -0.2867
     45  CB        37.3390   22.2540   43.1870 C.3   187  LEU187      0.0270
     46  CG        38.6870   22.4950   42.4920 C.3   187  LEU187      0.0019
     47  CD1       39.2210   23.8910   42.7800 C.3   187  LEU187      0.0001
     48  CD2       39.7050   21.4460   42.8950 C.3   187  LEU187      0.0001
     49  N         26.1260   41.7950   37.3510 N.3   276  TRP276     -0.1241
     50  CA        26.8280   42.4520   38.4260 C.3   276  TRP276      0.1605
     51  C         27.4520   43.6830   37.8220 C.2   276  TRP276      0.2264
     52  O         28.2660   43.5740   36.9180 O.2   276  TRP276     -0.2867
     53  CB        27.9020   41.5400   39.0030 C.3   276  TRP276      0.0550
     54  CG        28.7140   42.1570   40.0880 C.ar  276  TRP276      0.0003
     55  CD1       28.3480   43.1670   40.9250 C.ar  276  TRP276      0.0946
     56  CD2       30.0780   41.8580   40.3880 C.ar  276  TRP276      0.0152
     57  NE1       29.3910   43.4870   41.7600 N.ar  276  TRP276     -0.2442
     58  CE2       30.4660   42.6980   41.4480 C.ar  276  TRP276      0.0810
     59  CE3       31.0050   40.9460   39.8740 C.ar  276  TRP276      0.0012
     60  CZ2       31.7440   42.6530   42.0060 C.ar  276  TRP276      0.0191
     61  CZ3       32.2690   40.9020   40.4270 C.ar  276  TRP276      0.0001
     62  CH2       32.6280   41.7500   41.4830 C.ar  276  TRP276      0.0015
     63  N         21.6740   42.9680   40.9640 N.3   304  ASP304     -0.1225
     64  CA        22.7020   42.4480   41.8440 C.3   304  ASP304      0.1805
     65  C         22.9680   43.4490   42.9600 C.2   304  ASP304      0.2597
     66  O         22.2090   44.3980   43.1410 O.2   304  ASP304     -0.2718
     67  CB        23.9770   42.1630   41.0510 C.3   304  ASP304      0.1424
     68  CG        24.8200   41.0800   41.6720 C.2   304  ASP304      0.3668
     69  OD1       24.8790   41.0080   42.9160 O.co2 304  ASP304     -0.2456
     70  OD2       25.4230   40.2980   40.9130 O.co2 304  ASP304     -0.2456
     71  N         24.0400   43.2290   43.7120 N.am  305  ILE305     -0.1980
     72  CA        24.2660   43.9290   44.9730 C.3   305  ILE305      0.1595
     73  C         24.4280   45.4350   44.7910 C.2   305  ILE305      0.2287
     74  O         24.4170   46.1920   45.7620 O.2   305  ILE305     -0.2864
     75  CB        25.5250   43.3940   45.6860 C.3   305  ILE305      0.0276
     76  CG1       26.7470   43.5060   44.7650 C.3   305  ILE305      0.0022
     77  CG2       25.3120   41.9600   46.1590 C.3   305  ILE305      0.0022
     78  CD1       28.0530   43.0570   45.4080 C.3   305  ILE305      0.0001
     79  N         18.8060   40.3490   44.5860 N.3   343  ILE343     -0.1245
     80  CA        19.6780   39.4820   45.3790 C.3   343  ILE343      0.1561
     81  C         19.6660   39.7640   46.8860 C.2   343  ILE343      0.2260
     82  O         19.4020   40.8920   47.3050 O.2   343  ILE343     -0.2867
     83  CB        21.1320   39.5720   44.8550 C.3   343  ILE343      0.0252
     84  CG1       21.9670   38.3780   45.3190 C.3   343  ILE343      0.0019
     85  CG2       21.7700   40.9190   45.2120 C.3   343  ILE343      0.0019
     86  CD1       23.3280   38.3240   44.6690 C.3   343  ILE343      0.0001
     87  N         22.2380   38.5060   50.4170 N.3   345  ASP345     -0.1239
     88  CA        23.3190   37.7320   51.0330 C.3   345  ASP345      0.1674
     89  C         22.9570   37.4130   52.4820 C.2   345  ASP345      0.2266
     90  O         22.0940   38.0620   53.0500 O.2   345  ASP345     -0.2867
     91  CB        24.6420   38.4940   50.9810 C.3   345  ASP345      0.1410
     92  CG        25.1000   38.7640   49.5650 C.2   345  ASP345      0.3668
     93  OD1       25.0330   37.8420   48.7270 O.co2 345  ASP345     -0.2456
     94  OD2       25.5590   39.8910   49.3020 O.co2 345  ASP345     -0.2456
     95  N         30.7320   41.5450   51.3830 N.3   379  TRP379     -0.1241
     96  CA        30.7050   42.7780   50.5910 C.3   379  TRP379      0.1605
     97  C         30.5510   44.0990   51.3750 C.2   379  TRP379      0.2264
     98  O         31.2200   45.0810   51.0610 O.2   379  TRP379     -0.2867
     99  CB        29.5800   42.7120   49.5510 C.3   379  TRP379      0.0550
    100  CG        29.6040   41.5000   48.6700 C.ar  379  TRP379      0.0003
    101  CD1       28.6230   40.5560   48.5510 C.ar  379  TRP379      0.0946
    102  CD2       30.6710   41.0800   47.8120 C.ar  379  TRP379      0.0152
    103  NE1       29.0040   39.5890   47.6520 N.ar  379  TRP379     -0.2442
    104  CE2       30.2580   39.8840   47.1890 C.ar  379  TRP379      0.0810
    105  CE3       31.9320   41.5990   47.5070 C.ar  379  TRP379      0.0012
    106  CZ2       31.0610   39.2020   46.2790 C.ar  379  TRP379      0.0191
    107  CZ3       32.7260   40.9200   46.6030 C.ar  379  TRP379      0.0001
    108  CH2       32.2880   39.7360   45.9980 C.ar  379  TRP379      0.0015
    109  N         16.7810   36.1290   45.1190 N.3   414  TRP414     -0.1241
    110  CA        18.0080   35.4250   44.8070 C.3   414  TRP414      0.1605
    111  C         18.8830   35.3990   46.0650 C.2   414  TRP414      0.2264
    112  O         19.3380   36.4490   46.5090 O.2   414  TRP414     -0.2867
    113  CB        18.6710   36.1450   43.6200 C.3   414  TRP414      0.0550
    114  CG        20.0250   35.7060   43.1840 C.ar  414  TRP414      0.0003
    115  CD1       20.6290   34.5080   43.4270 C.ar  414  TRP414      0.0946
    116  CD2       20.9330   36.4590   42.3750 C.ar  414  TRP414      0.0152
    117  NE1       21.8720   34.4790   42.8340 N.ar  414  TRP414     -0.2442
    118  CE2       22.0800   35.6670   42.1830 C.ar  414  TRP414      0.0810
    119  CE3       20.8910   37.7370   41.8060 C.ar  414  TRP414      0.0012
    120  CZ2       23.1770   36.1090   41.4440 C.ar  414  TRP414      0.0191
    121  CZ3       21.9810   38.1740   41.0690 C.ar  414  TRP414      0.0001
    122  CH2       23.1070   37.3620   40.8940 C.ar  414  TRP414      0.0015
    123  N         22.3870   34.4710   47.6470 N.3   416  ASP416     -0.1225
    124  CA        23.7550   34.1870   47.2400 C.3   416  ASP416      0.1805
    125  C         24.6970   34.0820   48.4580 C.2   416  ASP416      0.2597
    126  O         24.2700   34.3180   49.5890 O.2   416  ASP416     -0.2718
    127  CB        24.2010   35.2700   46.2590 C.3   416  ASP416      0.1424
    128  CG        25.4890   34.9330   45.5640 C.2   416  ASP416      0.3668
    129  OD1       25.7730   33.7260   45.4010 O.co2 416  ASP416     -0.2456
    130  OD2       26.2000   35.8800   45.1560 O.co2 416  ASP416     -0.2456
    131  N         25.9510   33.6810   48.2320 N.am  417  MET417     -0.1979
    132  CA        27.0100   33.7590   49.2520 C.3   417  MET417      0.1605
    133  C         26.7290   32.9740   50.5340 C.2   417  MET417      0.2287
    134  O         27.2460   33.3020   51.6050 O.2   417  MET417     -0.2864
    135  CB        27.2990   35.2190   49.6150 C.3   417  MET417      0.0413
    136  CG        27.5470   36.1220   48.4250 C.3   417  MET417      0.0598
    137  SD        29.0250   35.5900   47.5470 S.3   417  MET417     -0.1393
    138  CE        30.2770   36.1160   48.7120 C.3   417  MET417      0.0692
    139  N         35.2860   36.1820   53.7200 N.3   423  PHE423     -0.1241
    140  CA        36.5150   36.5580   53.0300 C.3   423  PHE423      0.1605
    141  C         37.7970   36.4770   53.8780 C.2   423  PHE423      0.2264
    142  O         38.9020   36.4780   53.3330 O.2   423  PHE423     -0.2867
    143  CB        36.3740   37.9970   52.5120 C.3   423  PHE423      0.0534
    144  CG        35.2980   38.1810   51.4650 C.ar  423  PHE423     -0.0203
    145  CD1       34.6030   37.1010   50.9400 C.ar  423  PHE423     -0.0042
    146  CD2       34.9460   39.4580   51.0470 C.ar  423  PHE423     -0.0042
    147  CE1       33.6030   37.2930   50.0000 C.ar  423  PHE423     -0.0003
    148  CE2       33.9480   39.6520   50.1110 C.ar  423  PHE423     -0.0003
    149  CZ        33.2770   38.5730   49.5860 C.ar  423  PHE423     -0.0000
    150  N         38.9890   21.9480   48.1840 N.3   444  SER444     -0.1202
    151  CA        39.6240   22.7450   47.1330 C.3   444  SER444      0.2020
    152  C         40.7780   22.0460   46.4110 C.2   444  SER444      0.2619
    153  O         41.6530   22.7050   45.8430 O.2   444  SER444     -0.2717
    154  CB        40.1310   24.0670   47.7220 C.3   444  SER444      0.2103
    155  OG        40.3540   25.0320   46.7090 O.3   444  SER444     -0.2182
    156  N         40.7790   20.7150   46.4490 N.am  445  GLY445     -0.1942
    157  CA        41.7680   19.9050   45.7530 C.3   445  GLY445      0.2014
    158  C         43.1570   19.9190   46.3600 C.2   445  GLY445      0.2639
    159  O         44.1020   19.3850   45.7810 O.2   445  GLY445     -0.2714
    160  N         43.2760   20.5130   47.5390 N.am  446  GLY446     -0.1954
    161  CA        44.5640   20.6750   48.1860 C.3   446  GLY446      0.1869
    162  C         44.5990   20.3150   49.6520 C.2   446  GLY446      0.2309
    163  O         45.4790   20.7880   50.3690 O.2   446  GLY446     -0.2863
    164  N         42.7590   21.4120   51.8440 N.3   448  VAL448     -0.1245
    165  CA        42.7410   22.7140   52.4820 C.3   448  VAL448      0.1561
    166  C         41.8280   22.6170   53.6980 C.2   448  VAL448      0.2260
    167  O         40.8260   21.9090   53.6490 O.2   448  VAL448     -0.2867
    168  CB        42.2220   23.7900   51.4800 C.3   448  VAL448      0.0252
    169  CG1       41.9930   25.1390   52.1460 C.3   448  VAL448      0.0019
    170  CG2       43.1550   23.9150   50.2750 C.3   448  VAL448      0.0019
    171  N         38.5220   27.1540   55.8000 N.3   452  SER452     -0.1217
    172  CA        38.9940   28.1350   54.8170 C.3   452  SER452      0.1889
    173  C         37.8600   28.9430   54.1790 C.2   452  SER452      0.2288
    174  O         36.9820   28.3730   53.5280 O.2   452  SER452     -0.2866
    175  CB        39.8010   27.4540   53.7200 C.3   452  SER452      0.2089
    176  OG        40.2080   28.4070   52.7510 O.3   452  SER452     -0.2183
    177  N         22.4120   29.6590   45.7540 N.3   499  ARG499     -0.1245
    178  CA        23.7230   29.1590   45.3620 C.3   499  ARG499      0.1563
    179  C         24.0800   27.8820   46.1050 C.2   499  ARG499      0.2260
    180  O         24.2260   26.8240   45.4970 O.2   499  ARG499     -0.2867
    181  CB        24.8230   30.1930   45.5680 C.3   499  ARG499      0.0307
    182  CG        26.0480   29.8150   44.7530 C.3   499  ARG499      0.0489
    183  CD        27.0660   30.9220   44.6520 C.3   499  ARG499      0.2205
    184  NE        27.7600   31.1380   45.9120 N.pl3 499  ARG499     -0.0865
    185  CZ        28.7270   32.0310   46.0750 C.cat 499  ARG499      0.5346
    186  NH1       29.0790   32.8120   45.0630 N.pl3 499  ARG499      0.1354
    187  NH2       29.3400   32.1390   47.2450 N.pl3 499  ARG499      0.1354
    188  N         21.4500   27.6220   40.2040 N.3   512  TRP512     -0.1241
    189  CA        22.2080   27.8290   38.9740 C.3   512  TRP512      0.1605
    190  C         23.6430   27.3810   39.2140 C.2   512  TRP512      0.2264
    191  O         24.0690   27.2910   40.3610 O.2   512  TRP512     -0.2867
    192  CB        22.1210   29.2940   38.4990 C.3   512  TRP512      0.0550
    193  CG        23.1910   30.2310   39.0150 C.ar  512  TRP512      0.0003
    194  CD1       24.1930   30.8110   38.2880 C.ar  512  TRP512      0.0946
    195  CD2       23.3060   30.7610   40.3460 C.ar  512  TRP512      0.0152
    196  NE1       24.9540   31.6250   39.0940 N.ar  512  TRP512     -0.2442
    197  CE2       24.4280   31.6180   40.3590 C.ar  512  TRP512      0.0810
    198  CE3       22.5880   30.5730   41.5320 C.ar  512  TRP512      0.0012
    199  CZ2       24.8440   32.2890   41.5090 C.ar  512  TRP512      0.0191
    200  CZ3       23.0010   31.2460   42.6710 C.ar  512  TRP512      0.0001
    201  CH2       24.1210   32.0890   42.6510 C.ar  512  TRP512      0.0015
    202  N         29.5000   30.4660   39.3950 N.3   515  ASP515     -0.1239
    203  CA        30.4770   31.2530   38.6540 C.3   515  ASP515      0.1674
    204  C         31.2200   30.4440   37.6050 C.2   515  ASP515      0.2266
    205  O         32.3570   30.0260   37.8120 O.2   515  ASP515     -0.2867
    206  CB        31.4650   31.9220   39.6120 C.3   515  ASP515      0.1410
    207  CG        30.7940   32.9460   40.5020 C.2   515  ASP515      0.3668
    208  OD1       29.7350   33.4750   40.0950 O.co2 515  ASP515     -0.2456
    209  OD2       31.3210   33.2370   41.5950 O.co2 515  ASP515     -0.2456
    210  N         29.7310   33.7450   33.1920 N.3   548  PHE548     -0.1227
    211  CA        29.7850   34.7770   34.2180 C.3   548  PHE548      0.1736
    212  C         31.1180   35.5070   34.1840 C.2   548  PHE548      0.2595
    213  O         31.1660   36.7150   33.9700 O.2   548  PHE548     -0.2718
    214  CB        29.5520   34.1850   35.6080 C.3   548  PHE548      0.0547
    215  CG        29.7430   35.1760   36.7210 C.ar  548  PHE548     -0.0202
    216  CD1       28.7830   36.1390   36.9830 C.ar  548  PHE548     -0.0042
    217  CD2       30.8990   35.1600   37.4910 C.ar  548  PHE548     -0.0042
    218  CE1       28.9590   37.0570   37.9980 C.ar  548  PHE548     -0.0003
    219  CE2       31.0820   36.0770   38.5070 C.ar  548  PHE548     -0.0003
    220  CZ        30.1100   37.0250   38.7640 C.ar  548  PHE548     -0.0000
    221  N         32.1910   34.7760   34.4500 N.am  549  ALA549     -0.1980
    222  CA        33.5190   35.3590   34.5350 C.3   549  ALA549      0.1597
    223  C         34.1770   35.4020   33.1620 C.2   549  ALA549      0.2287
    224  O         33.8840   34.5720   32.2960 O.2   549  ALA549     -0.2864
    225  CB        34.3870   34.5800   35.5170 C.3   549  ALA549      0.0319
    226  N         23.7800   36.3370   32.7020 N.3   573  HIS573     -0.1241
    227  CA        24.3700   37.0500   33.8330 C.3   573  HIS573      0.1621
    228  C         25.8940   37.1320   33.6520 C.2   573  HIS573      0.2264
    229  O         26.4900   36.2840   32.9850 O.2   573  HIS573     -0.2867
    230  CB        24.0130   36.3400   35.1440 C.3   573  HIS573      0.0745
    231  CG        24.6130   36.9650   36.3660 C.ar  573  HIS573      0.0817
    232  ND1       24.5680   38.3210   36.6080 N.ar  573  HIS573     -0.2268
    233  CD2       25.2940   36.4220   37.4030 C.ar  573  HIS573      0.1154
    234  CE1       25.1790   38.5850   37.7490 C.ar  573  HIS573      0.1986
    235  NE2       25.6320   37.4500   38.2500 N.ar  573  HIS573     -0.2212
    236  N         29.8730   39.0850   35.3800 N.3   575  ALA575     -0.1245
    237  CA        30.5750   39.9060   36.3620 C.3   575  ALA575      0.1562
    238  C         30.7960   41.3280   35.8410 C.2   575  ALA575      0.2260
    239  O         30.6920   41.5780   34.6390 O.2   575  ALA575     -0.2867
    240  CB        31.9000   39.2700   36.7260 C.3   575  ALA575      0.0290
@<TRIPOS>BOND
     1   224   223    2
     2   226   227    1
     3   229   228    2
     4   223   222    1
     5   210   211    1
     6   228   227    1
     7   227   230    1
     8   213   212    2
     9   212   211    1
    10   212   221   am
    11   211   214    1
    12   221   222    1
    13   222   225    1
    14   239   238    2
    15   230   231    1
    16   236   237    1
    17    26    23    1
    18    26    27    1
    19    25    24    2
    20   214   215    1
    21   238   237    1
    22    23    24    1
    23    23    22    1
    24   237   240    1
    25   231   232   ar
    26   231   233   ar
    27    24    33   am
    28    27    29   ar
    29    27    28   ar
    30   232   234   ar
    31   215   216   ar
    32   215   217   ar
    33    29    31   ar
    34    52    51    2
    35   216   218   ar
    36    28    30   ar
    37    49    50    1
    38   233   235   ar
    39   217   219   ar
    40   204   205    2
    41   204   203    1
    42    31    32   ar
    43   234   235   ar
    44    33    34    1
    45    51    50    1
    46   218   220   ar
    47    30    32   ar
    48    35    34    1
    49    35    36    2
    50    34    37    1
    51   194   193   ar
    52   194   196   ar
    53    50    53    1
    54   192   189    1
    55   192   193    1
    56   219   220   ar
    57   203   202    1
    58   203   206    1
    59   189   190    1
    60   189   188    1
    61    53    54    1
    62   193   195   ar
    63   196   197   ar
    64   190   191    2
    65    39    38    2
    66   206   207    1
    67    37    38    1
    68    38    40   am
    69    59    56   ar
    70    59    61   ar
    71    54    56   ar
    72    54    55   ar
    73   208   207   ar
    74    20    19    2
    75    19    18    1
    76    21    18    1
    77   195   197   ar
    78   195   198   ar
    79   197   199   ar
    80    56    58   ar
    81    61    62   ar
    82   207   209   ar
    83   122   121   ar
    84   122   120   ar
    85    70    68   ar
    86    55    57   ar
    87    63    64    1
    88    67    68    1
    89    67    64    1
    90   121   119   ar
    91    18    17    1
    92   120   118   ar
    93    58    57   ar
    94    58    60   ar
    95    62    60   ar
    96   199   201   ar
    97   198   200   ar
    98    68    69   ar
    99    41    42    1
   100   119   116   ar
   101    64    65    1
   102   118   116   ar
   103   118   117   ar
   104   116   114   ar
   105    17    11   am
   106    46    47    1
   107    46    48    1
   108    46    45    1
   109   201   200   ar
   110   117   115   ar
   111    65    66    2
   112    65    71   am
   113    44    43    2
   114    42    45    1
   115    42    43    1
   116   114   115   ar
   117   114   113    1
   118    12    11    2
   119    11    10    1
   120   113   110    1
   121    71    72    1
   122    15    13    1
   123    79    80    1
   124   183   182    1
   125   183   184    1
   126    86    84    1
   127    10    13    1
   128    10     9    1
   129   182   181    1
   130    76    78    1
   131    76    75    1
   132    73    72    1
   133    73    74    2
   134   110   109    1
   135   110   111    1
   136    83    85    1
   137    83    84    1
   138    83    80    1
   139    72    75    1
   140    13    14    1
   141   186   185    1
   142   130   128   ar
   143   178   181    1
   144   178   177    1
   145   178   179    1
   146    80    81    1
   147   129   128   ar
   148   180   179    2
   149   128   127    1
   150    75    77    1
   151   157   158    1
   152   157   156    1
   153     9     3   am
   154   159   158    2
   155   153   152    2
   156   184   185    2
   157   108   106   ar
   158   108   107   ar
   159   111   112    2
   160   185   187    1
   161     7     6   ar
   162   127   124    1
   163    14    16    1
   164   106   104   ar
   165   158   160   am
   166   152   156   am
   167   152   151    1
   168   107   105   ar
   169     3     4    2
   170     3     2    1
   171   155   154    1
   172    81    82    2
   173   151   154    1
   174   151   150    1
   175   104   103   ar
   176   104   102   ar
   177   124   123    1
   178   124   125    1
   179     6     8   ar
   180     6     5    1
   181   105   102   ar
   182   160   161    1
   183   137   136    1
   184   137   138    1
   185   103   101   ar
   186     2     5    1
   187     2     1    1
   188   102   100   ar
   189   161   162    1
   190   131   125   am
   191   131   132    1
   192   136   135    1
   193   125   126    2
   194   101   100   ar
   195   100    99    1
   196    93    92   ar
   197   132   135    1
   198   132   133    1
   199    94    92   ar
   200    99    96    1
   201    92    91    1
   202   149   147   ar
   203   149   148   ar
   204   162   163    2
   205   147   145   ar
   206   148   146   ar
   207   170   168    1
   208    87    88    1
   209   133   134    2
   210    96    97    1
   211    96    95    1
   212   145   144   ar
   213    91    88    1
   214    88    89    1
   215   146   144   ar
   216    98    97    2
   217   144   143    1
   218   168   169    1
   219   168   165    1
   220   164   165    1
   221   165   166    1
   222    89    90    2
   223   143   140    1
   224   176   175    1
   225   140   139    1
   226   140   141    1
   227   142   141    2
   228   174   173    2
   229   167   166    2
   230   175   172    1
   231   173   172    1
   232   172   171    1
