@<TRIPOS>MOLECULE
tmp/3wenA01.pdb
 86 84 0 0 0
SMALL
GASTEIGER

@<TRIPOS>ATOM
      1  N         22.1840   49.5950   49.4690 N.3   309  ASP309     -0.1225
      2  CA        22.9040   50.7430   49.9970 C.3   309  ASP309      0.1805
      3  C         24.2080   50.2550   50.6010 C.2   309  ASP309      0.2597
      4  O         24.2350   49.7900   51.7400 O.2   309  ASP309     -0.2718
      5  CB        22.0720   51.4700   51.0540 C.3   309  ASP309      0.1424
      6  CG        22.7900   52.6780   51.6330 C.2   309  ASP309      0.3668
      7  OD1       23.6670   53.2380   50.9440 O.co2 309  ASP309     -0.2456
      8  OD2       22.4740   53.0700   52.7780 O.co2 309  ASP309     -0.2456
      9  N         25.2800   50.3550   49.8200 N.am  310  ALA310     -0.1979
     10  CA        26.5980   49.8750   50.2250 C.3   310  ALA310      0.1597
     11  C         26.5610   48.3920   50.6020 C.2   310  ALA310      0.2287
     12  O         27.1040   47.9820   51.6300 O.2   310  ALA310     -0.2864
     13  CB        27.1580   50.7240   51.3610 C.3   310  ALA310      0.0319
     14  N         24.2360   46.3750   51.6960 N.3   312  LYS312     -0.1245
     15  CA        23.4570   45.9170   52.8400 C.3   312  LYS312      0.1561
     16  C         22.0950   45.4160   52.3880 C.2   312  LYS312      0.2260
     17  O         21.4540   46.0280   51.5320 O.2   312  LYS312     -0.2867
     18  CB        23.2900   47.0300   53.8760 C.3   312  LYS312      0.0271
     19  CG        24.5710   47.3910   54.6030 C.3   312  LYS312      0.0035
     20  CD        24.3110   48.3620   55.7420 C.3   312  LYS312      0.0206
     21  CE        23.8000   49.7050   55.2380 C.3   312  LYS312      0.1093
     22  NZ        24.8290   50.4790   54.4890 N.3   312  LYS312     -0.1314
     23  N         20.2830   55.1520   47.8660 N.3   318  PRO318     -0.2116
     24  CA        19.4730   56.3650   47.7260 C.3   318  PRO318      0.1372
     25  C         19.9030   57.2220   46.5390 C.2   318  PRO318      0.2244
     26  O         19.1630   58.1210   46.1370 O.2   318  PRO318     -0.2868
     27  CB        19.7350   57.1100   49.0370 C.3   318  PRO318      0.0268
     28  CG        21.0620   56.6340   49.4770 C.3   318  PRO318      0.0207
     29  CD        21.1240   55.1920   49.0740 C.3   318  PRO318      0.0892
     30  N         25.5690   43.1760   57.8350 N.3   349  ASN349     -0.1225
     31  CA        26.5710   44.1800   58.1670 C.3   349  ASN349      0.1785
     32  C         26.3960   44.7290   59.5810 C.2   349  ASN349      0.2598
     33  O         25.2920   45.0900   59.9840 O.2   349  ASN349     -0.2718
     34  CB        26.5180   45.3170   57.1420 C.3   349  ASN349      0.1169
     35  CG        27.5730   46.3770   57.3870 C.2   349  ASN349      0.2627
     36  OD1       27.2660   47.5640   57.4720 O.2   349  ASN349     -0.2716
     37  ND2       28.8230   45.9520   57.5070 N.am  349  ASN349     -0.0877
     38  N         27.4900   44.7840   60.3340 N.am  350  THR350     -0.1939
     39  CA        27.4410   45.2670   61.7110 C.3   350  THR350      0.2028
     40  C         27.4240   46.7940   61.7880 C.2   350  THR350      0.2642
     41  O         28.3290   47.4070   62.3510 O.2   350  THR350     -0.2714
     42  CB        28.6200   44.7270   62.5400 C.3   350  THR350      0.1808
     43  OG1       29.8540   45.0780   61.9010 O.3   350  THR350     -0.2208
     44  CG2       28.5360   43.2110   62.6680 C.3   350  THR350      0.0379
     45  N         26.3830   47.3960   61.2210 N.am  351  ASN351     -0.1957
     46  CA        26.2140   48.8450   61.2220 C.3   351  ASN351      0.1819
     47  C         25.1910   49.2370   62.2900 C.2   351  ASN351      0.2621
     48  O         24.0620   48.7540   62.2810 O.2   351  ASN351     -0.2715
     49  CB        25.7710   49.3090   59.8270 C.3   351  ASN351      0.1195
     50  CG        26.0020   50.7920   59.5880 C.2   351  ASN351      0.2630
     51  OD1       25.6820   51.6290   60.4310 O.2   351  ASN351     -0.2716
     52  ND2       26.5610   51.1200   58.4220 N.am  351  ASN351     -0.0877
     53  N         25.5910   50.1040   63.2160 N.am  352  LYS352     -0.1963
     54  CA        24.7480   50.4500   64.3600 C.3   352  LYS352      0.1728
     55  C         23.5510   51.3320   63.9910 C.2   352  LYS352      0.2617
     56  O         22.6430   51.5270   64.8000 O.2   352  LYS352     -0.2715
     57  CB        25.5800   51.1210   65.4560 C.3   352  LYS352      0.0311
     58  CG        26.7940   50.3140   65.8920 C.3   352  LYS352      0.0038
     59  CD        27.5280   50.9880   67.0430 C.3   352  LYS352      0.0206
     60  CE        29.0100   50.6250   67.0530 C.3   352  LYS352      0.1093
     61  NZ        29.2420   49.1530   67.1070 N.3   352  LYS352     -0.1314
     62  N         23.5560   51.8650   62.7720 N.am  353  SER353     -0.1936
     63  CA        22.4480   52.6830   62.2820 C.3   353  SER353      0.2055
     64  C         21.6070   51.9050   61.2710 C.2   353  SER353      0.2643
     65  O         20.7430   52.4630   60.5920 O.2   353  SER353     -0.2714
     66  CB        22.9760   53.9720   61.6480 C.3   353  SER353      0.2130
     67  OG        23.5310   54.8280   62.6310 O.3   353  SER353     -0.2179
     68  N         21.8740   50.6070   61.1920 N.am  354  TYR354     -0.1973
     69  CA        21.2370   49.7050   60.2410 C.3   354  TYR354      0.1639
     70  C         20.1260   48.9470   60.9700 C.2   354  TYR354      0.2290
     71  O         20.3810   48.2750   61.9700 O.2   354  TYR354     -0.2864
     72  CB        22.3060   48.7430   59.7110 C.3   354  TYR354      0.0560
     73  CG        21.8850   47.7310   58.6710 C.ar  354  TYR354     -0.0198
     74  CD1       20.8200   47.9690   57.8100 C.ar  354  TYR354     -0.0009
     75  CD2       22.5700   46.5290   58.5490 C.ar  354  TYR354     -0.0009
     76  CE1       20.4510   47.0280   56.8590 C.ar  354  TYR354      0.0417
     77  CE2       22.2100   45.5910   57.6080 C.ar  354  TYR354      0.0417
     78  CZ        21.1520   45.8400   56.7670 C.ar  354  TYR354      0.1957
     79  OH        20.8040   44.8940   55.8320 O.3   354  TYR354     -0.2866
     80  N         29.3870   44.0010   52.2680 N.3   380  PRO380     -0.2116
     81  CA        29.2650   45.2760   52.9910 C.3   380  PRO380      0.1372
     82  C         30.4120   45.5190   53.9720 C.2   380  PRO380      0.2244
     83  O         30.6230   46.6470   54.4210 O.2   380  PRO380     -0.2868
     84  CB        27.9430   45.1210   53.7550 C.3   380  PRO380      0.0268
     85  CG        27.7790   43.6660   53.9290 C.3   380  PRO380      0.0207
     86  CD        28.3510   43.0390   52.6910 C.3   380  PRO380      0.0892
@<TRIPOS>BOND
     1    26    25    2
     2    25    24    1
     3    24    23    1
     4    24    27    1
     5    23    29    1
     6    27    28    1
     7    29    28    1
     8     1     2    1
     9     9    10    1
    10     9     3   am
    11     2     3    1
    12     2     5    1
    13    10    11    1
    14    10    13    1
    15     3     4    2
    16    11    12    2
    17     7     6   ar
    18     5     6    1
    19    17    16    2
    20     6     8   ar
    21    14    15    1
    22    80    86    1
    23    80    81    1
    24    16    15    1
    25    86    85    1
    26    15    18    1
    27    81    84    1
    28    81    82    1
    29    84    85    1
    30    18    19    1
    31    82    83    2
    32    22    21    1
    33    19    20    1
    34    21    20    1
    35    79    78    1
    36    78    76   ar
    37    78    77   ar
    38    76    74   ar
    39    34    35    1
    40    34    31    1
    41    35    36    2
    42    35    37   am
    43    77    75   ar
    44    74    73   ar
    45    30    31    1
    46    31    32    1
    47    52    50   am
    48    75    73   ar
    49    73    72    1
    50    32    33    2
    51    32    38   am
    52    50    49    1
    53    50    51    2
    54    72    69    1
    55    49    46    1
    56    69    70    1
    57    69    68    1
    58    38    39    1
    59    65    64    2
    60    70    71    2
    61    68    64   am
    62    45    46    1
    63    45    40   am
    64    46    47    1
    65    64    63    1
    66    66    63    1
    67    66    67    1
    68    39    40    1
    69    39    42    1
    70    40    41    2
    71    43    42    1
    72    48    47    2
    73    63    62    1
    74    47    53   am
    75    42    44    1
    76    62    55   am
    77    53    54    1
    78    55    54    1
    79    55    56    2
    80    54    57    1
    81    57    58    1
    82    58    59    1
    83    59    60    1
    84    60    61    1
