@<TRIPOS>MOLECULE
tmp/3wenA00.pdb
 234 227 0 0 0
SMALL
GASTEIGER

@<TRIPOS>ATOM
      1  N         32.6370   28.2060   48.6020 N.3   179  ASP179     -0.1225
      2  CA        32.5450   29.2580   47.5990 C.3   179  ASP179      0.1805
      3  C         33.6540   29.0880   46.5610 C.2   179  ASP179      0.2598
      4  O         34.6260   29.8420   46.5520 O.2   179  ASP179     -0.2718
      5  CB        32.6320   30.6380   48.2680 C.3   179  ASP179      0.1424
      6  CG        32.3630   31.7880   47.2980 C.2   179  ASP179      0.3668
      7  OD1       32.0120   31.5180   46.1290 O.co2 179  ASP179     -0.2456
      8  OD2       32.4890   32.9620   47.7150 O.co2 179  ASP179     -0.2456
      9  N         33.5020   28.0860   45.6990 N.am  180  ILE180     -0.1966
     10  CA        34.4930   27.7710   44.6730 C.3   180  ILE180      0.1727
     11  C         33.8230   27.7830   43.3040 C.2   180  ILE180      0.2616
     12  O         32.8100   27.1080   43.0940 O.2   180  ILE180     -0.2715
     13  CB        35.1290   26.3780   44.9090 C.3   180  ILE180      0.0290
     14  CG1       36.0140   26.3820   46.1530 C.3   180  ILE180      0.0022
     15  CG2       35.9430   25.9330   43.6990 C.3   180  ILE180      0.0023
     16  CD1       36.5440   25.0160   46.5030 C.3   180  ILE180      0.0001
     17  N         34.3920   28.5510   42.3790 N.am  181  ALA181     -0.1977
     18  CA        33.7820   28.7770   41.0670 C.3   181  ALA181      0.1597
     19  C         33.6170   27.4920   40.2610 C.2   181  ALA181      0.2287
     20  O         34.4870   26.6220   40.2740 O.2   181  ALA181     -0.2864
     21  CB        34.5780   29.8090   40.2770 C.3   181  ALA181      0.0319
     22  N         33.7780   27.0660   37.1880 N.3   183  PHE183     -0.1227
     23  CA        34.6930   26.9250   36.0580 C.3   183  PHE183      0.1736
     24  C         35.8980   26.0580   36.4170 C.2   183  PHE183      0.2595
     25  O         36.6520   25.6370   35.5430 O.2   183  PHE183     -0.2718
     26  CB        35.0980   28.2730   35.4270 C.3   183  PHE183      0.0547
     27  CG        35.7390   29.2550   36.3770 C.ar  183  PHE183     -0.0202
     28  CD1       36.9490   28.9730   36.9970 C.ar  183  PHE183     -0.0042
     29  CD2       35.1600   30.4970   36.5930 C.ar  183  PHE183     -0.0042
     30  CE1       37.5430   29.8930   37.8450 C.ar  183  PHE183     -0.0003
     31  CE2       35.7520   31.4210   37.4360 C.ar  183  PHE183     -0.0003
     32  CZ        36.9460   31.1170   38.0620 C.ar  183  PHE183     -0.0000
     33  N         36.0680   25.7980   37.7100 N.am  184  ASN184     -0.1974
     34  CA        37.0560   24.8360   38.1710 C.3   184  ASN184      0.1688
     35  C         36.4950   23.4250   38.0620 C.2   184  ASN184      0.2292
     36  O         35.4330   23.1280   38.6070 O.2   184  ASN184     -0.2864
     37  CB        37.4720   25.1220   39.6180 C.3   184  ASN184      0.1181
     38  CG        38.2040   26.4460   39.7720 C.2   184  ASN184      0.2629
     39  OD1       39.3520   26.5840   39.3560 O.2   184  ASN184     -0.2716
     40  ND2       37.5470   27.4190   40.3920 N.am  184  ASN184     -0.0877
     41  N         36.7760   20.1640   41.5780 N.3   187  LEU187     -0.1245
     42  CA        36.7180   20.6770   42.9510 C.3   187  LEU187      0.1561
     43  C         35.3060   20.6540   43.5500 C.2   187  LEU187      0.2260
     44  O         34.3140   20.7260   42.8230 O.2   187  LEU187     -0.2867
     45  CB        37.3080   22.0920   43.0250 C.3   187  LEU187      0.0270
     46  CG        38.6960   22.2760   42.3960 C.3   187  LEU187      0.0019
     47  CD1       39.2750   23.6490   42.6950 C.3   187  LEU187      0.0001
     48  CD2       39.6460   21.1900   42.8520 C.3   187  LEU187      0.0001
     49  N         26.0040   41.6130   37.3550 N.3   276  TRP276     -0.1241
     50  CA        26.6950   42.2710   38.4440 C.3   276  TRP276      0.1605
     51  C         27.3100   43.5200   37.8550 C.2   276  TRP276      0.2264
     52  O         28.1820   43.4280   37.0010 O.2   276  TRP276     -0.2867
     53  CB        27.7990   41.3680   38.9870 C.3   276  TRP276      0.0550
     54  CG        28.6610   42.0130   40.0360 C.ar  276  TRP276      0.0003
     55  CD1       28.2990   42.9990   40.9070 C.ar  276  TRP276      0.0946
     56  CD2       30.0360   41.7200   40.3120 C.ar  276  TRP276      0.0152
     57  NE1       29.3610   43.3350   41.7100 N.ar  276  TRP276     -0.2442
     58  CE2       30.4410   42.5630   41.3640 C.ar  276  TRP276      0.0810
     59  CE3       30.9670   40.8280   39.7700 C.ar  276  TRP276      0.0012
     60  CZ2       31.7320   42.5370   41.8870 C.ar  276  TRP276      0.0191
     61  CZ3       32.2480   40.8030   40.2900 C.ar  276  TRP276      0.0001
     62  CH2       32.6180   41.6510   41.3370 C.ar  276  TRP276      0.0015
     63  N         21.5740   42.8300   40.9050 N.3   304  ASP304     -0.1225
     64  CA        22.5910   42.2750   41.7850 C.3   304  ASP304      0.1805
     65  C         22.8560   43.2240   42.9490 C.2   304  ASP304      0.2597
     66  O         22.0970   44.1630   43.1700 O.2   304  ASP304     -0.2718
     67  CB        23.8760   42.0170   41.0030 C.3   304  ASP304      0.1424
     68  CG        24.7090   40.9170   41.6060 C.2   304  ASP304      0.3668
     69  OD1       24.8870   40.9210   42.8420 O.co2 304  ASP304     -0.2456
     70  OD2       25.1730   40.0430   40.8470 O.co2 304  ASP304     -0.2456
     71  N         23.9480   42.9940   43.6780 N.am  305  ILE305     -0.1980
     72  CA        24.2330   43.7420   44.9080 C.3   305  ILE305      0.1595
     73  C         24.3660   45.2500   44.6980 C.2   305  ILE305      0.2287
     74  O         24.4820   46.0120   45.6600 O.2   305  ILE305     -0.2864
     75  CB        25.4880   43.2090   45.6240 C.3   305  ILE305      0.0276
     76  CG1       26.7170   43.3270   44.7170 C.3   305  ILE305      0.0022
     77  CG2       25.2760   41.7700   46.0630 C.3   305  ILE305      0.0022
     78  CD1       27.9960   42.7880   45.3440 C.3   305  ILE305      0.0001
     79  N         18.7000   40.3330   44.6780 N.3   343  ILE343     -0.1245
     80  CA        19.5660   39.3560   45.3260 C.3   343  ILE343      0.1561
     81  C         19.6370   39.5950   46.8360 C.2   343  ILE343      0.2260
     82  O         19.4080   40.7100   47.3010 O.2   343  ILE343     -0.2867
     83  CB        20.9900   39.4010   44.7120 C.3   343  ILE343      0.0252
     84  CG1       21.8280   38.1940   45.1450 C.3   343  ILE343      0.0019
     85  CG2       21.6930   40.7100   45.0550 C.3   343  ILE343      0.0019
     86  CD1       23.2300   38.1940   44.5550 C.3   343  ILE343      0.0001
     87  N         22.1550   38.3330   50.3820 N.3   345  ASP345     -0.1239
     88  CA        23.2470   37.5890   51.0010 C.3   345  ASP345      0.1674
     89  C         22.8280   37.2470   52.4260 C.2   345  ASP345      0.2266
     90  O         21.9370   37.8830   52.9690 O.2   345  ASP345     -0.2867
     91  CB        24.5270   38.4240   51.0080 C.3   345  ASP345      0.1410
     92  CG        25.0380   38.7270   49.6050 C.2   345  ASP345      0.3668
     93  OD1       24.8360   37.8910   48.6950 O.co2 345  ASP345     -0.2456
     94  OD2       25.6390   39.8050   49.4110 O.co2 345  ASP345     -0.2456
     95  N         30.5580   41.3200   51.3220 N.3   379  TRP379     -0.1241
     96  CA        30.4960   42.5730   50.5600 C.3   379  TRP379      0.1605
     97  C         30.4070   43.8700   51.3900 C.2   379  TRP379      0.2264
     98  O         31.2550   44.7490   51.2350 O.2   379  TRP379     -0.2867
     99  CB        29.3950   42.5260   49.4880 C.3   379  TRP379      0.0550
    100  CG        29.4670   41.3270   48.5880 C.ar  379  TRP379      0.0003
    101  CD1       28.5040   40.3800   48.4110 C.ar  379  TRP379      0.0946
    102  CD2       30.5610   40.9490   47.7430 C.ar  379  TRP379      0.0152
    103  NE1       28.9270   39.4380   47.5070 N.ar  379  TRP379     -0.2442
    104  CE2       30.1870   39.7640   47.0830 C.ar  379  TRP379      0.0810
    105  CE3       31.8170   41.5000   47.4790 C.ar  379  TRP379      0.0012
    106  CZ2       31.0250   39.1180   46.1790 C.ar  379  TRP379      0.0191
    107  CZ3       32.6460   40.8570   46.5800 C.ar  379  TRP379      0.0001
    108  CH2       32.2470   39.6800   45.9410 C.ar  379  TRP379      0.0015
    109  N         16.7020   35.9990   45.1080 N.3   414  TRP414     -0.1241
    110  CA        17.9350   35.3190   44.7530 C.3   414  TRP414      0.1605
    111  C         18.8040   35.2920   46.0030 C.2   414  TRP414      0.2264
    112  O         19.2640   36.3340   46.4570 O.2   414  TRP414     -0.2867
    113  CB        18.6180   36.0920   43.6190 C.3   414  TRP414      0.0550
    114  CG        19.9490   35.5640   43.1530 C.ar  414  TRP414      0.0003
    115  CD1       20.4850   34.3310   43.3970 C.ar  414  TRP414      0.0946
    116  CD2       20.9110   36.2680   42.3560 C.ar  414  TRP414      0.0152
    117  NE1       21.7200   34.2260   42.8010 N.ar  414  TRP414     -0.2442
    118  CE2       22.0050   35.4020   42.1580 C.ar  414  TRP414      0.0810
    119  CE3       20.9520   37.5470   41.7910 C.ar  414  TRP414      0.0012
    120  CZ2       23.1300   35.7770   41.4210 C.ar  414  TRP414      0.0191
    121  CZ3       22.0690   37.9170   41.0590 C.ar  414  TRP414      0.0001
    122  CH2       23.1410   37.0340   40.8790 C.ar  414  TRP414      0.0015
    123  N         22.2760   34.2270   47.7050 N.3   416  ASP416     -0.1225
    124  CA        23.6330   33.9800   47.2480 C.3   416  ASP416      0.1805
    125  C         24.5820   33.9480   48.4450 C.2   416  ASP416      0.2597
    126  O         24.1700   34.2450   49.5670 O.2   416  ASP416     -0.2718
    127  CB        24.0330   35.0960   46.2780 C.3   416  ASP416      0.1424
    128  CG        25.2780   34.7680   45.4850 C.2   416  ASP416      0.3668
    129  OD1       25.5930   33.5710   45.3280 O.co2 416  ASP416     -0.2456
    130  OD2       25.9410   35.7170   45.0170 O.co2 416  ASP416     -0.2456
    131  N         25.8400   33.5740   48.2020 N.am  417  MET417     -0.1979
    132  CA        26.8870   33.5680   49.2300 C.3   417  MET417      0.1605
    133  C         26.5110   32.7630   50.4720 C.2   417  MET417      0.2287
    134  O         27.0080   33.0360   51.5660 O.2   417  MET417     -0.2864
    135  CB        27.2350   34.9970   49.6560 C.3   417  MET417      0.0413
    136  CG        27.4330   35.9720   48.5090 C.3   417  MET417      0.0598
    137  SD        28.8520   35.5740   47.4800 S.3   417  MET417     -0.1393
    138  CE        30.1900   35.9520   48.6050 C.3   417  MET417      0.0692
    139  N         35.2710   35.9600   53.6610 N.3   423  PHE423     -0.1241
    140  CA        36.4330   36.4240   52.9110 C.3   423  PHE423      0.1605
    141  C         37.7260   36.3040   53.7150 C.2   423  PHE423      0.2264
    142  O         38.8210   36.3580   53.1550 O.2   423  PHE423     -0.2867
    143  CB        36.2330   37.8640   52.4240 C.3   423  PHE423      0.0534
    144  CG        35.1200   38.0240   51.4140 C.ar  423  PHE423     -0.0203
    145  CD1       34.4380   36.9220   50.9190 C.ar  423  PHE423     -0.0042
    146  CD2       34.7630   39.2820   50.9540 C.ar  423  PHE423     -0.0042
    147  CE1       33.4190   37.0740   49.9980 C.ar  423  PHE423     -0.0003
    148  CE2       33.7480   39.4370   50.0270 C.ar  423  PHE423     -0.0003
    149  CZ        33.0770   38.3320   49.5490 C.ar  423  PHE423     -0.0000
    150  N         38.9180   21.8520   48.0690 N.3   444  SER444     -0.1202
    151  CA        39.5590   22.6620   47.0290 C.3   444  SER444      0.2020
    152  C         40.7140   21.9470   46.3200 C.2   444  SER444      0.2619
    153  O         41.6010   22.5870   45.7530 O.2   444  SER444     -0.2717
    154  CB        40.0110   24.0190   47.5810 C.3   444  SER444      0.2103
    155  OG        40.3450   24.9090   46.5260 O.3   444  SER444     -0.2182
    156  N         40.6900   20.6180   46.3610 N.am  445  GLY445     -0.1942
    157  CA        41.6560   19.7960   45.6540 C.3   445  GLY445      0.2014
    158  C         43.0650   19.8070   46.2200 C.2   445  GLY445      0.2639
    159  O         44.0160   19.4380   45.5290 O.2   445  GLY445     -0.2714
    160  N         43.2070   20.2230   47.4750 N.am  446  GLY446     -0.1954
    161  CA        44.5190   20.2960   48.0920 C.3   446  GLY446      0.1869
    162  C         44.5100   20.1220   49.5980 C.2   446  GLY446      0.2309
    163  O         45.3250   20.7290   50.2910 O.2   446  GLY446     -0.2863
    164  N         42.8620   21.3690   51.7380 N.3   448  VAL448     -0.1245
    165  CA        42.6580   22.6550   52.3900 C.3   448  VAL448      0.1561
    166  C         41.7210   22.5070   53.5890 C.2   448  VAL448      0.2260
    167  O         40.6820   21.8570   53.4830 O.2   448  VAL448     -0.2867
    168  CB        42.0470   23.6750   51.3970 C.3   448  VAL448      0.0252
    169  CG1       41.8150   25.0170   52.0710 C.3   448  VAL448      0.0019
    170  CG2       42.9330   23.8250   50.1630 C.3   448  VAL448      0.0019
    171  N         22.3610   29.4370   45.6840 N.3   499  ARG499     -0.1245
    172  CA        23.6610   28.9410   45.2490 C.3   499  ARG499      0.1563
    173  C         24.0250   27.6760   46.0080 C.2   499  ARG499      0.2260
    174  O         24.1460   26.6040   45.4200 O.2   499  ARG499     -0.2867
    175  CB        24.7550   29.9930   45.4310 C.3   499  ARG499      0.0307
    176  CG        26.0190   29.6670   44.6500 C.3   499  ARG499      0.0489
    177  CD        26.9740   30.8480   44.5690 C.3   499  ARG499      0.2205
    178  NE        27.6770   31.0570   45.8310 N.pl3 499  ARG499     -0.0865
    179  CZ        28.6010   31.9910   46.0290 C.cat 499  ARG499      0.5346
    180  NH1       28.9390   32.8140   45.0470 N.pl3 499  ARG499      0.1354
    181  NH2       29.1860   32.1040   47.2120 N.pl3 499  ARG499      0.1354
    182  N         21.4040   27.4520   40.1260 N.3   512  TRP512     -0.1241
    183  CA        22.1620   27.7120   38.9100 C.3   512  TRP512      0.1605
    184  C         23.6120   27.3010   39.1440 C.2   512  TRP512      0.2264
    185  O         24.0680   27.2750   40.2860 O.2   512  TRP512     -0.2867
    186  CB        22.0180   29.1720   38.4500 C.3   512  TRP512      0.0550
    187  CG        23.0700   30.1300   38.9320 C.ar  512  TRP512      0.0003
    188  CD1       24.0730   30.6810   38.1880 C.ar  512  TRP512      0.0946
    189  CD2       23.2090   30.6720   40.2540 C.ar  512  TRP512      0.0152
    190  NE1       24.8310   31.5240   38.9620 N.ar  512  TRP512     -0.2442
    191  CE2       24.3240   31.5360   40.2340 C.ar  512  TRP512      0.0810
    192  CE3       22.5080   30.5010   41.4530 C.ar  512  TRP512      0.0012
    193  CZ2       24.7520   32.2310   41.3640 C.ar  512  TRP512      0.0191
    194  CZ3       22.9340   31.1940   42.5750 C.ar  512  TRP512      0.0001
    195  CH2       24.0480   32.0470   42.5220 C.ar  512  TRP512      0.0015
    196  N         29.3600   30.3090   39.3440 N.3   515  ASP515     -0.1239
    197  CA        30.3380   31.1270   38.6450 C.3   515  ASP515      0.1674
    198  C         31.0840   30.3520   37.5690 C.2   515  ASP515      0.2266
    199  O         32.2190   29.9200   37.7760 O.2   515  ASP515     -0.2867
    200  CB        31.3290   31.7530   39.6280 C.3   515  ASP515      0.1410
    201  CG        30.6980   32.8320   40.4820 C.2   515  ASP515      0.3668
    202  OD1       29.5200   33.1640   40.2440 O.co2 515  ASP515     -0.2456
    203  OD2       31.3750   33.3540   41.3940 O.co2 515  ASP515     -0.2456
    204  N         29.6480   33.7450   33.1180 N.3   548  PHE548     -0.1227
    205  CA        29.6960   34.7870   34.1360 C.3   548  PHE548      0.1736
    206  C         31.0310   35.5250   34.1550 C.2   548  PHE548      0.2595
    207  O         31.0860   36.7380   33.9480 O.2   548  PHE548     -0.2718
    208  CB        29.4210   34.1860   35.5160 C.3   548  PHE548      0.0547
    209  CG        29.6750   35.1350   36.6510 C.ar  548  PHE548     -0.0202
    210  CD1       28.7770   36.1510   36.9310 C.ar  548  PHE548     -0.0042
    211  CD2       30.8110   35.0110   37.4400 C.ar  548  PHE548     -0.0042
    212  CE1       29.0020   37.0260   37.9710 C.ar  548  PHE548     -0.0003
    213  CE2       31.0450   35.8870   38.4810 C.ar  548  PHE548     -0.0003
    214  CZ        30.1370   36.8960   38.7500 C.ar  548  PHE548     -0.0000
    215  N         32.1010   34.7880   34.4300 N.am  549  ALA549     -0.1980
    216  CA        33.4320   35.3760   34.5030 C.3   549  ALA549      0.1597
    217  C         34.1090   35.3840   33.1380 C.2   549  ALA549      0.2287
    218  O         33.7590   34.5970   32.2540 O.2   549  ALA549     -0.2864
    219  CB        34.2930   34.6410   35.5310 C.3   549  ALA549      0.0319
    220  N         23.7030   36.3010   32.6590 N.3   573  HIS573     -0.1241
    221  CA        24.3210   36.9430   33.8190 C.3   573  HIS573      0.1621
    222  C         25.8390   37.0130   33.6690 C.2   573  HIS573      0.2264
    223  O         26.4460   36.1340   33.0590 O.2   573  HIS573     -0.2867
    224  CB        23.9520   36.2010   35.1080 C.3   573  HIS573      0.0745
    225  CG        24.5440   36.8080   36.3420 C.ar  573  HIS573      0.0817
    226  ND1       24.2620   38.0950   36.7460 N.ar  573  HIS573     -0.2268
    227  CD2       25.4130   36.3100   37.2540 C.ar  573  HIS573      0.1154
    228  CE1       24.9260   38.3620   37.8570 C.ar  573  HIS573      0.1986
    229  NE2       25.6330   37.2960   38.1850 N.ar  573  HIS573     -0.2212
    230  N         29.7870   39.0020   35.4100 N.3   575  ALA575     -0.1245
    231  CA        30.5100   39.8500   36.3510 C.3   575  ALA575      0.1562
    232  C         30.7240   41.2410   35.7610 C.2   575  ALA575      0.2260
    233  O         30.6120   41.4280   34.5480 O.2   575  ALA575     -0.2867
    234  CB        31.8390   39.2170   36.7030 C.3   575  ALA575      0.0290
@<TRIPOS>BOND
     1   218   217    2
     2   220   221    1
     3   223   222    2
     4   204   205    1
     5   217   216    1
     6   222   221    1
     7   221   224    1
     8   207   206    2
     9   205   206    1
    10   205   208    1
    11   206   215   am
    12   215   216    1
    13   216   219    1
    14   233   232    2
    15   224   225    1
    16   230   231    1
    17    26    23    1
    18    26    27    1
    19   208   209    1
    20    25    24    2
    21   232   231    1
    22    23    24    1
    23    23    22    1
    24   225   226   ar
    25   225   227   ar
    26   231   234    1
    27    27    29   ar
    28    27    28   ar
    29    24    33   am
    30    29    31   ar
    31   209   210   ar
    32   209   211   ar
    33   226   228   ar
    34   210   212   ar
    35    28    30   ar
    36    52    51    2
    37   227   229   ar
    38    49    50    1
    39    31    32   ar
    40   211   213   ar
    41   198   199    2
    42   198   197    1
    43    33    34    1
    44    30    32   ar
    45    51    50    1
    46   228   229   ar
    47   212   214   ar
    48    35    34    1
    49    35    36    2
    50    34    37    1
    51   188   187   ar
    52   188   190   ar
    53    50    53    1
    54   186   183    1
    55   186   187    1
    56   213   214   ar
    57   197   196    1
    58   197   200    1
    59   183   184    1
    60   183   182    1
    61   187   189   ar
    62   190   191   ar
    63    53    54    1
    64   184   185    2
    65    39    38    2
    66    37    38    1
    67   200   201    1
    68    59    61   ar
    69    59    56   ar
    70    38    40   am
    71    54    56   ar
    72    54    55   ar
    73   191   189   ar
    74   191   193   ar
    75   202   201   ar
    76   189   192   ar
    77    19    20    2
    78    19    18    1
    79    21    18    1
    80    61    62   ar
    81    56    58   ar
    82   201   203   ar
    83    70    68   ar
    84   122   121   ar
    85   122   120   ar
    86    63    64    1
    87    55    57   ar
    88    67    68    1
    89    67    64    1
    90   121   119   ar
    91    18    17    1
    92    62    60   ar
    93   193   195   ar
    94    58    57   ar
    95    58    60   ar
    96   120   118   ar
    97   192   194   ar
    98    41    42    1
    99    68    69   ar
   100    64    65    1
   101   119   116   ar
   102   118   116   ar
   103   118   117   ar
   104   116   114   ar
   105    17    11   am
   106    46    47    1
   107    46    48    1
   108    46    45    1
   109   195   194   ar
   110   117   115   ar
   111    44    43    2
   112    65    66    2
   113    65    71   am
   114    42    45    1
   115    42    43    1
   116    12    11    2
   117   114   115   ar
   118   114   113    1
   119    11    10    1
   120   113   110    1
   121    71    72    1
   122    15    13    1
   123    86    84    1
   124   177   176    1
   125   177   178    1
   126   176   175    1
   127    10    13    1
   128    10     9    1
   129    79    80    1
   130    73    72    1
   131    73    74    2
   132    83    85    1
   133    83    84    1
   134    83    80    1
   135    76    78    1
   136    76    75    1
   137   110   109    1
   138   110   111    1
   139    72    75    1
   140    13    14    1
   141   130   128   ar
   142   180   179    1
   143   172   175    1
   144   172   171    1
   145   172   173    1
   146    80    81    1
   147   129   128   ar
   148   174   173    2
   149   128   127    1
   150   159   158    2
   151    75    77    1
   152   157   158    1
   153   157   156    1
   154     9     3   am
   155   153   152    2
   156   178   179    2
   157   108   106   ar
   158   108   107   ar
   159   111   112    2
   160   179   181    1
   161     7     6   ar
   162    14    16    1
   163   106   104   ar
   164   158   160   am
   165   127   124    1
   166   152   156   am
   167   152   151    1
   168   155   154    1
   169     4     3    2
   170     3     2    1
   171   107   105   ar
   172    81    82    2
   173   151   154    1
   174   151   150    1
   175   104   103   ar
   176   104   102   ar
   177   124   123    1
   178   124   125    1
   179     6     8   ar
   180     6     5    1
   181   160   161    1
   182   105   102   ar
   183   137   136    1
   184   137   138    1
   185   103   101   ar
   186     2     5    1
   187     2     1    1
   188   102   100   ar
   189   161   162    1
   190   131   125   am
   191   131   132    1
   192   101   100   ar
   193   125   126    2
   194   136   135    1
   195   100    99    1
   196    93    92   ar
   197   132   135    1
   198   132   133    1
   199    94    92   ar
   200    99    96    1
   201   149   147   ar
   202   149   148   ar
   203   162   163    2
   204    92    91    1
   205   147   145   ar
   206   148   146   ar
   207   170   168    1
   208    87    88    1
   209   133   134    2
   210    96    95    1
   211    96    97    1
   212   145   144   ar
   213   146   144   ar
   214    88    91    1
   215    88    89    1
   216    98    97    2
   217   168   169    1
   218   168   165    1
   219   144   143    1
   220   164   165    1
   221   165   166    1
   222   143   140    1
   223    89    90    2
   224   140   139    1
   225   140   141    1
   226   142   141    2
   227   167   166    2
