@<TRIPOS>MOLECULE
tmp/3wevB00.pdb
 86 82 0 0 0
SMALL
GASTEIGER

@<TRIPOS>ATOM
      1  N         62.7420  -24.4470   67.5230 N.3   382  VAL382     -0.1245
      2  CA        62.6830  -23.0410   67.1590 C.3   382  VAL382      0.1561
      3  C         61.4620  -22.2460   67.7360 C.2   382  VAL382      0.2260
      4  O         61.6400  -21.1490   68.3020 O.2   382  VAL382     -0.2867
      5  CB        62.7120  -22.9390   65.6280 C.3   382  VAL382      0.0252
      6  CG1       62.5810  -21.4880   65.1720 C.3   382  VAL382      0.0019
      7  CG2       64.0530  -23.5130   65.1120 C.3   382  VAL382      0.0019
      8  N         64.1650  -29.1000   59.6830 N.3   444  CYS444     -0.1221
      9  CA        63.5830  -27.8230   60.1620 C.3   444  CYS444      0.1794
     10  C         64.1650  -26.5990   59.4650 C.2   444  CYS444      0.2443
     11  O         64.5730  -25.6590   60.1470 O.2   444  CYS444     -0.2733
     12  CB        63.7980  -27.7120   61.6480 C.3   444  CYS444      0.0970
     13  SG        62.8330  -26.3900   62.4970 S.3   444  CYS444     -0.0800
     14  N         64.1350  -26.5620   58.1320 N.am  445  PRO445     -0.2718
     15  CA        63.5470  -27.5820   57.2430 C.3   445  PRO445      0.1535
     16  C         64.5000  -28.7120   56.8340 C.2   445  PRO445      0.2599
     17  O         64.0720  -29.7620   56.3820 O.2   445  PRO445     -0.2715
     18  CB        63.1910  -26.7950   56.0080 C.3   445  PRO445      0.0310
     19  CG        64.2860  -25.7430   55.9550 C.3   445  PRO445      0.0237
     20  CD        64.5910  -25.3610   57.3720 C.3   445  PRO445      0.0939
     21  N         65.8010  -28.4900   56.9760 N.am  446  GLY446     -0.1955
     22  CA        66.7730  -29.4380   56.5170 C.3   446  GLY446      0.1869
     23  C         67.6840  -28.8090   55.4980 C.2   446  GLY446      0.2309
     24  O         67.8680  -27.5980   55.4930 O.2   446  GLY446     -0.2863
     25  N         69.0000  -21.2890   54.7110 N.3   508  ASP508     -0.1239
     26  CA        69.0730  -22.5800   55.4430 C.3   508  ASP508      0.1674
     27  C         70.5460  -22.8340   55.8820 C.2   508  ASP508      0.2266
     28  O         70.7790  -23.4160   56.9470 O.2   508  ASP508     -0.2867
     29  CB        68.6140  -23.8050   54.6310 C.3   508  ASP508      0.1410
     30  CG        67.1090  -23.8610   54.4000 C.2   508  ASP508      0.3668
     31  OD1       66.3880  -23.3870   55.3080 O.co2 508  ASP508     -0.2456
     32  OD2       66.6240  -24.3750   53.3270 O.co2 508  ASP508     -0.2456
     33  N         71.8800  -20.5710   58.7740 N.3   511  ASN511     -0.1225
     34  CA        71.2350  -20.9060   60.0340 C.3   511  ASN511      0.1785
     35  C         71.3880  -22.3730   60.5080 C.2   511  ASN511      0.2597
     36  O         71.0390  -22.7050   61.6520 O.2   511  ASN511     -0.2718
     37  CB        69.7670  -20.5010   59.9370 C.3   511  ASN511      0.1169
     38  CG        69.6040  -18.9780   60.0320 C.2   511  ASN511      0.2627
     39  OD1       70.0180  -18.3670   60.9850 O.2   511  ASN511     -0.2716
     40  ND2       69.1120  -18.3880   59.0090 N.am  511  ASN511     -0.0877
     41  N         71.9970  -23.2120   59.6540 N.am  512  CYS512     -0.1970
     42  CA        72.1960  -24.6500   59.9160 C.3   512  CYS512      0.1712
     43  C         73.4840  -24.7470   60.6890 C.2   512  CYS512      0.2296
     44  O         74.5060  -25.1490   60.1710 O.2   512  CYS512     -0.2864
     45  CB        72.3330  -25.4400   58.6120 C.3   512  CYS512      0.0983
     46  SG        72.4420  -27.1830   59.0150 S.3   512  CYS512     -0.0798
     47  N         74.0230  -24.0940   65.0380 N.3   514  ILE514     -0.1231
     48  CA        73.6300  -24.5840   66.3480 C.3   514  ILE514      0.1692
     49  C         72.3290  -23.9600   66.7790 C.2   514  ILE514      0.2591
     50  O         71.9220  -22.9680   66.1940 O.2   514  ILE514     -0.2718
     51  CB        74.6980  -24.3350   67.3880 C.3   514  ILE514      0.0266
     52  CG1       74.9670  -22.8500   67.6120 C.3   514  ILE514      0.0019
     53  CG2       75.9550  -25.0630   66.9850 C.3   514  ILE514      0.0020
     54  CD1       74.1050  -22.3010   68.7090 C.3   514  ILE514      0.0001
     55  N         71.6890  -24.5750   67.7820 N.am  515  GLN515     -0.1979
     56  CA        70.5050  -24.0040   68.4090 C.3   515  GLN515      0.1601
     57  C         70.6890  -24.1030   69.8900 C.2   515  GLN515      0.2287
     58  O         71.1960  -25.1260   70.3720 O.2   515  GLN515     -0.2864
     59  CB        69.2570  -24.8220   68.0180 C.3   515  GLN515      0.0394
     60  CG        67.9410  -24.0620   68.2290 C.3   515  GLN515      0.0908
     61  CD        67.6640  -22.9800   67.2140 C.2   515  GLN515      0.2608
     62  OE1       68.2170  -22.9160   66.1250 O.2   515  GLN515     -0.2717
     63  NE2       66.7830  -22.0630   67.6110 N.am  515  GLN515     -0.0878
     64  N         61.1680  -20.5950   72.8010 N.3   526  LYS526     -0.1245
     65  CA        61.6410  -19.2660   72.9900 C.3   526  LYS526      0.1561
     66  C         60.6310  -18.4910   73.8460 C.2   526  LYS526      0.2260
     67  O         59.4440  -18.8320   73.9730 O.2   526  LYS526     -0.2867
     68  CB        61.9280  -18.5640   71.6570 C.3   526  LYS526      0.0271
     69  CG        63.1000  -19.1700   70.9230 C.3   526  LYS526      0.0035
     70  CD        63.3540  -18.5190   69.6190 C.3   526  LYS526      0.0206
     71  CE        64.5260  -19.2220   68.9600 C.3   526  LYS526      0.1093
     72  NZ        64.8040  -18.5020   67.6960 N.3   526  LYS526     -0.1314
     73  N         72.7630  -28.5590   64.5260 N.3   576  TRP576     -0.1241
     74  CA        71.7140  -28.7170   63.5910 C.3   576  TRP576      0.1605
     75  C         72.1230  -29.9500   62.7510 C.2   576  TRP576      0.2264
     76  O         71.4260  -30.9880   62.5330 O.2   576  TRP576     -0.2867
     77  CB        71.5770  -27.3990   62.7550 C.3   576  TRP576      0.0550
     78  CG        70.5040  -26.5480   63.4120 C.ar  576  TRP576      0.0003
     79  CD1       70.6400  -25.3640   63.9870 C.ar  576  TRP576      0.0946
     80  CD2       69.1250  -26.9100   63.4880 C.ar  576  TRP576      0.0152
     81  NE1       69.4070  -24.9400   64.5030 N.ar  576  TRP576     -0.2442
     82  CE2       68.4680  -25.8900   64.2030 C.ar  576  TRP576      0.0810
     83  CE3       68.4130  -28.0490   63.1190 C.ar  576  TRP576      0.0012
     84  CZ2       67.1480  -25.9640   64.5430 C.ar  576  TRP576      0.0191
     85  CZ3       67.0670  -28.1260   63.4370 C.ar  576  TRP576      0.0001
     86  CH2       66.4310  -27.0560   64.0820 C.ar  576  TRP576      0.0015
@<TRIPOS>BOND
     1    32    30   ar
     2    30    29    1
     3    30    31   ar
     4    29    26    1
     5    25    26    1
     6    26    27    1
     7    24    23    2
     8    23    22    1
     9    27    28    2
    10    19    18    1
    11    19    20    1
    12    18    15    1
    13    17    16    2
    14    22    21    1
    15    16    21   am
    16    16    15    1
    17    15    14    1
    18    20    14    1
    19    14    10   am
    20    45    46    1
    21    45    42    1
    22    33    34    1
    23    40    38   am
    24    10    11    2
    25    10     9    1
    26    41    42    1
    27    41    35   am
    28     8     9    1
    29    42    43    1
    30    37    38    1
    31    37    34    1
    32    38    39    2
    33    34    35    1
    34     9    12    1
    35    44    43    2
    36    35    36    2
    37    12    13    1
    38    76    75    2
    39    75    74    1
    40    77    78    1
    41    77    74    1
    42    83    85   ar
    43    83    80   ar
    44    78    80   ar
    45    78    79   ar
    46    85    86   ar
    47    80    82   ar
    48    74    73    1
    49    79    81   ar
    50    86    84   ar
    51    82    81   ar
    52    82    84   ar
    53    47    48    1
    54     7     5    1
    55     6     5    1
    56     5     2    1
    57    62    61    2
    58    50    49    2
    59    48    49    1
    60    48    51    1
    61    49    55   am
    62    53    51    1
    63     2     1    1
    64     2     3    1
    65    61    63   am
    66    61    60    1
    67    51    52    1
    68    52    54    1
    69    72    71    1
    70     3     4    2
    71    55    56    1
    72    59    60    1
    73    59    56    1
    74    56    57    1
    75    71    70    1
    76    70    69    1
    77    57    58    2
    78    69    68    1
    79    68    65    1
    80    64    65    1
    81    65    66    1
    82    66    67    2
