@<TRIPOS>MOLECULE
tmp/3wezD05.pdb
 165 161 0 0 0
SMALL
GASTEIGER

@<TRIPOS>ATOM
      1  N         34.1510  -14.4280   57.1740 N.3    55  TYR55      -0.1241
      2  CA        35.5030  -14.8470   57.5330 C.3    55  TYR55       0.1605
      3  C         36.4680  -14.1600   56.5760 C.2    55  TYR55       0.2264
      4  O         36.1540  -13.9870   55.3880 O.2    55  TYR55      -0.2867
      5  CB        35.6660  -16.3330   57.2740 C.3    55  TYR55       0.0534
      6  CG        35.1510  -17.2920   58.3200 C.ar   55  TYR55      -0.0201
      7  CD1       35.5380  -17.1610   59.6650 C.ar   55  TYR55      -0.0009
      8  CD2       34.3400  -18.3820   57.9550 C.ar   55  TYR55      -0.0009
      9  CE1       35.1170  -18.0680   60.6220 C.ar   55  TYR55       0.0417
     10  CE2       33.8960  -19.2830   58.9080 C.ar   55  TYR55       0.0417
     11  CZ        34.3100  -19.1330   60.2340 C.ar   55  TYR55       0.1957
     12  OH        33.9130  -20.0240   61.1700 O.3    55  TYR55      -0.2866
     13  N         40.1660  -20.0290   60.4520 N.3    98  ILE98      -0.1231
     14  CA        38.7230  -19.7870   60.2950 C.3    98  ILE98       0.1692
     15  C         37.9120  -21.0730   60.1860 C.2    98  ILE98       0.2592
     16  O         36.7000  -21.0270   60.3200 O.2    98  ILE98      -0.2718
     17  CB        38.4110  -18.9130   59.0530 C.3    98  ILE98       0.0266
     18  CG1       38.8890  -19.5900   57.7510 C.3    98  ILE98       0.0019
     19  CG2       38.9700  -17.5080   59.2230 C.3    98  ILE98       0.0020
     20  CD1       38.3280  -18.9620   56.4730 C.3    98  ILE98       0.0001
     21  N         38.5780  -22.2070   59.9610 N.am   99  CYS99      -0.1956
     22  CA        37.9440  -23.5370   59.7680 C.3    99  CYS99       0.1843
     23  C         37.1620  -23.5650   58.4190 C.2    99  CYS99       0.2625
     24  O         37.7790  -23.7190   57.3570 O.2    99  CYS99      -0.2714
     25  CB        37.0710  -23.9240   60.9850 C.3    99  CYS99       0.0997
     26  SG        36.4760  -25.6290   60.9060 S.3    99  CYS99      -0.0797
     27  N         35.8350  -23.4460   58.4630 N.am  100  ALA100     -0.1963
     28  CA        35.0460  -22.9630   57.3210 C.3   100  ALA100      0.1728
     29  C         34.9710  -23.8620   56.1070 C.2   100  ALA100      0.2616
     30  O         34.6210  -23.3740   55.0220 O.2   100  ALA100     -0.2715
     31  CB        35.5560  -21.5900   56.8850 C.3   100  ALA100      0.0334
     32  N         35.2950  -25.1510   56.2490 N.am  101  GLU101     -0.1977
     33  CA        35.3660  -26.0480   55.0720 C.3   101  GLU101      0.1602
     34  C         36.2250  -25.4360   53.9560 C.2   101  GLU101      0.2287
     35  O         35.9620  -25.5860   52.7700 O.2   101  GLU101     -0.2864
     36  CB        33.9670  -26.3930   54.5280 C.3   101  GLU101      0.0415
     37  CG        33.1250  -27.3070   55.4070 C.3   101  GLU101      0.1163
     38  CD        32.7110  -26.6490   56.7330 C.2   101  GLU101      0.3649
     39  OE1       31.7930  -25.7840   56.7370 O.co2 101  GLU101     -0.2457
     40  OE2       33.2950  -27.0280   57.7860 O.co2 101  GLU101     -0.2457
     41  N         38.9990  -19.1450   66.0410 N.3   159  ASN159     -0.1225
     42  CA        37.7440  -19.8490   65.6930 C.3   159  ASN159      0.1785
     43  C         37.6160  -21.2330   66.3720 C.2   159  ASN159      0.2597
     44  O         38.3600  -22.1710   66.0410 O.2   159  ASN159     -0.2718
     45  CB        37.5820  -20.0080   64.1580 C.3   159  ASN159      0.1169
     46  CG        36.1990  -20.5260   63.7660 C.2   159  ASN159      0.2627
     47  OD1       35.2600  -19.7460   63.5060 O.2   159  ASN159     -0.2716
     48  ND2       36.0500  -21.8460   63.7420 N.am  159  ASN159     -0.0877
     49  N         36.6690  -21.3530   67.3020 N.am  160  GLU160     -0.1979
     50  CA        36.4880  -22.5820   68.1080 C.3   160  GLU160      0.1602
     51  C         37.8270  -23.1450   68.6200 C.2   160  GLU160      0.2287
     52  O         38.1550  -24.2930   68.3780 O.2   160  GLU160     -0.2864
     53  CB        35.7910  -23.6530   67.2810 C.3   160  GLU160      0.0415
     54  CG        34.3880  -23.2580   66.8750 C.3   160  GLU160      0.1163
     55  CD        33.7040  -24.3670   66.1040 C.2   160  GLU160      0.3649
     56  OE1       34.4100  -25.2110   65.5110 O.co2 160  GLU160     -0.2457
     57  OE2       32.4670  -24.3880   66.0720 O.co2 160  GLU160     -0.2457
     58  N         26.9270  -19.1290   65.2960 N.3   240  GLU240     -0.1245
     59  CA        26.7110  -20.0180   64.1410 C.3   240  GLU240      0.1567
     60  C         25.4960  -20.9160   64.3370 C.2   240  GLU240      0.2260
     61  O         25.6050  -22.0790   64.7910 O.2   240  GLU240     -0.2867
     62  CB        27.9350  -20.9110   63.8680 C.3   240  GLU240      0.0388
     63  CG        29.1870  -20.1870   63.3960 C.3   240  GLU240      0.1160
     64  CD        30.4100  -21.0840   63.2880 C.2   240  GLU240      0.3649
     65  OE1       30.2400  -22.3210   63.1720 O.co2 240  GLU240     -0.2457
     66  OE2       31.5580  -20.5590   63.3180 O.co2 240  GLU240     -0.2457
     67  N         23.0820  -23.1610   62.6500 N.3   242  TYR242     -0.1241
     68  CA        23.2120  -23.8790   61.3860 C.3   242  TYR242      0.1605
     69  C         21.8930  -23.9590   60.6440 C.2   242  TYR242      0.2264
     70  O         20.8910  -24.3790   61.2160 O.2   242  TYR242     -0.2867
     71  CB        23.9040  -25.2390   61.5840 C.3   242  TYR242      0.0534
     72  CG        25.2220  -25.0480   62.3120 C.ar  242  TYR242     -0.0201
     73  CD1       26.2860  -24.4690   61.6530 C.ar  242  TYR242     -0.0009
     74  CD2       25.3690  -25.3700   63.6730 C.ar  242  TYR242     -0.0009
     75  CE1       27.4950  -24.2440   62.2870 C.ar  242  TYR242      0.0417
     76  CE2       26.5850  -25.1660   64.3420 C.ar  242  TYR242      0.0417
     77  CZ        27.6420  -24.5840   63.6400 C.ar  242  TYR242      0.1957
     78  OH        28.8710  -24.3200   64.2010 O.3   242  TYR242     -0.2866
     79  N         24.2350  -27.9160   56.5560 N.3   245  TRP245     -0.1227
     80  CA        25.4680  -28.5530   57.0190 C.3   245  TRP245      0.1737
     81  C         26.3650  -28.8050   55.8200 C.2   245  TRP245      0.2595
     82  O         25.9160  -28.6530   54.6830 O.2   245  TRP245     -0.2718
     83  CB        25.1820  -29.8410   57.7900 C.3   245  TRP245      0.0564
     84  CG        26.2960  -30.3320   58.6960 C.ar  245  TRP245      0.0003
     85  CD1       26.9560  -31.5420   58.6070 C.ar  245  TRP245      0.0946
     86  CD2       26.8740  -29.6480   59.8400 C.ar  245  TRP245      0.0152
     87  NE1       27.8970  -31.6430   59.6130 N.ar  245  TRP245     -0.2442
     88  CE2       27.8610  -30.5120   60.3890 C.ar  245  TRP245      0.0810
     89  CE3       26.6540  -28.4030   60.4480 C.ar  245  TRP245      0.0012
     90  CZ2       28.6250  -30.1700   61.5340 C.ar  245  TRP245      0.0191
     91  CZ3       27.4320  -28.0560   61.5870 C.ar  245  TRP245      0.0001
     92  CH2       28.3970  -28.9480   62.1110 C.ar  245  TRP245      0.0015
     93  N         27.6310  -29.1240   56.0880 N.am  246  LEU246     -0.1980
     94  CA        28.6050  -29.3510   55.0340 C.3   246  LEU246      0.1596
     95  C         28.4200  -30.7110   54.3860 C.2   246  LEU246      0.2287
     96  O         27.7690  -31.6030   54.9560 O.2   246  LEU246     -0.2864
     97  CB        30.0200  -29.2450   55.5890 C.3   246  LEU246      0.0297
     98  CG        30.3780  -30.2470   56.7030 C.3   246  LEU246      0.0022
     99  CD1       31.6990  -30.8900   56.3450 C.3   246  LEU246      0.0001
    100  CD2       30.4760  -29.5540   58.0590 C.3   246  LEU246      0.0001
    101  N         30.5710  -34.0010   51.9980 N.3   248  HIS248     -0.1241
    102  CA        31.8230  -34.6710   51.6120 C.3   248  HIS248      0.1621
    103  C         31.6150  -35.4210   50.3200 C.2   248  HIS248      0.2264
    104  O         30.5790  -36.0480   50.1340 O.2   248  HIS248     -0.2867
    105  CB        32.2720  -35.6740   52.6640 C.3   248  HIS248      0.0745
    106  CG        32.6440  -35.0570   53.9700 C.ar  248  HIS248      0.0817
    107  ND1       31.8060  -35.0730   55.0630 N.ar  248  HIS248     -0.2268
    108  CD2       33.7510  -34.3990   54.3610 C.ar  248  HIS248      0.1154
    109  CE1       32.3880  -34.4620   56.0800 C.ar  248  HIS248      0.1986
    110  NE2       33.5690  -34.0360   55.6780 N.ar  248  HIS248     -0.2212
    111  N         24.2890  -19.5210   59.8950 N.3   278  TYR278     -0.1241
    112  CA        25.4760  -20.0320   59.2040 C.3   278  TYR278      0.1605
    113  C         25.0400  -21.2390   58.3820 C.2   278  TYR278      0.2264
    114  O         24.6070  -22.2090   58.9950 O.2   278  TYR278     -0.2867
    115  CB        26.5790  -20.4550   60.2310 C.3   278  TYR278      0.0534
    116  CG        27.8700  -20.8860   59.5410 C.ar  278  TYR278     -0.0201
    117  CD1       27.9660  -22.0950   58.8330 C.ar  278  TYR278     -0.0009
    118  CD2       28.9650  -20.0400   59.5270 C.ar  278  TYR278     -0.0009
    119  CE1       29.1290  -22.4290   58.1430 C.ar  278  TYR278      0.0417
    120  CE2       30.1410  -20.3800   58.8670 C.ar  278  TYR278      0.0417
    121  CZ        30.2100  -21.5610   58.1730 C.ar  278  TYR278      0.1957
    122  OH        31.3760  -21.8170   57.5050 O.3   278  TYR278     -0.2866
    123  N         38.0210  -33.0660   56.0370 N.3   293  ASN293     -0.1225
    124  CA        38.0410  -33.5070   57.4270 C.3   293  ASN293      0.1785
    125  C         38.8400  -34.8050   57.5620 C.2   293  ASN293      0.2597
    126  O         39.0840  -35.4940   56.5340 O.2   293  ASN293     -0.2718
    127  CB        36.6230  -33.7270   57.9380 C.3   293  ASN293      0.1169
    128  CG        35.8430  -32.4280   58.0640 C.2   293  ASN293      0.2627
    129  OD1       34.9860  -32.1180   57.2160 O.2   293  ASN293     -0.2716
    130  ND2       36.1340  -31.6560   59.1090 N.am  293  ASN293     -0.0877
    131  N         39.2570  -35.1120   58.8110 N.am  294  SER294     -0.1952
    132  CA        39.9040  -36.4050   59.1780 C.3   294  SER294      0.1924
    133  C         38.8850  -37.3850   59.7810 C.2   294  SER294      0.2314
    134  O         37.9670  -36.9420   60.4280 O.2   294  SER294     -0.2863
    135  CB        40.9960  -36.1720   60.2130 C.3   294  SER294      0.2116
    136  OG        42.1570  -35.6490   59.6050 O.3   294  SER294     -0.2180
    137  N         38.5810  -36.9240   54.0810 N.3   297  ALA297     -0.1245
    138  CA        37.3570  -36.8160   53.2790 C.3   297  ALA297      0.1562
    139  C         37.2150  -35.3360   52.8670 C.2   297  ALA297      0.2260
    140  O         37.0490  -34.4530   53.7190 O.2   297  ALA297     -0.2867
    141  CB        36.1480  -37.2600   54.1140 C.3   297  ALA297      0.0290
    142  N         25.3180  -25.7290   50.9340 N.3   305  TYR305     -0.1241
    143  CA        25.0000  -25.8210   52.3590 C.3   305  TYR305      0.1605
    144  C         23.5400  -26.0990   52.7120 C.2   305  TYR305      0.2264
    145  O         23.1990  -26.2440   53.8930 O.2   305  TYR305     -0.2867
    146  CB        25.4330  -24.5400   53.0700 C.3   305  TYR305      0.0534
    147  CG        25.9310  -24.8020   54.4650 C.ar  305  TYR305     -0.0201
    148  CD1       27.1820  -25.3510   54.6600 C.ar  305  TYR305     -0.0009
    149  CD2       25.1630  -24.5040   55.5750 C.ar  305  TYR305     -0.0009
    150  CE1       27.6770  -25.5850   55.9400 C.ar  305  TYR305      0.0417
    151  CE2       25.6450  -24.7240   56.8590 C.ar  305  TYR305      0.0417
    152  CZ        26.9050  -25.2730   57.0240 C.ar  305  TYR305      0.1957
    153  OH        27.4150  -25.5140   58.2830 O.3   305  TYR305     -0.2866
    154  N         40.1300  -28.8560   60.0180 N.3   457  TYR457     -0.1241
    155  CA        39.5690  -29.0090   61.3640 C.3   457  TYR457      0.1605
    156  C         40.2190  -30.2020   62.0490 C.2   457  TYR457      0.2264
    157  O         40.5290  -31.1980   61.3830 O.2   457  TYR457     -0.2867
    158  CB        38.0610  -29.2650   61.2690 C.3   457  TYR457      0.0534
    159  CG        37.3710  -29.4280   62.6040 C.ar  457  TYR457     -0.0201
    160  CD1       37.2250  -28.3370   63.4650 C.ar  457  TYR457     -0.0009
    161  CD2       36.8460  -30.6750   63.0030 C.ar  457  TYR457     -0.0009
    162  CE1       36.5790  -28.4730   64.6830 C.ar  457  TYR457      0.0417
    163  CE2       36.1950  -30.8180   64.2300 C.ar  457  TYR457      0.0417
    164  CZ        36.0770  -29.7210   65.0590 C.ar  457  TYR457      0.1957
    165  OH        35.4530  -29.8340   66.2760 O.3   457  TYR457     -0.2866
@<TRIPOS>BOND
     1   104   103    2
     2   103   102    1
     3   142   143    1
     4   102   101    1
     5   102   105    1
     6   143   144    1
     7   143   146    1
     8   105   106    1
     9   144   145    2
    10    35    34    2
    11   139   138    1
    12   139   140    2
    13   146   147    1
    14   138   137    1
    15   138   141    1
    16    34    33    1
    17   106   108   ar
    18   106   107   ar
    19   108   110   ar
    20    95    96    2
    21    95    94    1
    22   147   148   ar
    23   147   149   ar
    24    36    33    1
    25    36    37    1
    26   148   150   ar
    27    82    81    2
    28    30    29    2
    29    94    97    1
    30    94    93    1
    31   107   109   ar
    32    33    32    1
    33     4     3    2
    34    37    38    1
    35   149   151   ar
    36    97    98    1
    37   110   109   ar
    38    81    93   am
    39    81    80    1
    40   150   152   ar
    41   123   124    1
    42    29    32   am
    43    29    28    1
    44    99    98    1
    45    20    18    1
    46   126   125    2
    47    79    80    1
    48     3     2    1
    49    98   100    1
    50    38    39   ar
    51    38    40   ar
    52   151   152   ar
    53    31    28    1
    54    80    83    1
    55   152   153    1
    56     1     2    1
    57   129   128    2
    58     5     2    1
    59     5     6    1
    60    28    27    1
    61    24    23    2
    62   124   125    1
    63   124   127    1
    64   122   121    1
    65   125   131   am
    66    18    17    1
    67    83    84    1
    68   127   128    1
    69     8     6   ar
    70     8    10   ar
    71   128   130   am
    72   119   121   ar
    73   119   117   ar
    74   121   120   ar
    75     6     7   ar
    76   113   114    2
    77   113   112    1
    78    23    27   am
    79    23    22    1
    80    85    84   ar
    81    85    87   ar
    82    84    86   ar
    83   131   132    1
    84   117   116   ar
    85   120   118   ar
    86    10    11   ar
    87    17    19    1
    88    17    14    1
    89   132   133    1
    90   132   135    1
    91   112   111    1
    92   112   115    1
    93   118   116   ar
    94   116   115    1
    95   136   135    1
    96    87    88   ar
    97     7     9   ar
    98    22    21    1
    99    22    25    1
   100   133   134    2
   101    86    88   ar
   102    86    89   ar
   103    21    15   am
   104   154   155    1
   105    15    14    1
   106    15    16    2
   107    11     9   ar
   108    11    12    1
   109    14    13    1
   110    88    90   ar
   111    89    91   ar
   112    69    70    2
   113    69    68    1
   114    26    25    1
   115   158   155    1
   116   158   159    1
   117   155   156    1
   118   157   156    2
   119    68    71    1
   120    68    67    1
   121    90    92   ar
   122    71    72    1
   123    91    92   ar
   124    73    75   ar
   125    73    72   ar
   126    75    77   ar
   127    72    74   ar
   128   159   161   ar
   129   159   160   ar
   130   161   163   ar
   131    65    64   ar
   132    64    66   ar
   133    64    63    1
   134    63    62    1
   135   160   162   ar
   136    47    46    2
   137    77    78    1
   138    77    76   ar
   139    74    76   ar
   140    48    46   am
   141    46    45    1
   142    62    59    1
   143    59    60    1
   144    59    58    1
   145    45    42    1
   146   163   164   ar
   147    60    61    2
   148   162   164   ar
   149   164   165    1
   150    56    55   ar
   151    42    41    1
   152    42    43    1
   153    44    43    2
   154    57    55   ar
   155    55    54    1
   156    43    49   am
   157    54    53    1
   158    53    50    1
   159    49    50    1
   160    50    51    1
   161    52    51    2
