@<TRIPOS>MOLECULE
tmp/3wf1C04.pdb
 144 141 0 0 0
SMALL
GASTEIGER

@<TRIPOS>ATOM
      1  N          7.9100   13.5440   57.9270 N.3    55  TYR55      -0.1241
      2  CA         6.5650   13.9600   58.2180 C.3    55  TYR55       0.1605
      3  C          5.6000   13.3250   57.2130 C.2    55  TYR55       0.2264
      4  O          5.8790   13.2540   56.0280 O.2    55  TYR55      -0.2867
      5  CB         6.3920   15.4760   58.0490 C.3    55  TYR55       0.0534
      6  CG         6.8890   16.3920   59.1600 C.ar   55  TYR55      -0.0201
      7  CD1        6.5520   16.1570   60.4730 C.ar   55  TYR55      -0.0009
      8  CD2        7.6440   17.5480   58.8610 C.ar   55  TYR55      -0.0009
      9  CE1        6.9900   16.9930   61.4830 C.ar   55  TYR55       0.0417
     10  CE2        8.0560   18.4200   59.8470 C.ar   55  TYR55       0.0417
     11  CZ         7.7230   18.1160   61.1710 C.ar   55  TYR55       0.1957
     12  OH         8.0840   18.9400   62.1840 O.3    55  TYR55      -0.2866
     13  N          1.8530   18.9550   61.3580 N.3    98  ILE98      -0.1231
     14  CA         3.2940   18.7930   61.1610 C.3    98  ILE98       0.1692
     15  C          4.0700   20.0950   61.0320 C.2    98  ILE98       0.2592
     16  O          5.2920   20.0520   61.0990 O.2    98  ILE98      -0.2718
     17  CB         3.6420   17.9040   59.9220 C.3    98  ILE98       0.0266
     18  CG1        3.1340   18.4970   58.5870 C.3    98  ILE98       0.0019
     19  CG2        3.1570   16.4930   60.1390 C.3    98  ILE98       0.0020
     20  CD1        3.5280   17.6460   57.3830 C.3    98  ILE98       0.0001
     21  N          3.3770   21.2350   60.8520 N.am   99  CYS99      -0.1956
     22  CA         4.0350   22.5350   60.6950 C.3    99  CYS99       0.1843
     23  C          4.8590   22.5340   59.3930 C.2    99  CYS99       0.2625
     24  O          4.2760   22.7240   58.3050 O.2    99  CYS99      -0.2714
     25  CB         4.8300   22.9230   61.9640 C.3    99  CYS99       0.0997
     26  SG         5.5510   24.5780   61.9640 S.3    99  CYS99      -0.0797
     27  N          6.1880   22.4120   59.4750 N.am  100  ALA100     -0.1963
     28  CA         6.9980   21.9820   58.3370 C.3   100  ALA100      0.1728
     29  C          7.0490   22.9330   57.1170 C.2   100  ALA100      0.2616
     30  O          7.4910   22.5110   56.0030 O.2   100  ALA100     -0.2715
     31  CB         6.5190   20.5810   57.8870 C.3   100  ALA100      0.0334
     32  N          6.6490   24.2060   57.2950 N.am  101  GLU101     -0.1977
     33  CA         6.6410   25.1420   56.1920 C.3   101  GLU101      0.1602
     34  C          5.8190   24.5930   55.0020 C.2   101  GLU101      0.2287
     35  O          6.1450   24.8200   53.8540 O.2   101  GLU101     -0.2864
     36  CB         8.0960   25.4950   55.7440 C.3   101  GLU101      0.0415
     37  CG         8.8850   26.4100   56.6970 C.3   101  GLU101      0.1163
     38  CD         9.2740   25.7000   57.9670 C.2   101  GLU101      0.3649
     39  OE1       10.0090   24.6750   57.8930 O.co2 101  GLU101     -0.2457
     40  OE2        8.8160   26.1640   59.0370 O.co2 101  GLU101     -0.2457
     41  N          3.1440   18.0520   66.9730 N.3   159  ASN159     -0.1225
     42  CA         4.3950   18.7070   66.6350 C.3   159  ASN159      0.1785
     43  C          4.4870   20.0480   67.3380 C.2   159  ASN159      0.2597
     44  O          3.8080   20.9990   66.9730 O.2   159  ASN159     -0.2718
     45  CB         4.5550   18.9120   65.1020 C.3   159  ASN159      0.1169
     46  CG         5.9630   19.4100   64.7100 C.2   159  ASN159      0.2627
     47  OD1        6.8920   18.6290   64.4260 O.2   159  ASN159     -0.2716
     48  ND2        6.1340   20.6960   64.7200 N.am  159  ASN159     -0.0877
     49  N          5.3320   20.1290   68.3580 N.am  160  GLU160     -0.1979
     50  CA         5.5440   21.3920   69.0640 C.3   160  GLU160      0.1602
     51  C          4.2000   21.9720   69.5530 C.2   160  GLU160      0.2287
     52  O          3.9250   23.1630   69.4870 O.2   160  GLU160     -0.2864
     53  CB         6.3130   22.3700   68.1790 C.3   160  GLU160      0.0415
     54  CG         7.7380   21.9430   67.7740 C.3   160  GLU160      0.1163
     55  CD         8.5160   23.0960   67.1270 C.2   160  GLU160      0.3649
     56  OE1        7.8580   23.9970   66.5620 O.co2 160  GLU160     -0.2457
     57  OE2        9.7780   23.1140   67.1580 O.co2 160  GLU160     -0.2457
     58  N         13.9170   20.4480   70.5340 N.3   213  ASP213     -0.1239
     59  CA        14.6960   20.8190   69.3720 C.3   213  ASP213      0.1674
     60  C         15.4350   22.1200   69.5680 C.2   213  ASP213      0.2266
     61  O         15.0470   22.9520   70.3650 O.2   213  ASP213     -0.2867
     62  CB        13.8700   20.8160   68.0870 C.3   213  ASP213      0.1410
     63  CG        12.6540   21.6970   68.1370 C.2   213  ASP213      0.3668
     64  OD1       12.6530   22.7790   68.7750 O.co2 213  ASP213     -0.2456
     65  OD2       11.6660   21.3100   67.4610 O.co2 213  ASP213     -0.2456
     66  N         15.1530   18.0810   66.1180 N.3   240  GLU240     -0.1245
     67  CA        15.3960   18.9380   64.9820 C.3   240  GLU240      0.1567
     68  C         16.5510   19.8610   65.2570 C.2   240  GLU240      0.2260
     69  O         16.3740   20.9710   65.7940 O.2   240  GLU240     -0.2867
     70  CB        14.1860   19.7680   64.6220 C.3   240  GLU240      0.0388
     71  CG        12.8800   19.0300   64.3960 C.3   240  GLU240      0.1160
     72  CD        11.7200   19.9940   64.2170 C.2   240  GLU240      0.3649
     73  OE1       12.0000   21.1930   63.9970 O.co2 240  GLU240     -0.2457
     74  OE2       10.5360   19.5450   64.2630 O.co2 240  GLU240     -0.2457
     75  N         18.9590   22.1790   63.6220 N.3   242  TYR242     -0.1241
     76  CA        18.8170   22.9000   62.3400 C.3   242  TYR242      0.1605
     77  C         20.1450   22.9800   61.6070 C.2   242  TYR242      0.2264
     78  O         21.1290   23.4220   62.1690 O.2   242  TYR242     -0.2867
     79  CB        18.1560   24.2810   62.5520 C.3   242  TYR242      0.0534
     80  CG        16.8550   24.0820   63.2550 C.ar  242  TYR242     -0.0201
     81  CD1       15.8050   23.4310   62.6070 C.ar  242  TYR242     -0.0009
     82  CD2       16.6880   24.4180   64.6110 C.ar  242  TYR242     -0.0009
     83  CE1       14.6160   23.1520   63.2550 C.ar  242  TYR242      0.0417
     84  CE2       15.4830   24.1320   65.2750 C.ar  242  TYR242      0.0417
     85  CZ        14.4490   23.5060   64.5850 C.ar  242  TYR242      0.1957
     86  OH        13.2490   23.2110   65.2070 O.3   242  TYR242     -0.2866
     87  N         18.0900   27.0860   57.5030 N.3   245  TRP245     -0.1227
     88  CA        16.8370   27.7060   57.9640 C.3   245  TRP245      0.1737
     89  C         15.9830   28.0550   56.7770 C.2   245  TRP245      0.2595
     90  O         16.4910   28.1430   55.6470 O.2   245  TRP245     -0.2718
     91  CB        17.1350   28.9930   58.7210 C.3   245  TRP245      0.0564
     92  CG        16.0140   29.4640   59.5610 C.ar  245  TRP245      0.0003
     93  CD1       15.2330   30.5700   59.3610 C.ar  245  TRP245      0.0946
     94  CD2       15.5250   28.8360   60.7500 C.ar  245  TRP245      0.0152
     95  NE1       14.2940   30.6720   60.3730 N.ar  245  TRP245     -0.2442
     96  CE2       14.4560   29.6260   61.2350 C.ar  245  TRP245      0.0810
     97  CE3       15.9090   27.7020   61.4660 C.ar  245  TRP245      0.0012
     98  CZ2       13.7520   29.3010   62.3780 C.ar  245  TRP245      0.0191
     99  CZ3       15.2220   27.3860   62.6120 C.ar  245  TRP245      0.0001
    100  CH2       14.1480   28.1820   63.0580 C.ar  245  TRP245      0.0015
    101  N         14.7080   28.3250   57.0570 N.am  246  LEU246     -0.1980
    102  CA        13.7260   28.6150   56.0410 C.3   246  LEU246      0.1596
    103  C         13.8030   30.0030   55.4240 C.2   246  LEU246      0.2287
    104  O         14.4540   30.8960   55.9480 O.2   246  LEU246     -0.2864
    105  CB        12.3320   28.4060   56.6190 C.3   246  LEU246      0.0297
    106  CG        11.8840   29.3300   57.7480 C.3   246  LEU246      0.0022
    107  CD1       10.5180   29.9040   57.4270 C.3   246  LEU246      0.0001
    108  CD2       11.8550   28.5400   59.0440 C.3   246  LEU246      0.0001
    109  N         17.6410   18.5820   60.8350 N.3   278  TYR278     -0.1241
    110  CA        16.5270   19.2060   60.0800 C.3   278  TYR278      0.1605
    111  C         17.0630   20.3630   59.2340 C.2   278  TYR278      0.2264
    112  O         17.4570   21.3470   59.8000 O.2   278  TYR278     -0.2867
    113  CB        15.4370   19.7460   61.0600 C.3   278  TYR278      0.0534
    114  CG        14.1610   20.1130   60.3710 C.ar  278  TYR278     -0.0201
    115  CD1       14.0310   21.2980   59.7000 C.ar  278  TYR278     -0.0009
    116  CD2       13.1000   19.2160   60.3320 C.ar  278  TYR278     -0.0009
    117  CE1       12.8660   21.5970   59.0040 C.ar  278  TYR278      0.0417
    118  CE2       11.9420   19.5090   59.6700 C.ar  278  TYR278      0.0417
    119  CZ        11.8300   20.6800   59.0000 C.ar  278  TYR278      0.1957
    120  OH        10.6430   20.9110   58.3560 O.3   278  TYR278     -0.2866
    121  N         16.8470   25.0110   51.9160 N.3   305  TYR305     -0.1241
    122  CA        17.0540   25.0920   53.3680 C.3   305  TYR305      0.1605
    123  C         18.5130   25.2740   53.7570 C.2   305  TYR305      0.2264
    124  O         18.8370   25.2820   54.9540 O.2   305  TYR305     -0.2867
    125  CB        16.5030   23.8420   54.0400 C.3   305  TYR305      0.0534
    126  CG        15.9810   24.0520   55.4440 C.ar  305  TYR305     -0.0201
    127  CD1       14.6950   24.5400   55.6800 C.ar  305  TYR305     -0.0009
    128  CD2       16.7850   23.7680   56.5370 C.ar  305  TYR305     -0.0009
    129  CE1       14.2290   24.7340   56.9930 C.ar  305  TYR305      0.0417
    130  CE2       16.3460   23.9500   57.8420 C.ar  305  TYR305      0.0417
    131  CZ        15.0760   24.4280   58.0820 C.ar  305  TYR305      0.1957
    132  OH        14.7220   24.6080   59.4260 O.3   305  TYR305     -0.2866
    133  N          2.0600   27.8350   61.1450 N.3   457  TYR457     -0.1241
    134  CA         2.5780   28.0390   62.5130 C.3   457  TYR457      0.1605
    135  C          1.9130   29.2730   63.1690 C.2   457  TYR457      0.2264
    136  O          1.6760   30.2990   62.5230 O.2   457  TYR457     -0.2867
    137  CB         4.0940   28.2360   62.5060 C.3   457  TYR457      0.0534
    138  CG         4.7620   28.3790   63.8710 C.ar  457  TYR457     -0.0201
    139  CD1        4.8770   27.2890   64.7250 C.ar  457  TYR457     -0.0009
    140  CD2        5.3640   29.5890   64.2670 C.ar  457  TYR457     -0.0009
    141  CE1        5.5080   27.3890   65.9540 C.ar  457  TYR457      0.0417
    142  CE2        6.0200   29.7060   65.5090 C.ar  457  TYR457      0.0417
    143  CZ         6.0820   28.6060   66.3380 C.ar  457  TYR457      0.1957
    144  OH         6.6920   28.6900   67.5530 O.3   457  TYR457     -0.2866
@<TRIPOS>BOND
     1   121   122    1
     2   122   123    1
     3   122   125    1
     4   123   124    2
     5    35    34    2
     6   125   126    1
     7    34    33    1
     8   103   104    2
     9   103   102    1
    10   126   127   ar
    11   126   128   ar
    12    90    89    2
    13   127   129   ar
    14    36    33    1
    15    36    37    1
    16    30    29    2
    17     4     3    2
    18   102   105    1
    19   102   101    1
    20    33    32    1
    21   128   130   ar
    22   105   106    1
    23    37    38    1
    24    89   101   am
    25    89    88    1
    26   129   131   ar
    27    29    32   am
    28    29    28    1
    29     3     2    1
    30    20    18    1
    31   107   106    1
    32    87    88    1
    33   106   108    1
    34   130   131   ar
    35    31    28    1
    36    39    38   ar
    37     1     2    1
    38    88    91    1
    39    38    40   ar
    40     5     2    1
    41     5     6    1
    42   131   132    1
    43    24    23    2
    44    28    27    1
    45   120   119    1
    46    18    17    1
    47    91    92    1
    48     8     6   ar
    49     8    10   ar
    50   119   117   ar
    51   119   118   ar
    52   117   115   ar
    53     6     7   ar
    54   111   112    2
    55   111   110    1
    56    93    92   ar
    57    93    95   ar
    58    23    27   am
    59    23    22    1
    60    92    94   ar
    61   118   116   ar
    62   115   114   ar
    63    10    11   ar
    64    17    19    1
    65    17    14    1
    66   110   109    1
    67   110   113    1
    68   116   114   ar
    69   114   113    1
    70    95    96   ar
    71     7     9   ar
    72    22    21    1
    73    22    25    1
    74    94    96   ar
    75    94    97   ar
    76    21    15   am
    77    15    16    2
    78    15    14    1
    79   133   134    1
    80    14    13    1
    81    11     9   ar
    82    11    12    1
    83    96    98   ar
    84    97    99   ar
    85    77    78    2
    86    77    76    1
    87    26    25    1
    88    76    79    1
    89    76    75    1
    90    98   100   ar
    91   137   134    1
    92   137   138    1
    93   134   135    1
    94   136   135    2
    95    79    80    1
    96    81    83   ar
    97    81    80   ar
    98    99   100   ar
    99    83    85   ar
   100    80    82   ar
   101   138   140   ar
   102   138   139   ar
   103    73    72   ar
   104    72    74   ar
   105    72    71    1
   106   140   142   ar
   107    71    70    1
   108    47    46    2
   109    85    86    1
   110    85    84   ar
   111    82    84   ar
   112    70    67    1
   113    46    48   am
   114    46    45    1
   115   139   141   ar
   116    67    68    1
   117    67    66    1
   118    45    42    1
   119    68    69    2
   120   142   143   ar
   121   141   143   ar
   122   143   144    1
   123    56    55   ar
   124    42    41    1
   125    42    43    1
   126    44    43    2
   127    55    57   ar
   128    55    54    1
   129    43    49   am
   130    65    63   ar
   131    54    53    1
   132    62    63    1
   133    62    59    1
   134    63    64   ar
   135    53    50    1
   136    49    50    1
   137    50    51    1
   138    59    60    1
   139    59    58    1
   140    52    51    2
   141    60    61    2
