@<TRIPOS>MOLECULE
tmp/3wf2C03.pdb
 162 159 0 0 0
SMALL
GASTEIGER

@<TRIPOS>ATOM
      1  N          7.7530   13.3840   58.2710 N.3    55  TYR55      -0.1241
      2  CA         6.4210   13.8460   58.6090 C.3    55  TYR55       0.1605
      3  C          5.3840   13.2110   57.6380 C.2    55  TYR55       0.2264
      4  O          5.6170   13.1240   56.4180 O.2    55  TYR55      -0.2867
      5  CB         6.3340   15.3900   58.4640 C.3    55  TYR55       0.0534
      6  CG         6.7640   16.2630   59.6500 C.ar   55  TYR55      -0.0201
      7  CD1        6.3940   15.9810   60.9660 C.ar   55  TYR55      -0.0009
      8  CD2        7.4290   17.4790   59.4150 C.ar   55  TYR55      -0.0009
      9  CE1        6.7600   16.8150   62.0340 C.ar   55  TYR55       0.0417
     10  CE2        7.8380   18.3320   60.4530 C.ar   55  TYR55       0.0417
     11  CZ         7.4980   18.0080   61.7510 C.ar   55  TYR55       0.1957
     12  OH         7.8260   18.9200   62.6940 O.3    55  TYR55      -0.2866
     13  N          1.6540   18.9620   61.9080 N.3    98  ILE98      -0.1231
     14  CA         3.1180   18.7820   61.7220 C.3    98  ILE98       0.1692
     15  C          3.9600   20.0640   61.6220 C.2    98  ILE98       0.2592
     16  O          5.1870   20.0090   61.6830 O.2    98  ILE98      -0.2718
     17  CB         3.4150   17.9040   60.4530 C.3    98  ILE98       0.0266
     18  CG1        2.8750   18.5500   59.1530 C.3    98  ILE98       0.0019
     19  CG2        2.8090   16.5520   60.6350 C.3    98  ILE98       0.0020
     20  CD1        3.3060   17.8480   57.8180 C.3    98  ILE98       0.0001
     21  N          3.2950   21.1900   61.3830 N.am   99  CYS99      -0.1956
     22  CA         3.9180   22.5140   61.1980 C.3    99  CYS99       0.1843
     23  C          4.7040   22.5170   59.8660 C.2    99  CYS99       0.2625
     24  O          4.0680   22.6990   58.7730 O.2    99  CYS99      -0.2714
     25  CB         4.7400   22.9330   62.4380 C.3    99  CYS99       0.0997
     26  SG         5.3360   24.6480   62.4340 S.3    99  CYS99      -0.0797
     27  N          6.0400   22.3510   59.9410 N.am  100  ALA100     -0.1963
     28  CA         6.8530   21.9210   58.8020 C.3   100  ALA100      0.1728
     29  C          6.8390   22.8520   57.5820 C.2   100  ALA100      0.2616
     30  O          7.2690   22.4320   56.4960 O.2   100  ALA100     -0.2715
     31  CB         6.4120   20.5200   58.3750 C.3   100  ALA100      0.0334
     32  N          6.4180   24.1200   57.7550 N.am  101  GLU101     -0.1977
     33  CA         6.4080   25.0720   56.6690 C.3   101  GLU101      0.1602
     34  C          5.5970   24.5530   55.4750 C.2   101  GLU101      0.2287
     35  O          5.9040   24.8390   54.2920 O.2   101  GLU101     -0.2864
     36  CB         7.8530   25.4160   56.2230 C.3   101  GLU101      0.0415
     37  CG         8.5870   26.4140   57.1030 C.3   101  GLU101      0.1163
     38  CD         9.0590   25.8370   58.4560 C.2   101  GLU101      0.3649
     39  OE1       10.0030   25.0090   58.4560 O.co2 101  GLU101     -0.2457
     40  OE2        8.5340   26.2630   59.5350 O.co2 101  GLU101     -0.2457
     41  N          2.8900   17.9840   67.5030 N.3   159  ASN159     -0.1225
     42  CA         4.1480   18.6500   67.1920 C.3   159  ASN159      0.1785
     43  C          4.2100   20.0040   67.8900 C.2   159  ASN159      0.2597
     44  O          3.4240   20.9100   67.5980 O.2   159  ASN159     -0.2718
     45  CB         4.3100   18.7680   65.6340 C.3   159  ASN159      0.1169
     46  CG         5.6890   19.2900   65.1930 C.2   159  ASN159      0.2627
     47  OD1        6.6110   18.5100   64.9030 O.2   159  ASN159     -0.2716
     48  ND2        5.8210   20.5880   65.1020 N.am  159  ASN159     -0.0877
     49  N          5.1300   20.1360   68.8350 N.am  160  GLU160     -0.1979
     50  CA         5.2640   21.3770   69.6140 C.3   160  GLU160      0.1602
     51  C          3.9160   21.9380   70.1720 C.2   160  GLU160      0.2287
     52  O          3.6290   23.1410   70.1380 O.2   160  GLU160     -0.2864
     53  CB         6.0090   22.4160   68.7920 C.3   160  GLU160      0.0415
     54  CG         7.4200   21.9780   68.3390 C.3   160  GLU160      0.1163
     55  CD         8.2540   23.1480   67.7850 C.2   160  GLU160      0.3649
     56  OE1        7.6670   24.0200   67.0740 O.co2 160  GLU160     -0.2457
     57  OE2        9.4830   23.2240   68.0630 O.co2 160  GLU160     -0.2457
     58  N         14.9630   17.9380   66.6220 N.3   240  GLU240     -0.1245
     59  CA        15.1630   18.8040   65.4840 C.3   240  GLU240      0.1567
     60  C         16.3700   19.7070   65.7330 C.2   240  GLU240      0.2260
     61  O         16.2120   20.8370   66.1730 O.2   240  GLU240     -0.2867
     62  CB        13.9400   19.6790   65.2190 C.3   240  GLU240      0.0388
     63  CG        12.6070   18.9630   65.0630 C.3   240  GLU240      0.1160
     64  CD        11.4410   19.9310   64.7940 C.2   240  GLU240      0.3649
     65  OE1       11.6910   21.1430   64.6310 O.co2 240  GLU240     -0.2457
     66  OE2       10.2790   19.4860   64.7680 O.co2 240  GLU240     -0.2457
     67  N         18.7340   22.1130   64.1440 N.3   242  TYR242     -0.1241
     68  CA        18.5790   22.8480   62.8890 C.3   242  TYR242      0.1605
     69  C         19.8780   22.9720   62.1430 C.2   242  TYR242      0.2264
     70  O         20.8160   23.6110   62.6340 O.2   242  TYR242     -0.2867
     71  CB        17.9070   24.2490   63.0850 C.3   242  TYR242      0.0534
     72  CG        16.6050   24.0470   63.7640 C.ar  242  TYR242     -0.0201
     73  CD1       15.5730   23.4110   63.1040 C.ar  242  TYR242     -0.0009
     74  CD2       16.4300   24.3590   65.1320 C.ar  242  TYR242     -0.0009
     75  CE1       14.3840   23.0990   63.7490 C.ar  242  TYR242      0.0417
     76  CE2       15.2320   24.0890   65.7820 C.ar  242  TYR242      0.0417
     77  CZ        14.2130   23.4380   65.0830 C.ar  242  TYR242      0.1957
     78  OH        13.0050   23.1280   65.6870 O.3   242  TYR242     -0.2866
     79  N         17.8040   27.1190   58.2170 N.3   245  TRP245     -0.1227
     80  CA        16.5160   27.6660   58.6390 C.3   245  TRP245      0.1737
     81  C         15.6730   27.9800   57.4330 C.2   245  TRP245      0.2595
     82  O         16.2100   28.1210   56.3280 O.2   245  TRP245     -0.2718
     83  CB        16.7510   28.9570   59.4390 C.3   245  TRP245      0.0564
     84  CG        15.6550   29.4090   60.3250 C.ar  245  TRP245      0.0003
     85  CD1       15.0490   30.6310   60.2960 C.ar  245  TRP245      0.0946
     86  CD2       15.0440   28.6920   61.4180 C.ar  245  TRP245      0.0152
     87  NE1       14.1000   30.7050   61.2720 N.ar  245  TRP245     -0.2442
     88  CE2       14.0690   29.5270   61.9670 C.ar  245  TRP245      0.0810
     89  CE3       15.1980   27.4250   61.9390 C.ar  245  TRP245      0.0012
     90  CZ2       13.2650   29.1390   63.0360 C.ar  245  TRP245      0.0191
     91  CZ3       14.4200   27.0500   63.0220 C.ar  245  TRP245      0.0001
     92  CH2       13.4640   27.8900   63.5500 C.ar  245  TRP245      0.0015
     93  N         14.3730   28.1440   57.6740 N.am  246  LEU246     -0.1980
     94  CA        13.4310   28.5330   56.6600 C.3   246  LEU246      0.1596
     95  C         13.6000   29.9480   56.0690 C.2   246  LEU246      0.2287
     96  O         14.3110   30.7980   56.6150 O.2   246  LEU246     -0.2864
     97  CB        12.0040   28.4310   57.2060 C.3   246  LEU246      0.0297
     98  CG        11.6370   29.3370   58.3920 C.3   246  LEU246      0.0022
     99  CD1       10.4240   30.2040   58.1380 C.3   246  LEU246      0.0001
    100  CD2       11.4060   28.4420   59.5980 C.3   246  LEU246      0.0001
    101  N         11.4220   33.2150   53.7300 N.3   248  HIS248     -0.1241
    102  CA        10.1450   33.8700   53.3220 C.3   248  HIS248      0.1621
    103  C         10.3920   34.6660   52.0590 C.2   248  HIS248      0.2264
    104  O         11.4440   35.2310   51.9020 O.2   248  HIS248     -0.2867
    105  CB         9.6420   34.8640   54.3660 C.3   248  HIS248      0.0745
    106  CG         9.2380   34.2430   55.6530 C.ar  248  HIS248      0.0817
    107  ND1       10.0400   34.2780   56.7640 N.ar  248  HIS248     -0.2268
    108  CD2        8.1330   33.5340   56.0020 C.ar  248  HIS248      0.1154
    109  CE1        9.4420   33.6380   57.7570 C.ar  248  HIS248      0.1986
    110  NE2        8.2800   33.1850   57.3230 N.ar  248  HIS248     -0.2212
    111  N         17.4500   18.4430   61.4160 N.3   278  TYR278     -0.1241
    112  CA        16.3420   19.0400   60.6660 C.3   278  TYR278      0.1605
    113  C         16.8500   20.2570   59.9100 C.2   278  TYR278      0.2264
    114  O         17.2850   21.1820   60.5670 O.2   278  TYR278     -0.2867
    115  CB        15.2070   19.4480   61.6430 C.3   278  TYR278      0.0534
    116  CG        13.9320   19.8950   60.9570 C.ar  278  TYR278     -0.0201
    117  CD1       13.8220   21.1780   60.3650 C.ar  278  TYR278     -0.0009
    118  CD2       12.8650   19.0450   60.8470 C.ar  278  TYR278     -0.0009
    119  CE1       12.6550   21.5560   59.6960 C.ar  278  TYR278      0.0417
    120  CE2       11.6890   19.4220   60.1850 C.ar  278  TYR278      0.0417
    121  CZ        11.5980   20.6580   59.6000 C.ar  278  TYR278      0.1957
    122  OH        10.4370   20.9910   58.9320 O.3   278  TYR278     -0.2866
    123  N          3.8160   32.2840   57.6820 N.3   293  ASN293     -0.1240
    124  CA         3.8040   32.7330   59.0640 C.3   293  ASN293      0.1653
    125  C          3.0260   34.0080   59.2470 C.2   293  ASN293      0.2266
    126  O          2.7840   34.7120   58.2730 O.2   293  ASN293     -0.2867
    127  CB         5.2180   32.9480   59.5360 C.3   293  ASN293      0.1155
    128  CG         5.9350   31.6440   59.7400 C.2   293  ASN293      0.2627
    129  OD1        5.5670   30.8400   60.6010 O.2   293  ASN293     -0.2716
    130  ND2        6.9580   31.4020   58.9290 N.am  293  ASN293     -0.0877
    131  N         16.6200   24.9400   52.4930 N.3   305  TYR305     -0.1241
    132  CA        16.9460   25.0600   53.8930 C.3   305  TYR305      0.1605
    133  C         18.4180   25.3020   54.2470 C.2   305  TYR305      0.2264
    134  O         18.7590   25.3720   55.4420 O.2   305  TYR305     -0.2867
    135  CB        16.4860   23.8220   54.5990 C.3   305  TYR305      0.0534
    136  CG        15.9460   24.0390   55.9780 C.ar  305  TYR305     -0.0201
    137  CD1       14.6280   24.4680   56.1690 C.ar  305  TYR305     -0.0009
    138  CD2       16.7090   23.7510   57.0930 C.ar  305  TYR305     -0.0009
    139  CE1       14.1100   24.6260   57.4580 C.ar  305  TYR305      0.0417
    140  CE2       16.2030   23.9200   58.3690 C.ar  305  TYR305      0.0417
    141  CZ        14.9090   24.3230   58.5480 C.ar  305  TYR305      0.1957
    142  OH        14.4270   24.4690   59.8330 O.3   305  TYR305     -0.2866
    143  N          1.0160   28.0380   58.9020 N.3   456  ASN456     -0.1225
    144  CA         1.2770   26.7180   59.5290 C.3   456  ASN456      0.1785
    145  C          1.6820   26.7250   60.9890 C.2   456  ASN456      0.2597
    146  O          1.9800   25.6720   61.5720 O.2   456  ASN456     -0.2718
    147  CB         2.3600   25.9960   58.7670 C.3   456  ASN456      0.1169
    148  CG         3.6640   26.7340   58.8200 C.2   456  ASN456      0.2627
    149  OD1        4.4590   26.5540   59.7380 O.2   456  ASN456     -0.2716
    150  ND2        3.8990   27.5530   57.8550 N.am  456  ASN456     -0.0877
    151  N          1.7300   27.9020   61.5800 N.am  457  TYR457     -0.1976
    152  CA         2.2100   28.0450   62.9870 C.3   457  TYR457      0.1639
    153  C          1.5910   29.2610   63.6550 C.2   457  TYR457      0.2290
    154  O          1.4210   30.3150   63.0420 O.2   457  TYR457     -0.2864
    155  CB         3.7200   28.2040   63.0060 C.3   457  TYR457      0.0560
    156  CG         4.3800   28.3570   64.3690 C.ar  457  TYR457     -0.0198
    157  CD1        4.5290   27.2640   65.2380 C.ar  457  TYR457     -0.0009
    158  CD2        4.9240   29.5910   64.7520 C.ar  457  TYR457     -0.0009
    159  CE1        5.1760   27.4100   66.4590 C.ar  457  TYR457      0.0417
    160  CE2        5.5740   29.7490   65.9670 C.ar  457  TYR457      0.0417
    161  CZ         5.7020   28.6630   66.8040 C.ar  457  TYR457      0.1957
    162  OH         6.3480   28.8650   67.9640 O.3   457  TYR457     -0.2866
@<TRIPOS>BOND
     1   104   103    2
     2   103   102    1
     3   131   132    1
     4   102   101    1
     5   102   105    1
     6   132   133    1
     7   132   135    1
     8   133   134    2
     9    35    34    2
    10   105   106    1
    11   135   136    1
    12    34    33    1
    13   106   108   ar
    14   106   107   ar
    15   136   137   ar
    16   136   138   ar
    17   108   110   ar
    18    95    96    2
    19    95    94    1
    20   137   139   ar
    21    36    33    1
    22    36    37    1
    23    82    81    2
    24     4     3    2
    25    30    29    2
    26    94    97    1
    27    94    93    1
    28    33    32    1
    29   107   109   ar
    30   138   140   ar
    31    37    38    1
    32    97    98    1
    33   110   109   ar
    34    81    93   am
    35    81    80    1
    36   139   141   ar
    37    29    32   am
    38    29    28    1
    39     3     2    1
    40   123   124    1
    41    20    18    1
    42   150   148   am
    43    99    98    1
    44    79    80    1
    45     1     2    1
    46   126   125    2
    47   140   141   ar
    48    31    28    1
    49    98   100    1
    50    38    39   ar
    51    38    40   ar
    52     5     2    1
    53     5     6    1
    54   141   142    1
    55    80    83    1
    56   147   148    1
    57   147   144    1
    58    24    23    2
    59    28    27    1
    60   148   149    2
    61   143   144    1
    62   130   128   am
    63   122   121    1
    64   124   125    1
    65   124   127    1
    66    18    17    1
    67     8     6   ar
    68     8    10   ar
    69    83    84    1
    70   144   145    1
    71   127   128    1
    72   121   119   ar
    73   121   120   ar
    74     6     7   ar
    75   119   117   ar
    76   128   129    2
    77    23    27   am
    78    23    22    1
    79   113   114    2
    80   113   112    1
    81   120   118   ar
    82    85    84   ar
    83    85    87   ar
    84    84    86   ar
    85   117   116   ar
    86    10    11   ar
    87    17    19    1
    88    17    14    1
    89   112   111    1
    90   112   115    1
    91   118   116   ar
    92   116   115    1
    93     7     9   ar
    94   145   146    2
    95   145   151   am
    96    22    21    1
    97    22    25    1
    98    87    88   ar
    99    21    15   am
   100    86    89   ar
   101    86    88   ar
   102   151   152    1
   103    15    16    2
   104    15    14    1
   105    14    13    1
   106    11     9   ar
   107    11    12    1
   108    89    91   ar
   109    88    90   ar
   110    69    70    2
   111    69    68    1
   112    26    25    1
   113    68    71    1
   114    68    67    1
   115   152   155    1
   116   152   153    1
   117   155   156    1
   118    91    92   ar
   119    90    92   ar
   120   154   153    2
   121    71    72    1
   122    73    75   ar
   123    73    72   ar
   124    75    77   ar
   125    72    74   ar
   126   156   158   ar
   127   156   157   ar
   128    65    64   ar
   129   158   160   ar
   130    66    64   ar
   131    64    63    1
   132    47    46    2
   133    63    62    1
   134    77    78    1
   135    77    76   ar
   136    48    46   am
   137    74    76   ar
   138    46    45    1
   139    62    59    1
   140   157   159   ar
   141    59    60    1
   142    59    58    1
   143    45    42    1
   144    60    61    2
   145   160   161   ar
   146   159   161   ar
   147   161   162    1
   148    56    55   ar
   149    42    41    1
   150    42    43    1
   151    44    43    2
   152    55    57   ar
   153    55    54    1
   154    43    49   am
   155    54    53    1
   156    53    50    1
   157    49    50    1
   158    50    51    1
   159    52    51    2
