@<TRIPOS>MOLECULE
tmp/3wf3B03.pdb
 136 134 0 0 0
SMALL
GASTEIGER

@<TRIPOS>ATOM
      1  N         35.0420    4.2970    7.3800 N.3    55  TYR55      -0.1241
      2  CA        35.7500    3.1470    6.7980 C.3    55  TYR55       0.1605
      3  C         35.0110    1.8300    7.1650 C.2    55  TYR55       0.2264
      4  O         34.5570    1.6510    8.2960 O.2    55  TYR55      -0.2867
      5  CB        37.1450    3.0010    7.3990 C.3    55  TYR55       0.0534
      6  CG        38.3040    3.7990    6.8420 C.ar   55  TYR55      -0.0201
      7  CD1       38.5270    3.8960    5.4670 C.ar   55  TYR55      -0.0009
      8  CD2       39.2370    4.4340    7.7110 C.ar   55  TYR55      -0.0009
      9  CE1       39.6190    4.6010    4.9430 C.ar   55  TYR55       0.0417
     10  CE2       40.3370    5.1470    7.1990 C.ar   55  TYR55       0.0417
     11  CZ        40.5210    5.2280    5.7960 C.ar   55  TYR55       0.1957
     12  OH        41.6120    5.9440    5.2320 O.3    55  TYR55      -0.2866
     13  N         42.0480   -0.0670    4.0430 N.3    98  ILE98      -0.1231
     14  CA        41.7090    1.2390    4.5740 C.3    98  ILE98       0.1692
     15  C         42.8330    1.9220    5.3970 C.2    98  ILE98       0.2592
     16  O         42.6510    3.0770    5.8470 O.2    98  ILE98      -0.2718
     17  CB        40.4910    1.1470    5.5210 C.3    98  ILE98       0.0266
     18  CG1       40.8240    0.2520    6.7080 C.3    98  ILE98       0.0019
     19  CG2       39.2270    0.6710    4.8210 C.3    98  ILE98       0.0020
     20  CD1       39.7750    0.3800    7.7960 C.3    98  ILE98       0.0001
     21  N         43.9500    1.2140    5.6500 N.am   99  CYS99      -0.1956
     22  CA        45.0830    1.7810    6.4420 C.3    99  CYS99       0.1843
     23  C         44.6290    2.0380    7.9070 C.2    99  CYS99       0.2625
     24  O         44.5340    1.0900    8.7140 O.2    99  CYS99      -0.2714
     25  CB        45.6200    3.0460    5.7350 C.3    99  CYS99       0.0997
     26  SG        47.1690    3.7430    6.3770 S.3    99  CYS99      -0.0797
     27  N         44.3170    3.2980    8.2270 N.am  100  ALA100     -0.1963
     28  CA        43.4160    3.6570    9.3480 C.3   100  ALA100      0.1728
     29  C         43.9570    3.4420   10.7660 C.2   100  ALA100      0.2616
     30  O         43.1890    3.4990   11.7140 O.2   100  ALA100     -0.2715
     31  CB        42.1210    2.9080    9.2030 C.3   100  ALA100      0.0334
     32  N         45.2570    3.1540   10.8870 N.am  101  GLU101     -0.1977
     33  CA        45.8980    2.7820   12.1640 C.3   101  GLU101      0.1602
     34  C         45.1180    1.6270   12.7590 C.2   101  GLU101      0.2287
     35  O         44.8970    1.5280   14.0010 O.2   101  GLU101     -0.2864
     36  CB        46.0110    3.9650   13.1850 C.3   101  GLU101      0.0415
     37  CG        47.0660    4.9990   12.8180 C.3   101  GLU101      0.1163
     38  CD        46.6660    5.8750   11.6540 C.2   101  GLU101      0.3649
     39  OE1       45.7710    6.7210   11.8310 O.co2 101  GLU101     -0.2457
     40  OE2       47.2560    5.7110   10.5710 O.co2 101  GLU101     -0.2457
     41  N         42.5960    2.8210   -0.8290 N.3   159  ASN159     -0.1225
     42  CA        42.9880    3.8920    0.0680 C.3   159  ASN159      0.1785
     43  C         44.4500    4.2830   -0.0970 C.2   159  ASN159      0.2597
     44  O         45.3270    3.4990    0.2260 O.2   159  ASN159     -0.2718
     45  CB        42.6960    3.5120    1.5320 C.3   159  ASN159      0.1169
     46  CG        42.8300    4.7010    2.4330 C.2   159  ASN159      0.2627
     47  OD1       41.8410    5.4860    2.6330 O.2   159  ASN159     -0.2716
     48  ND2       44.0880    4.9530    2.8920 N.am  159  ASN159     -0.0877
     49  N         44.7030    5.4640   -0.6460 N.am  160  GLU160     -0.1979
     50  CA        46.0780    5.9420   -0.9570 C.3   160  GLU160      0.1602
     51  C         46.9170    4.9300   -1.6640 C.2   160  GLU160      0.2287
     52  O         48.0850    4.7260   -1.3080 O.2   160  GLU160     -0.2864
     53  CB        46.8460    6.3420    0.2920 C.3   160  GLU160      0.0415
     54  CG        46.2400    7.5230    0.9840 C.3   160  GLU160      0.1163
     55  CD        47.0340    7.9640    2.1750 C.2   160  GLU160      0.3649
     56  OE1       47.7420    7.1230    2.8290 O.co2 160  GLU160     -0.2457
     57  OE2       46.8820    9.1730    2.4600 O.co2 160  GLU160     -0.2457
     58  N         40.8960   14.0340    3.5870 N.3   240  GLU240     -0.1245
     59  CA        41.4970   13.8330    4.9060 C.3   240  GLU240      0.1567
     60  C         42.2810   15.0470    5.2940 C.2   240  GLU240      0.2260
     61  O         43.4570   15.1150    5.0820 O.2   240  GLU240     -0.2867
     62  CB        42.4110   12.5790    4.9740 C.3   240  GLU240      0.0388
     63  CG        41.7010   11.2610    4.6660 C.3   240  GLU240      0.1160
     64  CD        42.6240   10.0770    4.7590 C.2   240  GLU240      0.3649
     65  OE1       43.7580   10.2720    5.2510 O.co2 240  GLU240     -0.2457
     66  OE2       42.2300    8.9680    4.3630 O.co2 240  GLU240     -0.2457
     67  N         43.6410   16.6840    8.2740 N.3   242  TYR242     -0.1241
     68  CA        44.0530   16.1420    9.5660 C.3   242  TYR242      0.1605
     69  C         43.8670   17.1580   10.7040 C.2   242  TYR242      0.2264
     70  O         44.5020   18.2300   10.6920 O.2   242  TYR242     -0.2867
     71  CB        45.5010   15.6540    9.4820 C.3   242  TYR242      0.0534
     72  CG        45.6430   14.6370    8.3850 C.ar  242  TYR242     -0.0201
     73  CD1       45.0440   13.4060    8.5010 C.ar  242  TYR242     -0.0009
     74  CD2       46.3420   14.9090    7.2060 C.ar  242  TYR242     -0.0009
     75  CE1       45.1470   12.4670    7.5080 C.ar  242  TYR242      0.0417
     76  CE2       46.4490   13.9590    6.1890 C.ar  242  TYR242      0.0417
     77  CZ        45.8220   12.7680    6.3390 C.ar  242  TYR242      0.1957
     78  OH        45.8570   11.8280    5.3440 O.3   242  TYR242     -0.2866
     79  N         46.6520   13.9320   14.9750 N.3   245  TRP245     -0.1227
     80  CA        47.4750   12.8290   14.4470 C.3   245  TRP245      0.1737
     81  C         47.4990   11.6100   15.3940 C.2   245  TRP245      0.2595
     82  O         46.9500   11.6420   16.5320 O.2   245  TRP245     -0.2718
     83  CB        48.8980   13.3520   14.1770 C.3   245  TRP245      0.0564
     84  CG        49.7110   12.6010   13.1910 C.ar  245  TRP245      0.0003
     85  CD1       50.8640   11.8730   13.4540 C.ar  245  TRP245      0.0946
     86  CD2       49.4430   12.4090   11.8060 C.ar  245  TRP245      0.0152
     87  NE1       51.3280   11.3150   12.3280 N.ar  245  TRP245     -0.2442
     88  CE2       50.4920   11.5950   11.2930 C.ar  245  TRP245      0.0810
     89  CE3       48.4340   12.8370   10.9410 C.ar  245  TRP245      0.0012
     90  CZ2       50.5670   11.2150    9.9660 C.ar  245  TRP245      0.0191
     91  CZ3       48.5090   12.4490    9.6170 C.ar  245  TRP245      0.0001
     92  CH2       49.5690   11.6450    9.1390 C.ar  245  TRP245      0.0015
     93  N         48.1190   10.5330   14.8810 N.am  246  LEU246     -0.1980
     94  CA        48.2260    9.2330   15.5190 C.3   246  LEU246      0.1596
     95  C         49.3700    9.1670   16.5280 C.2   246  LEU246      0.2287
     96  O         50.2850   10.0200   16.5350 O.2   246  LEU246     -0.2864
     97  CB        48.4880    8.1400   14.4950 C.3   246  LEU246      0.0297
     98  CG        49.7520    8.1100   13.6580 C.3   246  LEU246      0.0022
     99  CD1       50.4040    6.7190   13.6570 C.3   246  LEU246      0.0001
    100  CD2       49.4440    8.5550   12.2360 C.3   246  LEU246      0.0001
    101  N         39.5880   14.6590    9.2610 N.3   278  TYR278     -0.1241
    102  CA        40.0570   13.3430    9.7410 C.3   278  TYR278      0.1605
    103  C         40.9560   13.5530   10.9820 C.2   278  TYR278      0.2264
    104  O         42.0190   14.1640   10.8520 O.2   278  TYR278     -0.2867
    105  CB        40.8400   12.6240    8.6240 C.3   278  TYR278      0.0534
    106  CG        41.2300   11.1790    8.9620 C.ar  278  TYR278     -0.0201
    107  CD1       42.2250   10.9020    9.9060 C.ar  278  TYR278     -0.0009
    108  CD2       40.5140   10.0880    8.4210 C.ar  278  TYR278     -0.0009
    109  CE1       42.5360    9.5690   10.2540 C.ar  278  TYR278      0.0417
    110  CE2       40.8290    8.7710    8.7630 C.ar  278  TYR278      0.0417
    111  CZ        41.8430    8.5270    9.6790 C.ar  278  TYR278      0.1957
    112  OH        42.1380    7.2020   10.0480 O.3   278  TYR278     -0.2866
    113  N         43.3070   10.8890   19.0580 N.3   305  TYR305     -0.1241
    114  CA        43.7570   11.5560   17.8270 C.3   305  TYR305      0.1605
    115  C         43.9120   13.0420   18.0270 C.2   305  TYR305      0.2264
    116  O         44.2490   13.7460   17.0930 O.2   305  TYR305     -0.2867
    117  CB        42.7690   11.2920   16.6490 C.3   305  TYR305      0.0534
    118  CG        43.4330   11.3490   15.2570 C.ar  305  TYR305     -0.0201
    119  CD1       44.1510   10.2630   14.7700 C.ar  305  TYR305     -0.0009
    120  CD2       43.3770   12.5030   14.4620 C.ar  305  TYR305     -0.0009
    121  CE1       44.7580   10.2800   13.5140 C.ar  305  TYR305      0.0417
    122  CE2       44.0220   12.5500   13.2060 C.ar  305  TYR305      0.0417
    123  CZ        44.7120   11.4210   12.7320 C.ar  305  TYR305      0.1957
    124  OH        45.3410   11.4100   11.4760 O.3   305  TYR305     -0.2866
    125  N         50.5350    0.0670    7.0950 N.3   457  TYR457     -0.1241
    126  CA        51.0250    0.9680    6.0440 C.3   457  TYR457      0.1605
    127  C         52.4340    0.5500    5.6820 C.2   457  TYR457      0.2264
    128  O         53.1980    0.1170    6.5300 O.2   457  TYR457     -0.2867
    129  CB        50.9960    2.3950    6.5490 C.3   457  TYR457      0.0534
    130  CG        51.3910    3.4820    5.5810 C.ar  457  TYR457     -0.0201
    131  CD1       50.4930    3.9610    4.6500 C.ar  457  TYR457     -0.0009
    132  CD2       52.6350    4.1030    5.6740 C.ar  457  TYR457     -0.0009
    133  CE1       50.8410    4.9740    3.7740 C.ar  457  TYR457      0.0417
    134  CE2       52.9980    5.1000    4.7900 C.ar  457  TYR457      0.0417
    135  CZ        52.0940    5.5190    3.8400 C.ar  457  TYR457      0.1957
    136  OH        52.4260    6.5230    2.9880 O.3   457  TYR457     -0.2866
@<TRIPOS>BOND
     1    51    52    2
     2    51    50    1
     3    50    49    1
     4    50    53    1
     5    41    42    1
     6    49    43   am
     7    43    42    1
     8    43    44    2
     9    42    45    1
    10    53    54    1
    11    54    55    1
    12    45    46    1
    13    55    57   ar
    14    55    56   ar
    15    46    47    2
    16    46    48   am
    17   136   135    1
    18    58    59    1
    19   133   135   ar
    20   133   131   ar
    21   135   134   ar
    22    13    14    1
    23    66    64   ar
    24    14    15    1
    25    14    17    1
    26   131   130   ar
    27    63    64    1
    28    63    62    1
    29    64    65   ar
    30   134   132   ar
    31    19    17    1
    32    59    62    1
    33    59    60    1
    34     9     7   ar
    35     9    11   ar
    36    61    60    2
    37    12    11    1
    38    78    77    1
    39    15    21   am
    40    15    16    2
    41     7     6   ar
    42    17    18    1
    43   130   132   ar
    44   130   129    1
    45    21    22    1
    46   127   126    1
    47   127   128    2
    48    25    26    1
    49    25    22    1
    50    11    10   ar
    51   126   129    1
    52   126   125    1
    53    76    77   ar
    54    76    74   ar
    55    77    75   ar
    56    22    23    1
    57    18    20    1
    58     2     3    1
    59     2     1    1
    60     2     5    1
    61     6     5    1
    62     6     8   ar
    63     3     4    2
    64    10     8   ar
    65    74    72   ar
    66    75    73   ar
    67    23    27   am
    68    23    24    2
    69    27    28    1
    70    67    68    1
    71    72    73   ar
    72    72    71    1
    73   108   110   ar
    74   108   106   ar
    75   105   106    1
    76   105   102    1
    77   110   111   ar
    78   106   107   ar
    79    92    91   ar
    80    92    90   ar
    81    31    28    1
    82   101   102    1
    83    28    29    1
    84    71    68    1
    85    68    69    1
    86    91    89   ar
    87   111   112    1
    88   111   109   ar
    89   102   103    1
    90   107   109   ar
    91    90    88   ar
    92    40    38   ar
    93    70    69    2
    94    29    32   am
    95    29    30    2
    96   104   103    2
    97    32    33    1
    98    89    86   ar
    99    88    86   ar
   100    88    87   ar
   101   124   123    1
   102    38    39   ar
   103    38    37    1
   104    86    84   ar
   105    33    34    1
   106    33    36    1
   107   100    98    1
   108    87    85   ar
   109   123   122   ar
   110   123   121   ar
   111    34    35    2
   112    37    36    1
   113    84    85   ar
   114    84    83    1
   115   122   120   ar
   116   121   119   ar
   117    99    98    1
   118    98    97    1
   119    83    80    1
   120    80    79    1
   121    80    81    1
   122   120   118   ar
   123    97    94    1
   124   119   118   ar
   125    93    81   am
   126    93    94    1
   127   118   117    1
   128    81    82    2
   129    94    95    1
   130    95    96    2
   131   117   114    1
   132   116   115    2
   133   114   115    1
   134   114   113    1
