@<TRIPOS>MOLECULE
tmp/3wf3B02.pdb
 80 77 0 0 0
SMALL
GASTEIGER

@<TRIPOS>ATOM
      1  N         42.5420  -10.1920   42.5670 N.3   352  GLU352     -0.1245
      2  CA        43.4670  -11.2440   42.9310 C.3   352  GLU352      0.1567
      3  C         43.7260  -12.2030   41.8120 C.2   352  GLU352      0.2260
      4  O         42.9700  -12.3360   40.8610 O.2   352  GLU352     -0.2867
      5  CB        43.0180  -11.9820   44.1780 C.3   352  GLU352      0.0388
      6  CG        41.6450  -12.5710   44.0420 C.3   352  GLU352      0.1160
      7  CD        41.0560  -12.9380   45.3860 C.2   352  GLU352      0.3649
      8  OE1       39.9120  -13.4270   45.3930 O.co2 352  GLU352     -0.2457
      9  OE2       41.7310  -12.7220   46.4250 O.co2 352  GLU352     -0.2457
     10  N         43.9740  -15.3790   39.8380 N.3   354  LEU354     -0.1245
     11  CA        43.1550  -16.5550   39.7260 C.3   354  LEU354      0.1561
     12  C         44.0010  -17.7210   39.2360 C.2   354  LEU354      0.2260
     13  O         44.1120  -18.7320   39.9270 O.2   354  LEU354     -0.2867
     14  CB        41.9790  -16.2960   38.7810 C.3   354  LEU354      0.0270
     15  CG        41.0300  -17.5000   38.6180 C.3   354  LEU354      0.0019
     16  CD1       40.3180  -17.7700   39.9480 C.3   354  LEU354      0.0001
     17  CD2       40.0410  -17.2650   37.4710 C.3   354  LEU354      0.0001
     18  N         34.8540  -17.0110   32.7520 N.3   495  HIS495     -0.1241
     19  CA        35.6320  -16.9160   33.9980 C.3   495  HIS495      0.1621
     20  C         36.6690  -18.0420   34.1080 C.2   495  HIS495      0.2264
     21  O         36.8740  -18.6210   35.1780 O.2   495  HIS495     -0.2867
     22  CB        34.6760  -16.9160   35.1950 C.3   495  HIS495      0.0745
     23  CG        35.2430  -16.3210   36.4440 C.ar  495  HIS495      0.0817
     24  ND1       35.8090  -17.0840   37.4450 N.ar  495  HIS495     -0.2268
     25  CD2       35.2710  -15.0440   36.8900 C.ar  495  HIS495      0.1154
     26  CE1       36.1910  -16.2990   38.4380 C.ar  495  HIS495      0.1986
     27  NE2       35.8750  -15.0560   38.1260 N.ar  495  HIS495     -0.2212
     28  N         32.4500  -20.6170   35.2230 N.3   499  TRP499     -0.1241
     29  CA        30.9950  -20.4370   34.9270 C.3   499  TRP499      0.1605
     30  C         30.4090  -21.4160   33.9160 C.2   499  TRP499      0.2264
     31  O         29.2820  -21.2310   33.4520 O.2   499  TRP499     -0.2867
     32  CB        30.6880  -19.0360   34.4070 C.3   499  TRP499      0.0550
     33  CG        30.9610  -17.9320   35.3710 C.ar  499  TRP499      0.0003
     34  CD1       30.9130  -17.9830   36.7470 C.ar  499  TRP499      0.0946
     35  CD2       31.3110  -16.5850   35.0220 C.ar  499  TRP499      0.0152
     36  NE1       31.2380  -16.7510   37.2600 N.ar  499  TRP499     -0.2442
     37  CE2       31.4810  -15.8770   36.2230 C.ar  499  TRP499      0.0810
     38  CE3       31.5200  -15.9230   33.8020 C.ar  499  TRP499      0.0012
     39  CZ2       31.8630  -14.5270   36.2430 C.ar  499  TRP499      0.0191
     40  CZ3       31.8970  -14.6000   33.8130 C.ar  499  TRP499      0.0001
     41  CH2       32.0680  -13.9080   35.0330 C.ar  499  TRP499      0.0015
     42  N         41.5870  -11.2210   38.8280 N.3   511  MET511     -0.1230
     43  CA        40.1970  -10.8650   38.8060 C.3   511  MET511      0.1702
     44  C         39.7170  -10.2400   40.0740 C.2   511  MET511      0.2593
     45  O         40.2130  -10.5360   41.1540 O.2   511  MET511     -0.2718
     46  CB        39.3510  -12.0710   38.5330 C.3   511  MET511      0.0401
     47  CG        38.9120  -12.1070   37.0820 C.3   511  MET511      0.0596
     48  SD        39.0290  -13.7500   36.4220 S.3   511  MET511     -0.1393
     49  CE        40.7870  -13.7690   36.1830 C.3   511  MET511      0.0692
     50  N         38.7270   -9.3720   39.9020 N.am  512  GLY512     -0.1942
     51  CA        38.1340   -8.6010   40.9750 C.3   512  GLY512      0.2014
     52  C         36.7660   -8.0880   40.5570 C.2   512  GLY512      0.2638
     53  O         36.4890   -7.8160   39.3670 O.2   512  GLY512     -0.2714
     54  N         35.9080   -7.9390   41.5620 N.am  513  ASN513     -0.1972
     55  CA        34.5140   -7.5830   41.3760 C.3   513  ASN513      0.1688
     56  C         34.2570   -6.1710   41.9790 C.2   513  ASN513      0.2292
     57  O         34.8190   -5.8000   43.0110 O.2   513  ASN513     -0.2864
     58  CB        33.6160   -8.6700   42.0410 C.3   513  ASN513      0.1181
     59  CG        33.3810   -9.9210   41.1450 C.2   513  ASN513      0.2629
     60  OD1       33.5370   -9.8760   39.9200 O.2   513  ASN513     -0.2716
     61  ND2       32.9850  -11.0410   41.7660 N.am  513  ASN513     -0.0877
     62  N         24.2460   -6.9580   39.2950 N.3   570  ALA570     -0.1231
     63  CA        25.1700   -8.0090   39.6080 C.3   570  ALA570      0.1679
     64  C         26.5650   -7.4130   39.6790 C.2   570  ALA570      0.2434
     65  O         26.8100   -6.3740   39.1150 O.2   570  ALA570     -0.2733
     66  CB        25.1000   -9.0500   38.5010 C.3   570  ALA570      0.0304
     67  N         27.4890   -8.0820   40.3660 N.am  571  PRO571     -0.2729
     68  CA        28.8760   -7.6270   40.3590 C.3   571  PRO571      0.1401
     69  C         29.4740   -7.4860   38.9440 C.2   571  PRO571      0.2269
     70  O         29.2080   -8.2910   38.0740 O.2   571  PRO571     -0.2865
     71  CB        29.6060   -8.7510   41.1000 C.3   571  PRO571      0.0296
     72  CG        28.5730   -9.3520   41.9860 C.3   571  PRO571      0.0237
     73  CD        27.3190   -9.3090   41.1540 C.3   571  PRO571      0.0939
     74  N         32.8110   -7.7760   36.8810 N.3   573  THR573     -0.1218
     75  CA        34.0210   -8.5650   36.9870 C.3   573  THR573      0.1862
     76  C         35.0390   -7.9080   36.0850 C.2   573  THR573      0.2287
     77  O         34.8300   -7.8550   34.8450 O.2   573  THR573     -0.2866
     78  CB        33.8180  -10.0450   36.5260 C.3   573  THR573      0.1770
     79  OG1       32.9250  -10.7540   37.4070 O.3   573  THR573     -0.2211
     80  CG2       35.1680  -10.8220   36.4870 C.3   573  THR573      0.0375
@<TRIPOS>BOND
     1    18    19    1
     2    31    30    2
     3    38    40   ar
     4    38    35   ar
     5    40    41   ar
     6    30    29    1
     7    19    20    1
     8    19    22    1
     9    20    21    2
    10    32    29    1
    11    32    33    1
    12    77    76    2
    13    29    28    1
    14    35    33   ar
    15    35    37   ar
    16    41    39   ar
    17    22    23    1
    18    33    34   ar
    19    76    75    1
    20    49    48    1
    21    37    39   ar
    22    37    36   ar
    23    48    47    1
    24    23    25   ar
    25    23    24   ar
    26    80    78    1
    27    78    75    1
    28    78    79    1
    29    34    36   ar
    30    74    75    1
    31    25    27   ar
    32    47    46    1
    33    24    26   ar
    34    17    15    1
    35    70    69    2
    36    27    26   ar
    37    66    63    1
    38    46    43    1
    39    15    14    1
    40    15    16    1
    41    14    11    1
    42    43    42    1
    43    43    44    1
    44    69    68    1
    45    65    64    2
    46    12    11    1
    47    12    13    2
    48    62    63    1
    49    53    52    2
    50    63    64    1
    51    64    67   am
    52    11    10    1
    53    50    44   am
    54    50    51    1
    55    60    59    2
    56    44    45    2
    57    68    67    1
    58    68    71    1
    59    67    73    1
    60    52    51    1
    61    52    54   am
    62     4     3    2
    63    71    72    1
    64    59    61   am
    65    59    58    1
    66    73    72    1
    67    55    54    1
    68    55    56    1
    69    55    58    1
    70     3     2    1
    71    56    57    2
    72     1     2    1
    73     2     5    1
    74     6     5    1
    75     6     7    1
    76     7     8   ar
    77     7     9   ar
