@<TRIPOS>MOLECULE
tmp/3wf5A00.pdb
 162 154 0 0 0
SMALL
GASTEIGER

@<TRIPOS>ATOM
      1  N         -8.2390   13.4570  -17.9450 N.3    13  LEU13      -0.1231
      2  CA        -9.6000   13.4460  -17.4240 C.3    13  LEU13       0.1693
      3  C         -9.7910   14.5560  -16.3970 C.2    13  LEU13       0.2593
      4  O        -10.9120   14.9970  -16.1390 O.2    13  LEU13      -0.2718
      5  CB        -9.9230   12.0770  -16.8110 C.3    13  LEU13       0.0284
      6  CG        -9.9900   10.9060  -17.7910 C.3    13  LEU13       0.0019
      7  CD1      -10.1770    9.5780  -17.0580 C.3    13  LEU13       0.0001
      8  CD2      -11.1220   11.1130  -18.8090 C.3    13  LEU13       0.0001
      9  N         -8.6910   15.0090  -15.8050 N.am   14  GLY14      -0.1942
     10  CA        -8.7490   16.1140  -14.8630 C.3    14  GLY14       0.2014
     11  C         -7.3900   16.4230  -14.2720 C.2    14  GLY14       0.2639
     12  O         -6.5580   15.5180  -14.1200 O.2    14  GLY14      -0.2714
     13  N         -7.1670   17.7010  -13.9590 N.am   15  LYS15      -0.1963
     14  CA        -5.9390   18.1640  -13.3050 C.3    15  LYS15       0.1728
     15  C         -6.2390   19.2700  -12.3060 C.2    15  LYS15       0.2616
     16  O         -7.0480   20.1610  -12.5680 O.2    15  LYS15      -0.2715
     17  CB        -4.9120   18.6780  -14.3230 C.3    15  LYS15       0.0311
     18  CG        -4.2020   17.5900  -15.1240 C.3    15  LYS15       0.0038
     19  CD        -3.0450   18.1640  -15.9350 C.3    15  LYS15       0.0206
     20  CE        -2.3570   17.1030  -16.7920 C.3    15  LYS15       0.1093
     21  NZ        -1.3400   17.7350  -17.6880 N.3    15  LYS15      -0.1314
     22  N         -5.5820   19.2020  -11.1570 N.am   16  GLY16      -0.1955
     23  CA        -5.6800   20.2300  -10.1460 C.3    16  GLY16       0.1869
     24  C         -4.3200   20.2770   -9.4990 C.2    16  GLY16       0.2309
     25  O         -3.4100   19.5840   -9.9430 O.2    16  GLY16      -0.2863
     26  N         -3.4650   19.0140   -6.8120 N.3    18  TYR18      -0.1227
     27  CA        -3.2130   17.8390   -5.9900 C.3    18  TYR18       0.1736
     28  C         -3.4670   16.5450   -6.7310 C.2    18  TYR18       0.2596
     29  O         -4.0890   15.6320   -6.2000 O.2    18  TYR18      -0.2718
     30  CB        -4.0800   17.8710   -4.7380 C.3    18  TYR18       0.0548
     31  CG        -3.7360   18.9810   -3.7720 C.ar   18  TYR18      -0.0200
     32  CD1       -4.1910   20.2740   -3.9800 C.ar   18  TYR18      -0.0009
     33  CD2       -2.9660   18.7320   -2.6470 C.ar   18  TYR18      -0.0009
     34  CE1       -3.8810   21.2920   -3.0930 C.ar   18  TYR18       0.0417
     35  CE2       -2.6550   19.7430   -1.7500 C.ar   18  TYR18       0.0417
     36  CZ        -3.1150   21.0210   -1.9790 C.ar   18  TYR18       0.1957
     37  OH        -2.8090   22.0330   -1.0910 O.3    18  TYR18      -0.2866
     38  N         -2.9950   16.4620   -7.9640 N.am   19  GLY19      -0.1942
     39  CA        -3.1420   15.2340   -8.7080 C.3    19  GLY19       0.2014
     40  C         -3.6340   15.4620  -10.1130 C.2    19  GLY19       0.2639
     41  O         -4.1250   16.5460  -10.4620 O.2    19  GLY19      -0.2714
     42  N         -3.4820   14.4280  -10.9270 N.am   20  LYS20      -0.1963
     43  CA        -4.0040   14.4380  -12.2790 C.3    20  LYS20       0.1728
     44  C         -4.5560   13.0630  -12.6090 C.2    20  LYS20       0.2616
     45  O         -4.0720   12.0470  -12.1120 O.2    20  LYS20      -0.2715
     46  CB        -2.9250   14.8560  -13.2770 C.3    20  LYS20       0.0311
     47  CG        -1.5570   14.3180  -12.9570 C.3    20  LYS20       0.0038
     48  CD        -0.4600   15.2790  -13.4010 C.3    20  LYS20       0.0206
     49  CE        -0.5130   16.5670  -12.6060 C.3    20  LYS20       0.1093
     50  NZ         0.6430   17.4370  -12.9240 N.3    20  LYS20      -0.1314
     51  N         -5.5930   13.0500  -13.4340 N.am   21  VAL21      -0.1977
     52  CA        -6.2760   11.8200  -13.7790 C.3    21  VAL21       0.1596
     53  C         -6.2960   11.6740  -15.2860 C.2    21  VAL21       0.2287
     54  O         -6.6420   12.5990  -16.0100 O.2    21  VAL21      -0.2864
     55  CB        -7.7160   11.7790  -13.2330 C.3    21  VAL21       0.0276
     56  CG1       -8.3750   10.4360  -13.5540 C.3    21  VAL21       0.0022
     57  CG2       -7.7310   12.0420  -11.7280 C.3    21  VAL21       0.0022
     58  N         -8.8400    4.3130  -15.5260 N.3    37  ALA37      -0.1245
     59  CA        -8.5060    5.6720  -15.0990 C.3    37  ALA37       0.1562
     60  C         -7.2670    5.6100  -14.2040 C.2    37  ALA37       0.2260
     61  O         -7.2010    4.8190  -13.2640 O.2    37  ALA37      -0.2867
     62  CB        -9.6890    6.3450  -14.3620 C.3    37  ALA37       0.0290
     63  N         -4.9880    7.8260  -11.6930 N.3    39  LYS39      -0.1245
     64  CA        -4.7610    9.0290  -10.9300 C.3    39  LYS39       0.1561
     65  C         -3.3290    9.0440  -10.4150 C.2    39  LYS39       0.2260
     66  O         -2.8640    8.0900   -9.7800 O.2    39  LYS39      -0.2867
     67  CB        -5.7560    9.1310   -9.7700 C.3    39  LYS39       0.0271
     68  CG        -5.5860   10.3740   -8.9410 C.3    39  LYS39       0.0035
     69  CD        -6.7410   10.5310   -7.9580 C.3    39  LYS39       0.0206
     70  CE        -6.7010   11.8780   -7.2710 C.3    39  LYS39       0.1093
     71  NZ        -7.9360   12.0690   -6.4550 N.3    39  LYS39      -0.1314
     72  N        -16.6870    3.6470   -7.0970 N.3    60  VAL60      -0.1245
     73  CA       -15.6580    3.3170   -8.0800 C.3    60  VAL60       0.1561
     74  C        -14.6730    2.2720   -7.5400 C.2    60  VAL60       0.2260
     75  O        -14.2570    2.3310   -6.3840 O.2    60  VAL60      -0.2867
     76  CB       -14.8870    4.5840   -8.5530 C.3    60  VAL60       0.0252
     77  CG1      -14.0880    5.2390   -7.4030 C.3    60  VAL60       0.0019
     78  CG2      -13.9780    4.2420   -9.7400 C.3    60  VAL60       0.0019
     79  N         -7.9050    2.9840  -11.4050 N.3    76  LEU76      -0.1231
     80  CA        -9.3120    2.7770  -11.1270 C.3    76  LEU76       0.1693
     81  C        -10.0080    2.2840  -12.3800 C.2    76  LEU76       0.2592
     82  O         -9.4880    2.4460  -13.4930 O.2    76  LEU76      -0.2718
     83  CB        -9.9450    4.0820  -10.6340 C.3    76  LEU76       0.0284
     84  CG        -9.2780    4.6160   -9.3590 C.3    76  LEU76       0.0019
     85  CD1       -8.6390    5.9850   -9.5760 C.3    76  LEU76       0.0001
     86  CD2      -10.2870    4.6650   -8.2360 C.3    76  LEU76       0.0001
     87  N        -11.1760    1.6750  -12.2070 N.am   77  GLU77      -0.1966
     88  CA       -12.0110    1.3720  -13.3570 C.3    77  GLU77       0.1733
     89  C        -12.3040    2.6660  -14.1100 C.2    77  GLU77       0.2616
     90  O        -12.5290    3.7230  -13.4990 O.2    77  GLU77      -0.2715
     91  CB       -13.3100    0.6970  -12.9390 C.3    77  GLU77       0.0429
     92  CG       -14.1510    1.5250  -12.0030 C.3    77  GLU77       0.1163
     93  CD       -15.4880    0.8730  -11.6650 C.2    77  GLU77       0.3649
     94  OE1      -15.9510    1.0510  -10.5140 O.co2  77  GLU77      -0.2457
     95  OE2      -16.0770    0.1980  -12.5460 O.co2  77  GLU77      -0.2457
     96  N        -12.2920    2.5780  -15.4360 N.am   78  TYR78      -0.1960
     97  CA       -12.6540    3.7180  -16.2770 C.3    78  TYR78       0.1771
     98  C        -14.1690    3.8770  -16.3520 C.2    78  TYR78       0.2619
     99  O        -14.8690    2.9620  -16.7550 O.2    78  TYR78      -0.2715
    100  CB       -12.0820    3.5690  -17.6990 C.3    78  TYR78       0.0574
    101  CG       -12.5430    4.6950  -18.6020 C.ar   78  TYR78      -0.0198
    102  CD1      -12.2170    6.0040  -18.3050 C.ar   78  TYR78      -0.0009
    103  CD2      -13.3200    4.4540  -19.7310 C.ar   78  TYR78      -0.0009
    104  CE1      -12.6290    7.0410  -19.0870 C.ar   78  TYR78       0.0417
    105  CE2      -13.7330    5.4970  -20.5420 C.ar   78  TYR78       0.0417
    106  CZ       -13.3880    6.7910  -20.2030 C.ar   78  TYR78       0.1957
    107  OH       -13.7720    7.8540  -20.9750 O.3    78  TYR78      -0.2866
    108  N        -14.6610    5.0510  -15.9770 N.am   79  LEU79      -0.1977
    109  CA       -16.0830    5.3580  -16.0180 C.3    79  LEU79       0.1596
    110  C        -16.3640    6.2300  -17.2200 C.2    79  LEU79       0.2287
    111  O        -15.9630    7.3870  -17.2560 O.2    79  LEU79      -0.2864
    112  CB       -16.5130    6.0680  -14.7380 C.3    79  LEU79       0.0297
    113  CG       -16.0900    5.2720  -13.5050 C.3    79  LEU79       0.0022
    114  CD1      -16.5030    6.0070  -12.2290 C.3    79  LEU79       0.0001
    115  CD2      -16.7330    3.8820  -13.5800 C.3    79  LEU79       0.0001
    116  N        -20.0180   12.8360  -15.7240 N.3    83  GLU83      -0.1245
    117  CA       -20.5090   13.2780  -14.4320 C.3    83  GLU83       0.1567
    118  C        -22.0250   13.3110  -14.4430 C.2    83  GLU83       0.2260
    119  O        -22.6470   13.6260  -15.4580 O.2    83  GLU83      -0.2867
    120  CB       -19.9640   14.6670  -14.0850 C.3    83  GLU83       0.0388
    121  CG       -18.4550   14.8090  -14.1000 C.3    83  GLU83       0.1160
    122  CD       -18.0240   16.2650  -13.9230 C.2    83  GLU83       0.3649
    123  OE1      -18.8590   17.1620  -14.1710 O.co2  83  GLU83      -0.2457
    124  OE2      -16.8650   16.5110  -13.5270 O.co2  83  GLU83      -0.2457
    125  N        -20.1430   10.0800  -10.7080 N.3   129  MET129     -0.1245
    126  CA       -19.9630    9.6530  -12.0960 C.3   129  MET129      0.1570
    127  C        -21.0360    8.6470  -12.4470 C.2   129  MET129      0.2261
    128  O        -21.7000    8.0910  -11.5630 O.2   129  MET129     -0.2867
    129  CB       -18.5870    9.0320  -12.3300 C.3   129  MET129      0.0387
    130  CG       -17.3880    9.9440  -12.0910 C.3   129  MET129      0.0595
    131  SD       -17.1560   11.2320  -13.3240 S.3   129  MET129     -0.1393
    132  CE       -16.8750   10.2760  -14.8260 C.3   129  MET129      0.0692
    133  N        -17.1140    8.8320   -6.6790 N.3   139  THR139     -0.1203
    134  CA       -15.7040    8.8640   -7.0640 C.3   139  THR139      0.1994
    135  C        -14.8150    9.8260   -6.2640 C.2   139  THR139      0.2617
    136  O        -13.5870    9.7560   -6.3550 O.2   139  THR139     -0.2717
    137  CB       -15.5860    9.2680   -8.5260 C.3   139  THR139      0.1784
    138  OG1      -16.4250   10.4080   -8.7220 O.3   139  THR139     -0.2211
    139  CG2      -16.0850    8.1470   -9.4330 C.3   139  THR139      0.0376
    140  N        -15.4170   10.7480   -5.5170 N.am  140  ASP140     -0.1973
    141  CA       -14.6320   11.8710   -4.9890 C.3   140  ASP140      0.1709
    142  C        -14.0700   11.6080   -3.5980 C.2   140  ASP140      0.2293
    143  O        -14.6510   12.0340   -2.6100 O.2   140  ASP140     -0.2864
    144  CB       -15.4810   13.1520   -4.9510 C.3   140  ASP140      0.1436
    145  CG       -14.6570   14.3880   -4.6180 C.2   140  ASP140      0.3671
    146  OD1      -13.6230   14.6020   -5.2670 O.co2 140  ASP140     -0.2456
    147  OD2      -15.0340   15.1440   -3.7040 O.co2 140  ASP140     -0.2456
    148  N         -8.6290   17.4460   -3.0050 N.3   144  CYS144     -0.1221
    149  CA        -9.2360   18.6000   -3.6450 C.3   144  CYS144      0.1808
    150  C         -8.9260   18.6440   -5.1380 C.2   144  CYS144      0.2601
    151  O         -7.7630   18.5250   -5.5510 O.2   144  CYS144     -0.2717
    152  CB        -8.7520   19.8870   -2.9810 C.3   144  CYS144      0.0970
    153  SG        -9.4950   21.3670   -3.6720 S.3   144  CYS144     -0.0800
    154  N         -9.9700   18.8430   -5.9350 N.am  145  LYS145     -0.1979
    155  CA        -9.8530   18.8230   -7.3930 C.3   145  LYS145      0.1596
    156  C         -9.6670   20.2270   -7.9630 C.2   145  LYS145      0.2287
    157  O         -9.5720   20.4050   -9.1700 O.2   145  LYS145     -0.2864
    158  CB       -11.0930   18.1750   -8.0180 C.3   145  LYS145      0.0298
    159  CG       -11.4240   16.7970   -7.4840 C.3   145  LYS145      0.0038
    160  CD       -12.6680   16.2460   -8.1490 C.3   145  LYS145      0.0206
    161  CE       -13.9150   16.9560   -7.6410 C.3   145  LYS145      0.1093
    162  NZ       -15.0820   16.7290   -8.5430 N.3   145  LYS145     -0.1314
@<TRIPOS>BOND
     1   107   106    1
     2   105   106   ar
     3   105   103   ar
     4   106   104   ar
     5   103   101   ar
     6   104   102   ar
     7     8     6    1
     8   101   102   ar
     9   101   100    1
    10     1     2    1
    11     6     7    1
    12     6     5    1
    13   100    97    1
    14    21    20    1
    15     2     5    1
    16     2     3    1
    17   111   110    2
    18   110   109    1
    19    20    19    1
    20    99    98    2
    21     3     4    2
    22     3     9   am
    23    98    97    1
    24    98   108   am
    25    97    96    1
    26   109   108    1
    27   109   112    1
    28    54    53    2
    29    19    18    1
    30     9    10    1
    31   116   117    1
    32    58    59    1
    33   119   118    2
    34    96    89   am
    35    53    52    1
    36    18    17    1
    37    59    62    1
    38    59    60    1
    39    10    11    1
    40   132   131    1
    41   112   113    1
    42   118   117    1
    43   117   120    1
    44    17    14    1
    45    11    12    2
    46    11    13   am
    47    60    61    2
    48   123   122   ar
    49    89    90    2
    50    89    88    1
    51   121   120    1
    52   121   122    1
    53    13    14    1
    54   122   124   ar
    55    52    51    1
    56    52    55    1
    57   115   113    1
    58    56    55    1
    59   113   114    1
    60    82    81    2
    61    51    44   am
    62    48    47    1
    63    48    49    1
    64    88    91    1
    65    88    87    1
    66   131   130    1
    67    14    15    1
    68    46    47    1
    69    46    43    1
    70    55    57    1
    71    91    92    1
    72    50    49    1
    73    44    43    1
    74    44    45    2
    75    16    15    2
    76    95    93   ar
    77   127   126    1
    78   127   128    2
    79    81    87   am
    80    81    80    1
    81   129   126    1
    82   129   130    1
    83    15    22   am
    84    43    42    1
    85   126   125    1
    86    92    93    1
    87    63    64    1
    88    93    94   ar
    89    79    80    1
    90    22    23    1
    91    80    83    1
    92    64    65    1
    93    64    67    1
    94    42    40   am
    95    83    84    1
    96    41    40    2
    97    65    66    2
    98    23    24    1
    99    40    39    1
   100    25    24    2
   101    67    68    1
   102    78    76    1
   103    85    84    1
   104   139   137    1
   105    84    86    1
   106   157   156    2
   107    68    69    1
   108   138   137    1
   109    39    38    1
   110    76    73    1
   111    76    77    1
   112   162   161    1
   113   137   134    1
   114   160   161    1
   115   160   159    1
   116    73    74    1
   117    73    72    1
   118   158   159    1
   119   158   155    1
   120    38    28   am
   121   156   155    1
   122    69    70    1
   123    74    75    2
   124   155   154    1
   125    70    71    1
   126   134   133    1
   127   134   135    1
   128    26    27    1
   129    28    29    2
   130    28    27    1
   131   136   135    2
   132   135   140   am
   133    27    30    1
   134   154   150   am
   135   151   150    2
   136   140   141    1
   137   146   145   ar
   138   150   149    1
   139   141   144    1
   140   141   142    1
   141   144   145    1
   142    30    31    1
   143   145   147   ar
   144    32    31   ar
   145    32    34   ar
   146    31    33   ar
   147   153   152    1
   148   149   148    1
   149   149   152    1
   150   142   143    2
   151    34    36   ar
   152    33    35   ar
   153    36    35   ar
   154    36    37    1
