@<TRIPOS>MOLECULE
tmp/3wf6A00.pdb
 142 131 0 0 0
SMALL
GASTEIGER

@<TRIPOS>ATOM
      1  N         13.1010   -8.0770   18.2690 N.3    13  LEU13      -0.1231
      2  CA        13.1760   -9.4870   17.8610 C.3    13  LEU13       0.1693
      3  C         14.3340   -9.7330   16.8990 C.2    13  LEU13       0.2593
      4  O         14.9230  -10.8010   16.8890 O.2    13  LEU13      -0.2718
      5  CB        11.8640   -9.9430   17.2170 C.3    13  LEU13       0.0284
      6  CG        10.6690   -9.9120   18.1760 C.3    13  LEU13       0.0019
      7  CD1        9.3730  -10.2070   17.4470 C.3    13  LEU13       0.0001
      8  CD2       10.8600  -10.8660   19.3560 C.3    13  LEU13       0.0001
      9  N         14.6490   -8.7330   16.0890 N.am   14  GLY14      -0.1942
     10  CA        15.7670   -8.8140   15.1750 C.3    14  GLY14       0.2014
     11  C         16.0280   -7.4560   14.5550 C.2    14  GLY14       0.2639
     12  O         15.1310   -6.6060   14.4880 O.2    14  GLY14      -0.2714
     13  N         17.2580   -7.2440   14.1060 N.am   15  LYS15      -0.1963
     14  CA        17.6120   -5.9950   13.4540 C.3    15  LYS15       0.1728
     15  C         18.6400   -6.2240   12.3600 C.2    15  LYS15       0.2616
     16  O         19.7030   -6.7970   12.5920 O.2    15  LYS15      -0.2715
     17  CB        18.1370   -4.9880   14.4730 C.3    15  LYS15       0.0311
     18  CG        18.4560   -3.6280   13.8790 C.3    15  LYS15       0.0038
     19  CD        19.0930   -2.7120   14.9150 C.3    15  LYS15       0.0206
     20  CE        19.7740   -1.5340   14.2480 C.3    15  LYS15       0.1093
     21  NZ        20.7560   -0.8710   15.1520 N.3    15  LYS15      -0.1314
     22  N         18.3080   -5.7730   11.1600 N.am   16  GLY16      -0.1955
     23  CA        19.1800   -5.9260   10.0150 C.3    16  GLY16       0.1869
     24  C         19.5780   -4.5620    9.5040 C.2    16  GLY16       0.2309
     25  O         19.3020   -3.5460   10.1440 O.2    16  GLY16      -0.2863
     26  N         15.9570   -3.3040    7.8850 N.3    19  GLY19      -0.1225
     27  CA        14.7820   -3.2710    8.7280 C.3    19  GLY19       0.1811
     28  C         15.0670   -3.5890   10.1760 C.2    19  GLY19       0.2280
     29  O         16.2170   -3.7420   10.5800 O.2    19  GLY19      -0.2866
     30  N         12.7810   -5.6340   13.6420 N.3    21  VAL21      -0.1245
     31  CA        11.5390   -6.2820   14.0710 C.3    21  VAL21       0.1561
     32  C         11.3420   -6.2230   15.5770 C.2    21  VAL21       0.2260
     33  O         12.2510   -6.5420   16.3520 O.2    21  VAL21      -0.2867
     34  CB        11.4820   -7.7730   13.6250 C.3    21  VAL21       0.0252
     35  CG1       10.1810   -8.4280   14.0930 C.3    21  VAL21       0.0019
     36  CG2       11.6010   -7.8850   12.1310 C.3    21  VAL21       0.0019
     37  N          3.9860   -8.9640   15.8050 N.3    37  ALA37      -0.1245
     38  CA         5.3430   -8.6640   15.3750 C.3    37  ALA37       0.1562
     39  C          5.2560   -7.4420   14.4850 C.2    37  ALA37       0.2260
     40  O          4.3990   -7.3770   13.6050 O.2    37  ALA37      -0.2867
     41  CB         5.9740   -9.8580   14.6180 C.3    37  ALA37       0.0290
     42  N          7.4490   -5.1740   11.8580 N.3    39  LYS39      -0.1245
     43  CA         8.6530   -5.0170   11.0810 C.3    39  LYS39       0.1561
     44  C          8.6760   -3.6130   10.5010 C.2    39  LYS39       0.2260
     45  O          7.6980   -3.1380    9.9100 O.2    39  LYS39      -0.2867
     46  CB         8.7320   -6.0730    9.9860 C.3    39  LYS39       0.0271
     47  CG         9.9950   -6.0150    9.1480 C.3    39  LYS39       0.0035
     48  CD         9.9940   -7.1170    8.1010 C.3    39  LYS39       0.0206
     49  CE        11.3740   -7.3490    7.5340 C.3    39  LYS39       0.1093
     50  NZ        11.4190   -8.5670    6.6760 N.3    39  LYS39      -0.1314
     51  N          3.3700  -17.1170    7.4720 N.3    60  VAL60      -0.1245
     52  CA         3.0590  -16.0880    8.4630 C.3    60  VAL60       0.1561
     53  C          2.0040  -15.0920    7.9520 C.2    60  VAL60       0.2260
     54  O          2.0080  -14.7180    6.7830 O.2    60  VAL60      -0.2867
     55  CB         4.3340  -15.3200    8.8900 C.3    60  VAL60       0.0252
     56  CG1        4.8650  -14.4410    7.7330 C.3    60  VAL60       0.0019
     57  CG2        4.0510  -14.4700   10.1210 C.3    60  VAL60       0.0019
     58  N          2.7010   -8.2160   11.6460 N.3    76  LEU76      -0.1231
     59  CA         2.5600   -9.6290   11.3870 C.3    76  LEU76       0.1693
     60  C          2.0900  -10.3550   12.6400 C.2    76  LEU76       0.2592
     61  O          2.1790   -9.8200   13.7410 O.2    76  LEU76      -0.2718
     62  CB         3.8980  -10.1890   10.9260 C.3    76  LEU76       0.0284
     63  CG         4.3710   -9.5390    9.6260 C.3    76  LEU76       0.0019
     64  CD1        5.8450   -9.1610    9.7220 C.3    76  LEU76       0.0001
     65  CD2        4.1050  -10.5240    8.5050 C.3    76  LEU76       0.0001
     66  N          1.6000  -11.5730   12.4780 N.am   77  GLU77      -0.1966
     67  CA         1.3100  -12.3870   13.6350 C.3    77  GLU77       0.1733
     68  C          2.6180  -12.6640   14.3690 C.2    77  GLU77       0.2616
     69  O          3.6620  -12.9040   13.7510 O.2    77  GLU77      -0.2715
     70  CB         0.6090  -13.6910   13.2380 C.3    77  GLU77       0.0429
     71  CG         1.4930  -14.7550   12.6390 C.3    77  GLU77       0.1163
     72  CD         0.6950  -15.9510   12.1200 C.2    77  GLU77       0.3649
     73  OE1        0.8130  -16.2750   10.9150 O.co2  77  GLU77      -0.2457
     74  OE2       -0.0530  -16.5580   12.9180 O.co2  77  GLU77      -0.2457
     75  N          2.5600  -12.5930   15.6940 N.am   78  TYR78      -0.1960
     76  CA         3.7130  -12.8740   16.5210 C.3    78  TYR78       0.1771
     77  C          3.9000  -14.3810   16.6250 C.2    78  TYR78       0.2619
     78  O          2.9500  -15.1130   16.8940 O.2    78  TYR78      -0.2715
     79  CB         3.5440  -12.2440   17.9100 C.3    78  TYR78       0.0574
     80  CG         4.6030  -12.6800   18.8740 C.ar   78  TYR78      -0.0198
     81  CD1        5.9450  -12.4210   18.6200 C.ar   78  TYR78      -0.0009
     82  CD2        4.2700  -13.3690   20.0420 C.ar   78  TYR78      -0.0009
     83  CE1        6.9310  -12.8330   19.5050 C.ar   78  TYR78       0.0417
     84  CE2        5.2430  -13.7730   20.9280 C.ar   78  TYR78       0.0417
     85  CZ         6.5700  -13.5060   20.6530 C.ar   78  TYR78       0.1957
     86  OH         7.5350  -13.9010   21.5320 O.3    78  TYR78      -0.2866
     87  N          5.1290  -14.8350   16.3970 N.am   79  LEU79      -0.1977
     88  CA         5.4620  -16.2550   16.4150 C.3    79  LEU79       0.1596
     89  C          6.3950  -16.5740   17.5770 C.2    79  LEU79       0.2287
     90  O          7.5910  -16.3240   17.4890 O.2    79  LEU79      -0.2864
     91  CB         6.1150  -16.6490   15.0890 C.3    79  LEU79       0.0297
     92  CG         5.2590  -16.2990   13.8790 C.3    79  LEU79       0.0022
     93  CD1        5.9960  -16.6150   12.5980 C.3    79  LEU79       0.0001
     94  CD2        3.9720  -17.0920   13.9570 C.3    79  LEU79       0.0001
     95  N         13.0080  -19.9590   15.9720 N.3    83  GLU83      -0.1245
     96  CA        13.4610  -20.4590   14.6870 C.3    83  GLU83       0.1567
     97  C         13.5080  -21.9690   14.7170 C.2    83  GLU83       0.2260
     98  O         13.7620  -22.5870   15.7740 O.2    83  GLU83      -0.2867
     99  CB        14.8480  -19.9100   14.3360 C.3    83  GLU83       0.0388
    100  CG        14.9260  -18.4240   14.1730 C.3    83  GLU83       0.1160
    101  CD        16.3640  -17.9260   14.1690 C.2    83  GLU83       0.3649
    102  OE1       17.2670  -18.7000   14.5470 O.co2  83  GLU83      -0.2457
    103  OE2       16.5920  -16.7660   13.7830 O.co2  83  GLU83      -0.2457
    104  N         17.2100  -20.9180    9.9970 N.3   126  GLU126     -0.1245
    105  CA        16.8800  -19.6830   10.7120 C.3   126  GLU126      0.1567
    106  C         15.8030  -18.8700    9.9760 C.2   126  GLU126      0.2260
    107  O         15.3090  -17.8720   10.5000 O.2   126  GLU126     -0.2867
    108  CB        18.1340  -18.8300   10.9460 C.3   126  GLU126      0.0388
    109  CG        18.8320  -18.3560    9.6750 C.3   126  GLU126      0.1160
    110  CD        20.3480  -18.4400    9.7910 C.2   126  GLU126      0.3649
    111  OE1       21.0560  -17.7190    9.0560 O.co2 126  GLU126     -0.2457
    112  OE2       20.8270  -19.2450   10.6200 O.co2 126  GLU126     -0.2457
    113  N         10.2380  -20.2340   10.9290 N.3   129  MET129     -0.1245
    114  CA         9.8240  -20.0620   12.2950 C.3   129  MET129      0.1570
    115  C          8.7680  -21.0670   12.6910 C.2   129  MET129      0.2261
    116  O          8.1860  -21.7790   11.8470 O.2   129  MET129     -0.2867
    117  CB         9.3420  -18.6430   12.5140 C.3   129  MET129      0.0387
    118  CG        10.4770  -17.6740   12.2620 C.3   129  MET129      0.0595
    119  SD        10.4480  -16.2580   13.3270 S.3   129  MET129     -0.1393
    120  CE        10.2870  -17.0090   14.9500 C.3   129  MET129      0.0692
    121  N          8.4880  -17.2060    6.8770 N.3   139  THR139     -0.1218
    122  CA         8.4440  -15.8040    7.3020 C.3   139  THR139      0.1862
    123  C          9.3190  -14.8430    6.5040 C.2   139  THR139      0.2287
    124  O          9.1710  -13.6330    6.6390 O.2   139  THR139     -0.2866
    125  CB         8.8870  -15.6640    8.7810 C.3   139  THR139      0.1770
    126  OG1       10.1670  -16.2840    8.9330 O.3   139  THR139     -0.2211
    127  CG2        7.8900  -16.3510    9.7230 C.3   139  THR139      0.0375
    128  N         16.9130   -8.5070    2.9640 N.3   144  CYS144     -0.1221
    129  CA        18.1080   -9.1020    3.5330 C.3   144  CYS144      0.1808
    130  C         18.1920   -8.8200    5.0270 C.2   144  CYS144      0.2601
    131  O         18.1240   -7.6690    5.4570 O.2   144  CYS144     -0.2717
    132  CB        19.3530   -8.5720    2.8280 C.3   144  CYS144      0.0970
    133  SG        20.8990   -8.9790    3.6510 S.3   144  CYS144     -0.0800
    134  N         18.3610   -9.8760    5.8120 N.am  145  LYS145     -0.1979
    135  CA        18.3870   -9.7470    7.2640 C.3   145  LYS145      0.1596
    136  C         19.7950   -9.5400    7.8270 C.2   145  LYS145      0.2287
    137  O         19.9950   -9.6030    9.0400 O.2   145  LYS145     -0.2864
    138  CB        17.7500  -10.9860    7.8960 C.3   145  LYS145      0.0298
    139  CG        16.2980  -11.1760    7.5120 C.3   145  LYS145      0.0038
    140  CD        15.8610  -12.6330    7.6500 C.3   145  LYS145      0.0206
    141  CE        15.9850  -13.1210    9.0830 C.3   145  LYS145      0.1093
    142  NZ        15.6330  -14.5650    9.2020 N.3   145  LYS145     -0.1314
@<TRIPOS>BOND
     1   132   129    1
     2   132   133    1
     3   128   129    1
     4   129   130    1
     5   130   131    2
     6   130   134   am
     7   134   135    1
     8   123   124    2
     9   123   122    1
    10    50    49    1
    11    54    53    2
    12   121   122    1
    13   135   136    1
    14   135   138    1
    15   122   125    1
    16    51    52    1
    17   139   140    1
    18   139   138    1
    19    49    48    1
    20   140   141    1
    21    56    55    1
    22   136   137    2
    23    26    27    1
    24    53    52    1
    25    48    47    1
    26    52    55    1
    27    65    63    1
    28    27    28    1
    29   125   126    1
    30   125   127    1
    31    55    57    1
    32   111   110   ar
    33   141   142    1
    34    47    46    1
    35    24    23    1
    36    24    25    2
    37    63    64    1
    38    63    62    1
    39   109   110    1
    40   109   108    1
    41   110   112   ar
    42    45    44    2
    43   106   107    2
    44   106   105    1
    45    46    43    1
    46   104   105    1
    47    23    22    1
    48    28    29    2
    49    44    43    1
    50   105   108    1
    51    73    72   ar
    52    62    59    1
    53   113   114    1
    54    43    42    1
    55    22    15   am
    56    59    58    1
    57    59    60    1
    58   116   115    2
    59    72    71    1
    60    72    74   ar
    61    36    34    1
    62   118   117    1
    63   118   119    1
    64   114   117    1
    65   114   115    1
    66    15    16    2
    67    15    14    1
    68    66    60   am
    69    66    67    1
    70    93    92    1
    71    71    70    1
    72    60    61    2
    73    70    67    1
    74   119   120    1
    75    14    13    1
    76    14    17    1
    77    40    39    2
    78    34    31    1
    79    34    35    1
    80    67    68    1
    81    30    31    1
    82    69    68    2
    83   103   101   ar
    84    92    94    1
    85    92    91    1
    86    18    17    1
    87    18    19    1
    88    31    32    1
    89    13    11   am
    90   101   100    1
    91   101   102   ar
    92   100    99    1
    93    20    19    1
    94    20    21    1
    95    99    96    1
    96    68    75   am
    97    39    38    1
    98    12    11    2
    99    11    10    1
   100    41    38    1
   101    96    97    1
   102    96    95    1
   103    97    98    2
   104    91    88    1
   105    10     9    1
   106    38    37    1
   107    32    33    2
   108    75    76    1
   109     9     3   am
   110    87    88    1
   111    87    77   am
   112    88    89    1
   113    76    77    1
   114    76    79    1
   115    77    78    2
   116     4     3    2
   117     3     2    1
   118     5     2    1
   119     5     6    1
   120     7     6    1
   121    90    89    2
   122     2     1    1
   123    79    80    1
   124     6     8    1
   125    81    80   ar
   126    81    83   ar
   127    80    82   ar
   128    83    85   ar
   129    82    84   ar
   130    85    84   ar
   131    85    86    1
