@<TRIPOS>MOLECULE
tmp/3wf7A00.pdb
 200 190 0 0 0
SMALL
GASTEIGER

@<TRIPOS>ATOM
      1  N         13.0100   -7.6880   17.9460 N.3    15  LEU15      -0.1231
      2  CA        13.2120   -9.0450   17.4510 C.3    15  LEU15       0.1693
      3  C         14.2850   -9.1080   16.3750 C.2    15  LEU15       0.2593
      4  O         14.8440  -10.1680   16.1060 O.2    15  LEU15      -0.2718
      5  CB        11.9030   -9.6120   16.8990 C.3    15  LEU15       0.0284
      6  CG        10.7480   -9.6720   17.8970 C.3    15  LEU15       0.0019
      7  CD1        9.4700  -10.1250   17.2120 C.3    15  LEU15       0.0001
      8  CD2       11.0990  -10.5980   19.0580 C.3    15  LEU15       0.0001
      9  N         14.5690   -7.9730   15.7540 N.am   16  GLY16      -0.1942
     10  CA        15.5740   -7.9350   14.7120 C.3    16  GLY16       0.2014
     11  C         15.8090   -6.5290   14.2290 C.2    16  GLY16       0.2639
     12  O         14.9650   -5.6520   14.3930 O.2    16  GLY16      -0.2714
     13  N         16.9670   -6.3240   13.6190 N.am   17  LYS17      -0.1963
     14  CA        17.3790   -5.0130   13.1450 C.3    17  LYS17       0.1728
     15  C         18.3540   -5.1960   11.9950 C.2    17  LYS17       0.2617
     16  O         19.2140   -6.0720   12.0480 O.2    17  LYS17      -0.2715
     17  CB        18.0170   -4.2080   14.2790 C.3    17  LYS17       0.0311
     18  CG        18.7800   -2.9700   13.8620 C.3    17  LYS17       0.0038
     19  CD        17.9600   -1.7010   14.0140 C.3    17  LYS17       0.0206
     20  CE        18.8030   -0.4730   13.6770 C.3    17  LYS17       0.1093
     21  NZ        17.9920    0.7720   13.6140 N.3    17  LYS17      -0.1314
     22  N         18.2110   -4.3720   10.9600 N.am   18  GLY18      -0.1940
     23  CA        19.0940   -4.4200    9.8040 C.3    18  GLY18       0.2014
     24  C         19.0530   -3.1270    9.0130 C.2    18  GLY18       0.2639
     25  O         18.4900   -2.1280    9.4670 O.2    18  GLY18      -0.2714
     26  N         19.6500   -3.1420    7.8240 N.am   19  GLY19      -0.1939
     27  CA        19.6840   -1.9670    6.9720 C.3    19  GLY19       0.2014
     28  C         18.3200   -1.4950    6.4970 C.2    19  GLY19       0.2639
     29  O         18.0520   -0.2960    6.4700 O.2    19  GLY19      -0.2714
     30  N         17.4590   -2.4360    6.1170 N.am   20  TYR20      -0.1959
     31  CA        16.1160   -2.1090    5.6360 C.3    20  TYR20       0.1771
     32  C         15.1960   -1.5940    6.7470 C.2    20  TYR20       0.2620
     33  O         14.2430   -0.8560    6.4970 O.2    20  TYR20      -0.2715
     34  CB        15.4670   -3.3340    4.9890 C.3    20  TYR20       0.0574
     35  CG        15.8230   -3.5750    3.5380 C.ar   20  TYR20      -0.0198
     36  CD1       15.9020   -2.5280    2.6280 C.ar   20  TYR20      -0.0009
     37  CD2       16.0630   -4.8620    3.0760 C.ar   20  TYR20      -0.0009
     38  CE1       16.2240   -2.7650    1.2930 C.ar   20  TYR20       0.0417
     39  CE2       16.3850   -5.1070    1.7570 C.ar   20  TYR20       0.0417
     40  CZ        16.4620   -4.0600    0.8670 C.ar   20  TYR20       0.1957
     41  OH        16.7810   -4.3210   -0.4490 O.3    20  TYR20      -0.2866
     42  N         15.4610   -1.9980    7.9780 N.am   21  GLY21      -0.1940
     43  CA        14.5580   -1.6400    9.0460 C.3    21  GLY21       0.2014
     44  C         14.7010   -2.4830   10.2890 C.2    21  GLY21       0.2639
     45  O         15.7970   -2.9120   10.6400 O.2    21  GLY21      -0.2714
     46  N         13.5760   -2.7310   10.9430 N.am   22  LYS22      -0.1963
     47  CA        13.5910   -3.2570   12.3020 C.3    22  LYS22       0.1728
     48  C         12.3180   -4.0410   12.5880 C.2    22  LYS22       0.2616
     49  O         11.2550   -3.7060   12.0690 O.2    22  LYS22      -0.2715
     50  CB        13.7520   -2.0910   13.2760 C.3    22  LYS22       0.0311
     51  CG        14.0530   -2.4440   14.7210 C.3    22  LYS22       0.0038
     52  CD        14.5770   -1.1760   15.4240 C.3    22  LYS22       0.0206
     53  CE        14.8770   -1.4090   16.8940 C.3    22  LYS22       0.1093
     54  NZ        15.3380   -0.1440   17.5500 N.3    22  LYS22      -0.1314
     55  N         12.4170   -5.0770   13.4160 N.am   23  VAL23      -0.1977
     56  CA        11.2450   -5.8690   13.7810 C.3    23  VAL23       0.1596
     57  C         11.0170   -5.8460   15.2840 C.2    23  VAL23       0.2287
     58  O         11.9530   -6.0800   16.0510 O.2    23  VAL23      -0.2864
     59  CB        11.3800   -7.3260   13.3280 C.3    23  VAL23       0.0276
     60  CG1       10.0810   -8.0870   13.6000 C.3    23  VAL23       0.0022
     61  CG2       11.7130   -7.3780   11.8550 C.3    23  VAL23       0.0022
     62  N          3.9360   -9.4560   15.6650 N.3    39  ALA39      -0.1245
     63  CA         5.2610   -9.0270   15.2270 C.3    39  ALA39       0.1562
     64  C          5.0720   -7.8710   14.2520 C.2    39  ALA39       0.2260
     65  O          4.2340   -7.9410   13.3500 O.2    39  ALA39      -0.2867
     66  CB         6.0320  -10.1740   14.5730 C.3    39  ALA39       0.0290
     67  N          7.0670   -5.4050   11.6020 N.3    41  LYS41      -0.1245
     68  CA         8.2380   -4.9840   10.8350 C.3    41  LYS41       0.1561
     69  C          8.0770   -3.5530   10.3550 C.2    41  LYS41       0.2260
     70  O          7.0280   -3.1840    9.8310 O.2    41  LYS41      -0.2867
     71  CB         8.4640   -5.8950    9.6260 C.3    41  LYS41       0.0271
     72  CG         8.4860   -7.3590    9.9690 C.3    41  LYS41       0.0035
     73  CD         9.0930   -8.1830    8.8120 C.3    41  LYS41       0.0206
     74  CE         9.0940   -9.6670    9.1870 C.3    41  LYS41       0.1093
     75  NZ         9.8100  -10.5250    8.2170 N.3    41  LYS41      -0.1314
     76  N          9.8710   -0.9880    7.8430 N.3    43  LEU43      -0.1245
     77  CA        10.8460   -0.8410    6.7660 C.3    43  LEU43       0.1561
     78  C         10.9700    0.5950    6.2920 C.2    43  LEU43       0.2260
     79  O          9.9730    1.2820    6.0950 O.2    43  LEU43      -0.2867
     80  CB        10.4690   -1.7240    5.5700 C.3    43  LEU43       0.0270
     81  CG        10.0440   -3.1550    5.8970 C.3    43  LEU43       0.0019
     82  CD1        9.7290   -3.9310    4.6250 C.3    43  LEU43       0.0001
     83  CD2       11.1170   -3.8490    6.6880 C.3    43  LEU43       0.0001
     84  N          3.4290  -18.1980    7.6950 N.3    74  VAL74      -0.1245
     85  CA         3.1640  -17.0520    8.5770 C.3    74  VAL74       0.1561
     86  C          1.9490  -16.2480    8.0950 C.2    74  VAL74       0.2260
     87  O          1.7100  -16.1080    6.8910 O.2    74  VAL74      -0.2867
     88  CB         4.3950  -16.1210    8.6790 C.3    74  VAL74       0.0252
     89  CG1        4.5970  -15.3280    7.3750 C.3    74  VAL74       0.0019
     90  CG2        4.2680  -15.1850    9.8820 C.3    74  VAL74       0.0019
     91  N          2.3560   -8.9370   11.5140 N.3    90  LEU90      -0.1231
     92  CA         2.3030  -10.3910   11.3480 C.3    90  LEU90       0.1693
     93  C          1.9160  -11.0540   12.6600 C.2    90  LEU90       0.2592
     94  O          2.0390  -10.4430   13.7150 O.2    90  LEU90      -0.2718
     95  CB         3.6530  -10.9410   10.8840 C.3    90  LEU90       0.0284
     96  CG         4.1430  -10.3170    9.5710 C.3    90  LEU90       0.0019
     97  CD1        5.2630   -9.3380    9.8700 C.3    90  LEU90       0.0001
     98  CD2        4.5700  -11.3840    8.5650 C.3    90  LEU90       0.0001
     99  N          1.4630  -12.3020   12.6000 N.am   91  GLU91      -0.1966
    100  CA         1.2870  -13.0660   13.8290 C.3    91  GLU91       0.1733
    101  C          2.6320  -13.1660   14.5360 C.2    91  GLU91       0.2616
    102  O          3.6870  -13.2680   13.9000 O.2    91  GLU91      -0.2715
    103  CB         0.7240  -14.4680   13.5470 C.3    91  GLU91       0.0429
    104  CG         1.7110  -15.3970   12.8920 C.3    91  GLU91       0.1163
    105  CD         1.1180  -16.7530   12.5700 C.2    91  GLU91       0.3649
    106  OE1        0.5340  -17.3800   13.4800 O.co2  91  GLU91      -0.2457
    107  OE2        1.2290  -17.1770   11.4010 O.co2  91  GLU91      -0.2457
    108  N          2.5880  -13.1220   15.8630 N.am   92  TYR92      -0.1960
    109  CA         3.7720  -13.3030   16.6730 C.3    92  TYR92       0.1771
    110  C          4.0490  -14.7940   16.8440 C.2    92  TYR92       0.2619
    111  O          3.1390  -15.5670   17.1280 O.2    92  TYR92      -0.2715
    112  CB         3.6070  -12.6300   18.0480 C.3    92  TYR92       0.0574
    113  CG         4.7810  -12.9130   18.9390 C.ar   92  TYR92      -0.0198
    114  CD1        6.0370  -12.4000   18.6400 C.ar   92  TYR92      -0.0009
    115  CD2        4.6460  -13.7220   20.0590 C.ar   92  TYR92      -0.0009
    116  CE1        7.1150  -12.6750   19.4300 C.ar   92  TYR92       0.0417
    117  CE2        5.7210  -14.0000   20.8550 C.ar   92  TYR92       0.0417
    118  CZ         6.9500  -13.4830   20.5380 C.ar   92  TYR92       0.1957
    119  OH         8.0290  -13.7640   21.3390 O.3    92  TYR92      -0.2866
    120  N          5.3040  -15.1810   16.6590 N.am   93  LEU93      -0.1977
    121  CA         5.7220  -16.5790   16.7460 C.3    93  LEU93       0.1596
    122  C          6.7400  -16.7340   17.8600 C.2    93  LEU93       0.2287
    123  O          7.8370  -16.1930   17.7760 O.2    93  LEU93      -0.2864
    124  CB         6.3290  -17.0470   15.4220 C.3    93  LEU93       0.0297
    125  CG         5.3390  -16.9890   14.2540 C.3    93  LEU93       0.0022
    126  CD1        6.0470  -17.2460   12.9250 C.3    93  LEU93       0.0001
    127  CD2        4.2510  -18.0100   14.5020 C.3    93  LEU93       0.0001
    128  N         13.5890  -20.1150   15.9930 N.3    97  GLU97      -0.1245
    129  CA        13.9680  -20.6270   14.6890 C.3    97  GLU97       0.1567
    130  C         14.2450  -22.1240   14.7330 C.2    97  GLU97       0.2260
    131  O         14.6920  -22.6650   15.7470 O.2    97  GLU97      -0.2867
    132  CB        15.2170  -19.8860   14.1930 C.3    97  GLU97       0.0388
    133  CG        15.0360  -18.3900   14.0550 C.3    97  GLU97       0.1160
    134  CD        16.3590  -17.6630   13.8600 C.2    97  GLU97       0.3649
    135  OE1       17.4200  -18.3010   14.0120 O.co2  97  GLU97      -0.2457
    136  OE2       16.3370  -16.4510   13.5570 O.co2  97  GLU97      -0.2457
    137  N         17.2640  -20.9920    9.6800 N.3   140  GLU140     -0.1245
    138  CA        16.8750  -19.7070   10.2500 C.3   140  GLU140      0.1567
    139  C         15.6100  -19.1540    9.5830 C.2   140  GLU140      0.2260
    140  O         14.9600  -18.2710   10.1240 O.2   140  GLU140     -0.2867
    141  CB        18.0060  -18.6760   10.1240 C.3   140  GLU140      0.0388
    142  CG        19.3720  -19.1510   10.5850 C.3   140  GLU140      0.1160
    143  CD        20.2690  -19.5580    9.4260 C.2   140  GLU140      0.3649
    144  OE1       20.0590  -20.6570    8.8550 O.co2 140  GLU140     -0.2457
    145  OE2       21.1810  -18.7700    9.0870 O.co2 140  GLU140     -0.2457
    146  N         10.4080  -20.8120   11.2730 N.3   143  MET143     -0.1245
    147  CA        10.1460  -20.5860   12.6870 C.3   143  MET143      0.1570
    148  C          9.1770  -21.6210   13.2080 C.2   143  MET143      0.2261
    149  O          8.5880  -22.3640   12.4330 O.2   143  MET143     -0.2867
    150  CB         9.6100  -19.1870   12.9150 C.3   143  MET143      0.0387
    151  CG        10.6690  -18.1610   12.6660 C.3   143  MET143      0.0595
    152  SD        10.2580  -16.6250   13.4120 S.3   143  MET143     -0.1393
    153  CE        10.4240  -16.9990   15.1770 C.3   143  MET143      0.0692
    154  N          8.5280  -18.1190    7.1800 N.3   153  THR153     -0.1203
    155  CA         8.4330  -16.7080    7.5420 C.3   153  THR153      0.1994
    156  C          9.2150  -15.7220    6.6930 C.2   153  THR153      0.2617
    157  O          9.0480  -14.5140    6.8570 O.2   153  THR153     -0.2717
    158  CB         8.9310  -16.4860    8.9760 C.3   153  THR153      0.1784
    159  OG1       10.1690  -17.1850    9.1340 O.3   153  THR153     -0.2211
    160  CG2        7.9340  -17.0170    9.9790 C.3   153  THR153      0.0376
    161  N         10.0860  -16.2150    5.8230 N.am  154  ASP154     -0.1973
    162  CA        10.9890  -15.3390    5.0790 C.3   154  ASP154      0.1709
    163  C         10.4930  -15.0740    3.6610 C.2   154  ASP154      0.2293
    164  O         10.7080  -15.8910    2.7790 O.2   154  ASP154     -0.2864
    165  CB        12.3900  -15.9460    5.0030 C.3   154  ASP154      0.1436
    166  CG        13.3970  -14.9930    4.3870 C.2   154  ASP154      0.3671
    167  OD1       13.4340  -13.8190    4.8080 O.co2 154  ASP154     -0.2456
    168  OD2       14.1430  -15.4140    3.4850 O.co2 154  ASP154     -0.2456
    169  N         11.5830   -8.8370    0.8210 N.3   157  LEU157     -0.1245
    170  CA        12.8910   -8.1900    0.8180 C.3   157  LEU157      0.1561
    171  C         13.9300   -8.9810    1.6050 C.2   157  LEU157      0.2260
    172  O         13.5880   -9.7700    2.4860 O.2   157  LEU157     -0.2867
    173  CB        12.7830   -6.7740    1.3810 C.3   157  LEU157      0.0270
    174  CG        11.8750   -5.7960    0.6330 C.3   157  LEU157      0.0019
    175  CD1       11.6440   -4.5660    1.4750 C.3   157  LEU157      0.0001
    176  CD2       12.4750   -5.4140   -0.7210 C.3   157  LEU157      0.0001
    177  N         16.3700   -9.8680    4.3440 N.3   159  LYS159     -0.1231
    178  CA        16.3830   -9.5140    5.7660 C.3   159  LYS159      0.1693
    179  C         17.7700   -9.5710    6.4050 C.2   159  LYS159      0.2592
    180  O         17.9110   -9.3080    7.6000 O.2   159  LYS159     -0.2718
    181  CB        15.4400  -10.4290    6.5530 C.3   159  LYS159      0.0285
    182  CG        14.0250  -10.5130    6.0060 C.3   159  LYS159      0.0035
    183  CD        13.3790   -9.1410    5.9060 C.3   159  LYS159      0.0206
    184  CE        11.8970   -9.2600    5.5900 C.3   159  LYS159      0.1093
    185  NZ        11.6500  -10.0860    4.3700 N.3   159  LYS159     -0.1314
    186  N         18.7850   -9.9170    5.6190 N.am  160  GLU160     -0.1966
    187  CA        20.1500  -10.0220    6.1360 C.3   160  GLU160      0.1733
    188  C         20.6580   -8.6810    6.6570 C.2   160  GLU160      0.2617
    189  O         20.2090   -7.6240    6.2140 O.2   160  GLU160     -0.2715
    190  CB        21.0980  -10.5480    5.0550 C.3   160  GLU160      0.0429
    191  CG        20.6880  -11.8840    4.4610 C.3   160  GLU160      0.1163
    192  CD        20.6300  -12.9920    5.4940 C.2   160  GLU160      0.3649
    193  OE1       21.5290  -13.0510    6.3580 O.co2 160  GLU160     -0.2457
    194  OE2       19.6820  -13.8030    5.4410 O.co2 160  GLU160     -0.2457
    195  N         21.5960   -8.7320    7.5990 N.am  161  SER161     -0.1950
    196  CA        22.1810   -7.5220    8.1710 C.3   161  SER161      0.1924
    197  C         23.4420   -7.1200    7.4110 C.2   161  SER161      0.2314
    198  O         23.7170   -5.9340    7.2220 O.2   161  SER161     -0.2863
    199  CB        22.4990   -7.7270    9.6540 C.3   161  SER161      0.2116
    200  OG        21.3390   -8.0980   10.3780 O.3   161  SER161     -0.2180
@<TRIPOS>BOND
     1   176   174    1
     2    41    40    1
     3   174   173    1
     4   174   175    1
     5   170   169    1
     6   170   173    1
     7   170   171    1
     8    40    38   ar
     9    40    39   ar
    10    38    36   ar
    11   171   172    2
    12    39    37   ar
    13    36    35   ar
    14   164   163    2
    15    37    35   ar
    16   168   166   ar
    17    35    34    1
    18   163   162    1
    19   177   178    1
    20   185   184    1
    21   166   167   ar
    22   166   165    1
    23   191   190    1
    24   191   192    1
    25    82    81    1
    26    34    31    1
    27   165   162    1
    28   190   187    1
    29   162   161    1
    30   194   192   ar
    31   192   193   ar
    32    80    81    1
    33    80    77    1
    34   184   183    1
    35   186   187    1
    36   186   179   am
    37    31    30    1
    38    31    32    1
    39   178   179    1
    40   178   181    1
    41   161   156   am
    42    81    83    1
    43   183   182    1
    44   182   181    1
    45    79    78    2
    46    30    28   am
    47   187   188    1
    48   189   188    2
    49    78    77    1
    50   179   180    2
    51    29    28    2
    52    33    32    2
    53    28    27    1
    54   188   195   am
    55   156   157    2
    56   156   155    1
    57    32    42   am
    58    77    76    1
    59    87    86    2
    60    27    26    1
    61   154   155    1
    62   198   197    2
    63    89    88    1
    64   197   196    1
    65   155   158    1
    66   195   196    1
    67    84    85    1
    68    26    24   am
    69    42    43    1
    70    86    85    1
    71   196   199    1
    72    75    74    1
    73    98    96    1
    74    85    88    1
    75    88    90    1
    76    73    74    1
    77    73    72    1
    78   144   143   ar
    79   158   159    1
    80   158   160    1
    81    24    25    2
    82    24    23    1
    83    43    44    1
    84   145   143   ar
    85   143   142    1
    86    96    97    1
    87    96    95    1
    88   139   140    2
    89   139   138    1
    90    71    72    1
    91    71    68    1
    92   199   200    1
    93   137   138    1
    94    23    22    1
    95    70    69    2
    96   141   138    1
    97   141   142    1
    98    44    45    2
    99    44    46   am
   100    69    68    1
   101    68    67    1
   102    95    92    1
   103    46    47    1
   104    22    15   am
   105   146   147    1
   106    92    91    1
   107    92    93    1
   108   107   105   ar
   109    61    59    1
   110    15    16    2
   111    15    14    1
   112    49    48    2
   113    47    48    1
   114    47    50    1
   115   149   148    2
   116   105   104    1
   117   105   106   ar
   118    48    55   am
   119    99    93   am
   120    99   100    1
   121    93    94    2
   122   151   150    1
   123   151   152    1
   124   147   150    1
   125   147   148    1
   126   104   103    1
   127   126   125    1
   128    14    13    1
   129    14    17    1
   130    50    51    1
   131    59    60    1
   132    59    56    1
   133    65    64    2
   134   152   153    1
   135    55    56    1
   136   103   100    1
   137   136   134   ar
   138    21    20    1
   139    13    11   am
   140    20    19    1
   141    56    57    1
   142   100   101    1
   143   134   135   ar
   144   134   133    1
   145    18    19    1
   146    18    17    1
   147   102   101    2
   148   133   132    1
   149   132   129    1
   150    11    12    2
   151    11    10    1
   152    64    63    1
   153   125   127    1
   154   125   124    1
   155   101   108   am
   156    66    63    1
   157   129   130    1
   158   129   128    1
   159    10     9    1
   160    51    52    1
   161   130   131    2
   162    63    62    1
   163    57    58    2
   164   124   121    1
   165    52    53    1
   166     9     3   am
   167   108   109    1
   168     4     3    2
   169     3     2    1
   170   120   121    1
   171   120   110   am
   172   109   110    1
   173   109   112    1
   174   121   122    1
   175   110   111    2
   176    53    54    1
   177     5     2    1
   178     5     6    1
   179     7     6    1
   180     2     1    1
   181   123   122    2
   182     6     8    1
   183   112   113    1
   184   114   113   ar
   185   114   116   ar
   186   113   115   ar
   187   116   118   ar
   188   115   117   ar
   189   118   117   ar
   190   118   119    1
