@<TRIPOS>MOLECULE
tmp/3wf8A00.pdb
 195 186 0 0 0
SMALL
GASTEIGER

@<TRIPOS>ATOM
      1  N         -8.0680   22.9030  -37.0280 N.3    11  ARG11      -0.1245
      2  CA        -7.0130   23.6630  -36.3660 C.3    11  ARG11       0.1563
      3  C         -5.6820   22.9440  -36.4900 C.2    11  ARG11       0.2260
      4  O         -5.6230   21.7780  -36.9010 O.2    11  ARG11      -0.2867
      5  CB        -7.3340   23.9100  -34.8940 C.3    11  ARG11       0.0307
      6  CG        -7.0150   22.7810  -33.9580 C.3    11  ARG11       0.0489
      7  CD        -7.1600   23.2680  -32.5200 C.3    11  ARG11       0.2205
      8  NE        -7.4900   22.1800  -31.6100 N.pl3  11  ARG11      -0.0865
      9  CZ        -6.7790   21.8590  -30.5320 C.cat  11  ARG11       0.5346
     10  NH1       -7.1640   20.8460  -29.7740 N.pl3  11  ARG11       0.1354
     11  NH2       -5.6840   22.5420  -30.2190 N.pl3  11  ARG11       0.1354
     12  N         -2.6430   21.2740  -34.7190 N.3    13  LEU13      -0.1231
     13  CA        -2.3550   20.6660  -33.4220 C.3    13  LEU13       0.1693
     14  C         -0.8770   20.7630  -33.0880 C.2    13  LEU13       0.2593
     15  O         -0.5070   20.8570  -31.9240 O.2    13  LEU13      -0.2718
     16  CB        -2.7980   19.2140  -33.4120 C.3    13  LEU13       0.0284
     17  CG        -4.2900   19.0790  -33.6820 C.3    13  LEU13       0.0019
     18  CD1       -4.6860   17.6150  -33.6750 C.3    13  LEU13       0.0001
     19  CD2       -5.0520   19.8680  -32.6300 C.3    13  LEU13       0.0001
     20  N         -0.0310   20.7370  -34.1130 N.am   14  GLY14      -0.1942
     21  CA         1.4010   20.8410  -33.8850 C.3    14  GLY14       0.2014
     22  C          2.1590   20.8900  -35.1910 C.2    14  GLY14       0.2639
     23  O          1.6010   20.5720  -36.2360 O.2    14  GLY14      -0.2714
     24  N          3.4300   21.2820  -35.1280 N.am   15  LYS15      -0.1963
     25  CA         4.2610   21.3800  -36.3220 C.3    15  LYS15       0.1728
     26  C          5.7490   21.2690  -36.0060 C.2    15  LYS15       0.2617
     27  O          6.1880   21.5770  -34.9000 O.2    15  LYS15      -0.2715
     28  CB         3.9980   22.6960  -37.0440 C.3    15  LYS15       0.0311
     29  CG         4.2520   23.9140  -36.1860 C.3    15  LYS15       0.0038
     30  CD         4.1530   25.1900  -37.0190 C.3    15  LYS15       0.0206
     31  CE         3.9620   26.4070  -36.1370 C.3    15  LYS15       0.1093
     32  NZ         5.0490   26.5660  -35.1350 N.3    15  LYS15      -0.1314
     33  N          6.5270   20.8490  -36.9960 N.am   16  GLY16      -0.1940
     34  CA         7.9600   20.6950  -36.8090 C.3    16  GLY16       0.2014
     35  C          8.7230   20.8020  -38.1140 C.2    16  GLY16       0.2639
     36  O          8.2240   21.3420  -39.0910 O.2    16  GLY16      -0.2714
     37  N          9.9430   20.2830  -38.1320 N.am   17  GLY17      -0.1939
     38  CA        10.7820   20.4020  -39.3050 C.3    17  GLY17       0.2014
     39  C         10.3530   19.5510  -40.4850 C.2    17  GLY17       0.2639
     40  O         10.7760   19.8070  -41.6100 O.2    17  GLY17      -0.2714
     41  N          9.5200   18.5390  -40.2480 N.am   18  TYR18      -0.1959
     42  CA         9.1660   17.6060  -41.3200 C.3    18  TYR18       0.1771
     43  C          7.7130   17.7180  -41.7780 C.2    18  TYR18       0.2620
     44  O          7.3370   17.1330  -42.7910 O.2    18  TYR18      -0.2715
     45  CB         9.4160   16.1620  -40.8970 C.3    18  TYR18       0.0574
     46  CG        10.8160   15.8450  -40.4700 C.ar   18  TYR18      -0.0198
     47  CD1       11.7590   15.3950  -41.3930 C.ar   18  TYR18      -0.0009
     48  CD2       11.1950   15.9640  -39.1380 C.ar   18  TYR18      -0.0009
     49  CE1       13.0490   15.0830  -40.9980 C.ar   18  TYR18       0.0417
     50  CE2       12.4770   15.6520  -38.7320 C.ar   18  TYR18       0.0417
     51  CZ        13.4010   15.2100  -39.6690 C.ar   18  TYR18       0.1957
     52  OH        14.6830   14.9040  -39.2770 O.3    18  TYR18      -0.2866
     53  N          6.8940   18.4440  -41.0350 N.am   19  GLY19      -0.1940
     54  CA         5.4830   18.5080  -41.3760 C.3    19  GLY19       0.2014
     55  C          4.6010   19.0630  -40.2780 C.2    19  GLY19       0.2639
     56  O          5.0750   19.7790  -39.3990 O.2    19  GLY19      -0.2714
     57  N          3.3100   18.7210  -40.3330 N.am   20  LYS20      -0.1963
     58  CA         2.3050   19.3260  -39.4620 C.3    20  LYS20       0.1728
     59  C          1.2570   18.2970  -39.0540 C.2    20  LYS20       0.2616
     60  O          1.0420   17.3140  -39.7660 O.2    20  LYS20      -0.2715
     61  CB         1.6140   20.5080  -40.1690 C.3    20  LYS20       0.0311
     62  CG         2.5100   21.6800  -40.4960 C.3    20  LYS20       0.0038
     63  CD         1.8370   22.6380  -41.4630 C.3    20  LYS20       0.0206
     64  CE         2.7820   23.7530  -41.8570 C.3    20  LYS20       0.1093
     65  NZ         3.1780   24.5690  -40.6770 N.3    20  LYS20      -0.1314
     66  N          0.6160   18.5210  -37.9080 N.am   21  VAL21      -0.1977
     67  CA        -0.5780   17.7650  -37.5470 C.3    21  VAL21       0.1596
     68  C         -1.7790   18.7160  -37.4620 C.2    21  VAL21       0.2287
     69  O         -1.6870   19.7830  -36.8540 O.2    21  VAL21      -0.2864
     70  CB        -0.4430   17.0290  -36.2040 C.3    21  VAL21       0.0276
     71  CG1       -1.6940   16.1720  -35.9700 C.3    21  VAL21       0.0022
     72  CG2        0.8000   16.1620  -36.1740 C.3    21  VAL21       0.0022
     73  N         -6.9440   13.1590  -36.0120 N.3    37  ALA37      -0.1245
     74  CA        -5.7220   13.9350  -36.1340 C.3    37  ALA37       0.1562
     75  C         -5.0600   13.5670  -37.4680 C.2    37  ALA37       0.2260
     76  O         -4.8710   12.3910  -37.7700 O.2    37  ALA37      -0.2867
     77  CB        -4.7910   13.6640  -34.9670 C.3    37  ALA37       0.0290
     78  N         -1.7410   13.7920  -39.6640 N.3    39  LYS39      -0.1245
     79  CA        -0.3270   14.1480  -39.7390 C.3    39  LYS39       0.1561
     80  C          0.0960   14.2060  -41.1980 C.2    39  LYS39       0.2260
     81  O         -0.1050   13.2490  -41.9500 O.2    39  LYS39      -0.2867
     82  CB         0.5300   13.1580  -38.9590 C.3    39  LYS39       0.0271
     83  CG         2.0280   13.4670  -39.0640 C.3    39  LYS39       0.0035
     84  CD         2.7660   13.1230  -37.7840 C.3    39  LYS39       0.0206
     85  CE         3.1430   11.6570  -37.7240 C.3    39  LYS39       0.1093
     86  NZ         4.0940   11.4300  -36.5980 N.3    39  LYS39      -0.1314
     87  N          3.2890   14.9060  -43.6920 N.3    41  LEU41      -0.1245
     88  CA         4.7450   14.9970  -43.8000 C.3    41  LEU41       0.1561
     89  C          5.1660   15.3660  -45.2170 C.2    41  LEU41       0.2260
     90  O          4.6390   14.8170  -46.1830 O.2    41  LEU41      -0.2867
     91  CB         5.3980   13.6610  -43.3990 C.3    41  LEU41       0.0270
     92  CG         5.0880   13.0980  -42.0130 C.3    41  LEU41       0.0019
     93  CD1        5.6210   11.6820  -41.8850 C.3    41  LEU41       0.0001
     94  CD2        5.6680   13.9970  -40.9240 C.3    41  LEU41       0.0001
     95  N         -1.6560    4.7940  -29.7160 N.3    72  VAL72      -0.1245
     96  CA        -2.4280    5.5920  -30.6820 C.3    72  VAL72       0.1561
     97  C         -2.8490    4.7580  -31.8970 C.2    72  VAL72       0.2260
     98  O         -2.0720    3.9710  -32.4410 O.2    72  VAL72      -0.2867
     99  CB        -1.6310    6.8550  -31.1480 C.3    72  VAL72       0.0252
    100  CG1       -0.3060    6.4530  -31.8200 C.3    72  VAL72       0.0019
    101  CG2       -2.4700    7.7160  -32.0790 C.3    72  VAL72       0.0019
    102  N         -4.9050    9.6800  -37.7490 N.3    88  LEU88      -0.1231
    103  CA        -4.8240    9.0880  -36.4220 C.3    88  LEU88       0.1693
    104  C         -6.0550    9.4300  -35.6010 C.2    88  LEU88       0.2592
    105  O         -6.7480   10.3950  -35.9050 O.2    88  LEU88      -0.2718
    106  CB        -3.5640    9.5840  -35.6940 C.3    88  LEU88       0.0284
    107  CG        -2.2330    9.2530  -36.3820 C.3    88  LEU88       0.0019
    108  CD1       -1.2500   10.3960  -36.2350 C.3    88  LEU88       0.0001
    109  CD2       -1.6570    7.9770  -35.7960 C.3    88  LEU88       0.0001
    110  N         -6.3170    8.6640  -34.5410 N.am   89  GLU89      -0.1966
    111  CA        -7.3780    9.0520  -33.6110 C.3    89  GLU89       0.1733
    112  C         -6.9520   10.3380  -32.9110 C.2    89  GLU89       0.2616
    113  O         -5.7650   10.5680  -32.6600 O.2    89  GLU89      -0.2715
    114  CB        -7.6790    7.9530  -32.5800 C.3    89  GLU89       0.0429
    115  CG        -6.4550    7.4460  -31.8440 C.3    89  GLU89       0.1163
    116  CD        -6.7710    6.4190  -30.7580 C.2    89  GLU89       0.3649
    117  OE1       -7.9070    6.3890  -30.2460 O.co2  89  GLU89      -0.2457
    118  OE2       -5.8650    5.6410  -30.4110 O.co2  89  GLU89      -0.2457
    119  N         -7.9240   11.1920  -32.6380 N.am   90  TYR90      -0.1960
    120  CA        -7.6860   12.4620  -31.9580 C.3    90  TYR90       0.1771
    121  C         -7.7460   12.2190  -30.4570 C.2    90  TYR90       0.2619
    122  O         -8.6960   11.5970  -29.9600 O.2    90  TYR90      -0.2715
    123  CB        -8.7310   13.5080  -32.3920 C.3    90  TYR90       0.0574
    124  CG        -8.6840   14.8110  -31.6160 C.ar   90  TYR90      -0.0198
    125  CD1       -7.6850   15.7470  -31.8500 C.ar   90  TYR90      -0.0009
    126  CD2       -9.6440   15.1030  -30.6500 C.ar   90  TYR90      -0.0009
    127  CE1       -7.6370   16.9240  -31.1430 C.ar   90  TYR90       0.0417
    128  CE2       -9.6100   16.2820  -29.9480 C.ar   90  TYR90       0.0417
    129  CZ        -8.6020   17.1900  -30.1970 C.ar   90  TYR90       0.1957
    130  OH        -8.5580   18.3670  -29.4930 O.3    90  TYR90      -0.2866
    131  N         -6.7320   12.6840  -29.7330 N.am   91  LEU91      -0.1963
    132  CA        -6.6540   12.4190  -28.2980 C.3    91  LEU91       0.1728
    133  C         -6.8680   13.6900  -27.4940 C.2    91  LEU91       0.2616
    134  O         -5.9670   14.5250  -27.3770 O.2    91  LEU91      -0.2715
    135  CB        -5.3140   11.7780  -27.9530 C.3    91  LEU91       0.0311
    136  CG        -5.1010   10.4670  -28.7200 C.3    91  LEU91       0.0022
    137  CD1       -3.7590    9.8360  -28.3960 C.3    91  LEU91       0.0001
    138  CD2       -6.2510    9.4860  -28.4510 C.3    91  LEU91       0.0001
    139  N         -8.0590   13.8220  -26.9190 N.am   92  SER92      -0.1950
    140  CA        -8.4760   15.0810  -26.3050 C.3    92  SER92       0.1924
    141  C         -8.1020   15.2600  -24.8370 C.2    92  SER92       0.2314
    142  O         -8.3390   16.3240  -24.2680 O.2    92  SER92      -0.2863
    143  CB        -9.9900   15.2340  -26.4370 C.3    92  SER92       0.2116
    144  OG       -10.6410   14.0370  -26.0480 O.3    92  SER92      -0.2180
    145  N         -5.1300   15.3610  -23.4730 N.3    94  GLY94      -0.1210
    146  CA        -3.8780   16.0680  -23.2470 C.3    94  GLY94       0.1956
    147  C         -2.6760   15.1760  -22.9850 C.2    94  GLY94       0.2611
    148  O         -2.7540   13.9560  -23.1240 O.2    94  GLY94      -0.2717
    149  N         -1.5580   15.7900  -22.6090 N.am   95  GLU95      -0.1979
    150  CA        -0.3480   15.0460  -22.2720 C.3    95  GLU95       0.1602
    151  C         -0.3420   14.6530  -20.7950 C.2    95  GLU95       0.2287
    152  O         -0.8160   15.4110  -19.9420 O.2    95  GLU95      -0.2864
    153  CB         0.9060   15.8710  -22.5890 C.3    95  GLU95       0.0415
    154  CG         1.1070   16.2190  -24.0600 C.3    95  GLU95       0.1163
    155  CD         2.2840   17.1640  -24.2830 C.2    95  GLU95       0.3649
    156  OE1        2.7540   17.7690  -23.2930 O.co2  95  GLU95      -0.2457
    157  OE2        2.7400   17.2960  -25.4440 O.co2  95  GLU95      -0.2457
    158  N         -0.0970   10.4800  -24.0680 N.3   141  MET141     -0.1245
    159  CA        -1.3210   11.2600  -24.1030 C.3   141  MET141      0.1570
    160  C         -2.4510   10.5080  -23.4130 C.2   141  MET141      0.2261
    161  O         -2.2860    9.3530  -23.0210 O.2   141  MET141     -0.2867
    162  CB        -1.6800   11.6160  -25.5450 C.3   141  MET141      0.0387
    163  CG        -0.5930   12.4760  -26.1960 C.3   141  MET141      0.0595
    164  SD        -1.1340   13.4390  -27.6150 S.3   141  MET141     -0.1393
    165  CE        -2.1800   14.6580  -26.8170 C.3   141  MET141      0.0692
    166  N          2.4510    7.5770  -27.9250 N.3   151  THR151     -0.1218
    167  CA         2.5600    8.2360  -29.2260 C.3   151  THR151      0.1862
    168  C          4.0340    8.3540  -29.6390 C.2   151  THR151      0.2287
    169  O          4.9050    7.7700  -28.9980 O.2   151  THR151     -0.2866
    170  CB         1.9110    9.6380  -29.2010 C.3   151  THR151      0.1770
    171  OG1        2.6140   10.4650  -28.2660 O.3   151  THR151     -0.2211
    172  CG2        0.4290    9.5620  -28.7970 C.3   151  THR151      0.0375
    173  N          9.1080   10.5990  -36.8090 N.3   155  LEU155     -0.1231
    174  CA        10.1700   11.6000  -36.9050 C.3   155  LEU155      0.1693
    175  C         10.1440   12.6190  -35.7710 C.2   155  LEU155      0.2592
    176  O          9.1430   12.7610  -35.0690 O.2   155  LEU155     -0.2718
    177  CB        10.0840   12.3250  -38.2500 C.3   155  LEU155      0.0284
    178  CG        10.2480   11.4260  -39.4750 C.3   155  LEU155      0.0019
    179  CD1        9.8870   12.2070  -40.7490 C.3   155  LEU155      0.0001
    180  CD2       11.6810   10.8640  -39.5290 C.3   155  LEU155      0.0001
    181  N         11.2550   13.3350  -35.6260 N.am  156  CYS156     -0.1956
    182  CA        11.4730   14.2490  -34.5120 C.3   156  CYS156      0.1843
    183  C         10.4280   15.3600  -34.3990 C.2   156  CYS156      0.2625
    184  O         10.1460   16.0800  -35.3570 O.2   156  CYS156     -0.2714
    185  CB        12.8710   14.8800  -34.6190 C.3   156  CYS156      0.0997
    186  SG        13.3220   15.7990  -33.1300 S.3   156  CYS156     -0.0797
    187  N          9.8800   15.5120  -33.1990 N.am  157  LYS157     -0.1977
    188  CA         8.8630   16.5200  -32.9470 C.3   157  LYS157      0.1596
    189  C          9.4480   17.8020  -32.3560 C.2   157  LYS157      0.2287
    190  O          8.7320   18.7840  -32.1700 O.2   157  LYS157     -0.2864
    191  CB         7.7850   15.9500  -32.0250 C.3   157  LYS157      0.0298
    192  CG         6.9320   14.8720  -32.6960 C.3   157  LYS157      0.0038
    193  CD         5.7030   14.5290  -31.8680 C.3   157  LYS157      0.0206
    194  CE         4.8010   13.5530  -32.6160 C.3   157  LYS157      0.1093
    195  NZ         3.5900   13.1770  -31.8250 N.3   157  LYS157     -0.1314
@<TRIPOS>BOND
     1    90    89    2
     2    89    88    1
     3    88    87    1
     4    88    91    1
     5    91    92    1
     6    44    43    2
     7    92    93    1
     8    92    94    1
     9    81    80    2
    10    64    63    1
    11    64    65    1
    12    43    42    1
    13    43    53   am
    14    40    39    2
    15    63    62    1
    16    47    49   ar
    17    47    46   ar
    18    54    53    1
    19    54    55    1
    20    42    45    1
    21    42    41    1
    22    80    79    1
    23    49    51   ar
    24    45    46    1
    25   179   178    1
    26    62    61    1
    27    39    41   am
    28    39    38    1
    29    46    48   ar
    30    57    55   am
    31    57    58    1
    32    55    56    2
    33    61    58    1
    34    60    59    2
    35    79    78    1
    36    79    82    1
    37    51    52    1
    38    51    50   ar
    39   180   178    1
    40   178   177    1
    41    58    59    1
    42    38    37    1
    43    48    50   ar
    44    36    35    2
    45    83    82    1
    46    83    84    1
    47    59    66   am
    48   177   174    1
    49    37    35   am
    50    35    34    1
    51    66    67    1
    52    84    85    1
    53    76    75    2
    54   102   103    1
    55    85    86    1
    56    67    68    1
    57    67    70    1
    58    75    74    1
    59    68    69    2
    60    28    25    1
    61    28    29    1
    62     1     2    1
    63    30    29    1
    64    30    31    1
    65    33    34    1
    66    33    26   am
    67   174   173    1
    68   174   175    1
    69     4     3    2
    70     3     2    1
    71   103   106    1
    72   103   104    1
    73   107   108    1
    74   107   109    1
    75   107   106    1
    76     2     5    1
    77    25    26    1
    78    25    24    1
    79    23    22    2
    80    70    72    1
    81    70    71    1
    82    31    32    1
    83    74    73    1
    84    74    77    1
    85    26    27    2
    86   105   104    2
    87   175   181   am
    88   175   176    2
    89   181   182    1
    90   104   110   am
    91   184   183    2
    92    22    24   am
    93    22    21    1
    94     5     6    1
    95    12    13    1
    96   185   182    1
    97   185   186    1
    98   110   111    1
    99   182   183    1
   100   183   187   am
   101    20    21    1
   102    20    14   am
   103     6     7    1
   104    17    18    1
   105    17    16    1
   106    17    19    1
   107   111   112    1
   108   111   114    1
   109    13    16    1
   110    13    14    1
   111   187   188    1
   112    14    15    2
   113   188   189    1
   114   188   191    1
   115   112   113    2
   116   112   119   am
   117   192   191    1
   118   192   193    1
   119   119   120    1
   120   194   193    1
   121   194   195    1
   122   114   115    1
   123     7     8    1
   124    98    97    2
   125   123   120    1
   126   123   124    1
   127   189   190    2
   128   101    99    1
   129   120   121    1
   130    97    96    1
   131   125   124   ar
   132   125   127   ar
   133   115   116    1
   134   100    99    1
   135   124   126   ar
   136     8     9    2
   137    99    96    1
   138   127   129   ar
   139   116   118   ar
   140   116   117   ar
   141    96    95    1
   142   126   128   ar
   143     9    11    1
   144     9    10    1
   145   121   122    2
   146   121   131   am
   147   129   128   ar
   148   129   130    1
   149   131   132    1
   150   168   167    1
   151   168   169    2
   152   167   170    1
   153   167   166    1
   154   170   172    1
   155   170   171    1
   156   136   138    1
   157   136   137    1
   158   136   135    1
   159   132   135    1
   160   132   133    1
   161   164   165    1
   162   164   163    1
   163   133   134    2
   164   133   139   am
   165   139   140    1
   166   143   140    1
   167   143   144    1
   168   140   141    1
   169   163   162    1
   170   162   159    1
   171   157   155   ar
   172   141   142    2
   173   155   154    1
   174   155   156   ar
   175   159   158    1
   176   159   160    1
   177   154   153    1
   178   145   146    1
   179   160   161    2
   180   146   147    1
   181   148   147    2
   182   147   149   am
   183   149   150    1
   184   153   150    1
   185   150   151    1
   186   151   152    2
