@<TRIPOS>MOLECULE
tmp/3wf9A00.pdb
 212 202 0 0 0
SMALL
GASTEIGER

@<TRIPOS>ATOM
      1  N        -32.5790   -9.4570   -5.4130 N.3    11  ARG11      -0.1245
      2  CA       -31.5120   -8.6640   -4.8040 C.3    11  ARG11       0.1563
      3  C        -30.1580   -9.3170   -4.9820 C.2    11  ARG11       0.2260
      4  O        -30.0750  -10.4740   -5.3870 O.2    11  ARG11      -0.2867
      5  CB       -31.7770   -8.4050   -3.3170 C.3    11  ARG11       0.0307
      6  CG       -31.7880   -9.5820   -2.3890 C.3    11  ARG11       0.0489
      7  CD       -32.3260   -9.1130   -1.0240 C.3    11  ARG11       0.2205
      8  NE       -31.8620   -9.9240    0.1010 N.pl3  11  ARG11      -0.0865
      9  CZ       -30.7780   -9.6520    0.8260 C.cat  11  ARG11       0.5346
     10  NH1      -30.4360  -10.4450    1.8290 N.pl3  11  ARG11       0.1354
     11  NH2      -30.0340   -8.5870    0.5520 N.pl3  11  ARG11       0.1354
     12  N        -27.0780  -10.9280   -3.2540 N.3    13  LEU13      -0.1231
     13  CA       -26.8330  -11.5400   -1.9490 C.3    13  LEU13       0.1693
     14  C        -25.3720  -11.4360   -1.5940 C.2    13  LEU13       0.2593
     15  O        -25.0230  -11.2800   -0.4290 O.2    13  LEU13      -0.2718
     16  CB       -27.2750  -12.9970   -1.9450 C.3    13  LEU13       0.0284
     17  CG       -28.7630  -13.1450   -2.2480 C.3    13  LEU13       0.0019
     18  CD1      -29.1610  -14.6090   -2.3160 C.3    13  LEU13       0.0001
     19  CD2      -29.5830  -12.3990   -1.1910 C.3    13  LEU13       0.0001
     20  N        -24.5170  -11.5120   -2.6110 N.am   14  GLY14      -0.1942
     21  CA       -23.0810  -11.4300   -2.3930 C.3    14  GLY14       0.2014
     22  C        -22.3140  -11.3930   -3.7040 C.2    14  GLY14       0.2639
     23  O        -22.8570  -11.7000   -4.7640 O.2    14  GLY14      -0.2714
     24  N        -21.0470  -11.0120   -3.6270 N.am   15  LYS15      -0.1963
     25  CA       -20.2360  -10.8830   -4.8160 C.3    15  LYS15       0.1728
     26  C        -18.7530  -10.9730   -4.4800 C.2    15  LYS15       0.2617
     27  O        -18.3440  -10.7050   -3.3540 O.2    15  LYS15      -0.2715
     28  CB       -20.5360   -9.5570   -5.5000 C.3    15  LYS15       0.0311
     29  CG       -20.2790   -8.3860   -4.6000 C.3    15  LYS15       0.0038
     30  CD       -20.6050   -7.0680   -5.2880 C.3    15  LYS15       0.0206
     31  CE       -20.2410   -5.8870   -4.4030 C.3    15  LYS15       0.1093
     32  NZ       -18.7620   -5.6670   -4.3210 N.3    15  LYS15      -0.1314
     33  N        -17.9510  -11.3290   -5.4760 N.am   16  GLY16      -0.1940
     34  CA       -16.5260  -11.5020   -5.2880 C.3    16  GLY16       0.2014
     35  C        -15.8210  -11.4590   -6.6280 C.2    16  GLY16       0.2639
     36  O        -16.3700  -10.9610   -7.6120 O.2    16  GLY16      -0.2714
     37  N        -14.6040  -11.9850   -6.6750 N.am   17  GLY17      -0.1939
     38  CA       -13.7990  -11.8920   -7.8860 C.3    17  GLY17       0.2014
     39  C        -14.2260  -12.7740   -9.0540 C.2    17  GLY17       0.2639
     40  O        -13.7570  -12.5840  -10.1770 O.2    17  GLY17      -0.2714
     41  N        -15.0950  -13.7490   -8.7980 N.am   18  TYR18      -0.1959
     42  CA       -15.4520  -14.7250   -9.8240 C.3    18  TYR18       0.1771
     43  C        -16.9010  -14.6120  -10.2920 C.2    18  TYR18       0.2620
     44  O        -17.2930  -15.2630  -11.2690 O.2    18  TYR18      -0.2715
     45  CB       -15.2180  -16.1480   -9.3200 C.3    18  TYR18       0.0574
     46  CG       -13.8050  -16.4610   -8.9160 C.ar   18  TYR18      -0.0198
     47  CD1      -12.8760  -16.9010   -9.8550 C.ar   18  TYR18      -0.0009
     48  CD2      -13.4060  -16.3520   -7.5900 C.ar   18  TYR18      -0.0009
     49  CE1      -11.5770  -17.2020   -9.4790 C.ar   18  TYR18       0.0417
     50  CE2      -12.1160  -16.6490   -7.2070 C.ar   18  TYR18       0.0417
     51  CZ       -11.2110  -17.0820   -8.1540 C.ar   18  TYR18       0.1957
     52  OH        -9.9310  -17.3870   -7.7660 O.3    18  TYR18      -0.2866
     53  N        -17.6920  -13.8230   -9.5770 N.am   19  GLY19      -0.1940
     54  CA       -19.1100  -13.7050   -9.8720 C.3    19  GLY19       0.2014
     55  C        -19.9330  -13.2150   -8.6950 C.2    19  GLY19       0.2639
     56  O        -19.3860  -12.6680   -7.7320 O.2    19  GLY19      -0.2714
     57  N        -21.2440  -13.4520   -8.7770 N.am   20  LYS20      -0.1963
     58  CA       -22.2380  -12.8810   -7.8740 C.3    20  LYS20       0.1728
     59  C        -23.2850  -13.9130   -7.4820 C.2    20  LYS20       0.2616
     60  O        -23.5100  -14.8850   -8.2040 O.2    20  LYS20      -0.2715
     61  CB       -22.9410  -11.6680   -8.5290 C.3    20  LYS20       0.0311
     62  CG       -22.0380  -10.4580   -8.7370 C.3    20  LYS20       0.0038
     63  CD       -22.5600   -9.5220   -9.8160 C.3    20  LYS20       0.0206
     64  CE       -21.4700   -8.5700  -10.2800 C.3    20  LYS20       0.1093
     65  NZ       -21.0250   -7.6710   -9.1740 N.3    20  LYS20      -0.1314
     66  N        -23.9080  -13.6990   -6.3250 N.am   21  VAL21      -0.1977
     67  CA       -25.0930  -14.4500   -5.9530 C.3    21  VAL21       0.1596
     68  C        -26.2860  -13.4930   -5.8650 C.2    21  VAL21       0.2287
     69  O        -26.2220  -12.4620   -5.1870 O.2    21  VAL21      -0.2864
     70  CB       -24.9220  -15.1920   -4.6140 C.3    21  VAL21       0.0276
     71  CG1      -26.1530  -16.0670   -4.3460 C.3    21  VAL21       0.0022
     72  CG2      -23.6700  -16.0400   -4.6370 C.3    21  VAL21       0.0022
     73  N        -31.4950  -18.9690   -4.3710 N.3    37  ALA37      -0.1245
     74  CA       -30.2720  -18.1990   -4.5210 C.3    37  ALA37       0.1562
     75  C        -29.6440  -18.6480   -5.8480 C.2    37  ALA37       0.2260
     76  O        -29.5740  -19.8470   -6.1370 O.2    37  ALA37      -0.2867
     77  CB       -29.3420  -18.4170   -3.3550 C.3    37  ALA37       0.0290
     78  N        -26.2660  -18.5010   -8.0520 N.3    39  LYS39      -0.1245
     79  CA       -24.8560  -18.1380   -8.1490 C.3    39  LYS39       0.1561
     80  C        -24.4710  -18.0610   -9.6110 C.2    39  LYS39       0.2260
     81  O        -24.6920  -19.0080  -10.3630 O.2    39  LYS39      -0.2867
     82  CB       -23.9580  -19.1290   -7.4040 C.3    39  LYS39       0.0271
     83  CG       -22.4500  -18.9130   -7.6990 C.3    39  LYS39       0.0035
     84  CD       -21.6050  -19.1250   -6.4630 C.3    39  LYS39       0.0206
     85  CE       -21.4670  -20.5990   -6.1070 C.3    39  LYS39       0.1093
     86  NZ       -20.5460  -20.7850   -4.9390 N.3    39  LYS39      -0.1314
     87  N        -21.3120  -17.4120  -12.1200 N.3    41  LEU41      -0.1245
     88  CA       -19.8610  -17.3110  -12.2510 C.3    41  LEU41       0.1561
     89  C        -19.4480  -16.9340  -13.6640 C.2    41  LEU41       0.2260
     90  O        -20.0170  -17.4230  -14.6340 O.2    41  LEU41      -0.2867
     91  CB       -19.2070  -18.6400  -11.8560 C.3    41  LEU41       0.0270
     92  CG       -19.5480  -19.0730  -10.4360 C.3    41  LEU41       0.0019
     93  CD1      -19.1530  -20.5160  -10.1700 C.3    41  LEU41       0.0001
     94  CD2      -18.8990  -18.1300   -9.4390 C.3    41  LEU41       0.0001
     95  N        -26.2250  -27.4540    1.7820 N.3    72  VAL72      -0.1245
     96  CA       -27.0070  -26.6070    0.8720 C.3    72  VAL72       0.1561
     97  C        -27.4080  -27.3820   -0.3830 C.2    72  VAL72       0.2260
     98  O        -26.6000  -28.1080   -0.9670 O.2    72  VAL72      -0.2867
     99  CB       -26.2110  -25.3090    0.4990 C.3    72  VAL72       0.0252
    100  CG1      -24.9210  -25.6410   -0.3000 C.3    72  VAL72       0.0019
    101  CG2      -27.0790  -24.3190   -0.2260 C.3    72  VAL72       0.0019
    102  N        -29.4840  -22.5910   -6.2000 N.3    88  LEU88      -0.1231
    103  CA       -29.3390  -23.2190   -4.9020 C.3    88  LEU88       0.1693
    104  C        -30.5340  -22.8860   -4.0480 C.2    88  LEU88       0.2592
    105  O        -31.2680  -21.9450   -4.3520 O.2    88  LEU88      -0.2718
    106  CB       -28.0560  -22.7280   -4.2340 C.3    88  LEU88       0.0284
    107  CG       -26.8100  -23.0370   -5.0660 C.3    88  LEU88       0.0019
    108  CD1      -25.7820  -21.9060   -5.0100 C.3    88  LEU88       0.0001
    109  CD2      -26.1800  -24.3520   -4.6200 C.3    88  LEU88       0.0001
    110  N        -30.7470  -23.6320   -2.9730 N.am   89  GLU89      -0.1966
    111  CA       -31.7980  -23.2240   -2.0620 C.3    89  GLU89       0.1733
    112  C        -31.3780  -21.9020   -1.4030 C.2    89  GLU89       0.2616
    113  O        -30.1940  -21.6310   -1.2280 O.2    89  GLU89      -0.2715
    114  CB       -32.0890  -24.3050   -1.0200 C.3    89  GLU89       0.0429
    115  CG       -31.0700  -24.3690    0.0690 C.3    89  GLU89       0.1163
    116  CD       -31.2920  -25.5290    0.9940 C.2    89  GLU89       0.3649
    117  OE1      -32.3740  -25.5950    1.6300 O.co2  89  GLU89      -0.2457
    118  OE2      -30.3780  -26.3800    1.0720 O.co2  89  GLU89      -0.2457
    119  N        -32.3600  -21.0600   -1.0950 N.am   90  TYR90      -0.1960
    120  CA       -32.1170  -19.7700   -0.4540 C.3    90  TYR90       0.1771
    121  C        -32.1250  -19.9540    1.0570 C.2    90  TYR90       0.2619
    122  O        -33.0730  -20.5060    1.6030 O.2    90  TYR90      -0.2715
    123  CB       -33.1790  -18.7510   -0.8940 C.3    90  TYR90       0.0574
    124  CG       -33.1410  -17.4350   -0.1650 C.ar   90  TYR90      -0.0198
    125  CD1      -32.2080  -16.4640   -0.4940 C.ar   90  TYR90      -0.0009
    126  CD2      -34.0630  -17.1510    0.8450 C.ar   90  TYR90      -0.0009
    127  CE1      -32.1740  -15.2540    0.1790 C.ar   90  TYR90       0.0417
    128  CE2      -34.0400  -15.9460    1.5110 C.ar   90  TYR90       0.0417
    129  CZ       -33.0930  -15.0020    1.1720 C.ar   90  TYR90       0.1957
    130  OH       -33.0500  -13.8040    1.8320 O.3    90  TYR90      -0.2866
    131  N        -31.0760  -19.4950    1.7320 N.am   91  LEU91      -0.1963
    132  CA       -30.9400  -19.7330    3.1740 C.3    91  LEU91       0.1728
    133  C        -31.2250  -18.4780    4.0080 C.2    91  LEU91       0.2616
    134  O        -30.3420  -17.6520    4.2500 O.2    91  LEU91      -0.2715
    135  CB       -29.5390  -20.2870    3.4600 C.3    91  LEU91       0.0311
    136  CG       -29.3310  -21.6000    2.6900 C.3    91  LEU91       0.0022
    137  CD1      -27.9280  -22.2310    2.8520 C.3    91  LEU91       0.0001
    138  CD2      -30.4160  -22.5870    3.1120 C.3    91  LEU91       0.0001
    139  N        -32.4700  -18.3570    4.4630 N.am   92  SER92      -0.1950
    140  CA       -32.9580  -17.1380    5.0940 C.3    92  SER92       0.1924
    141  C        -32.5210  -16.9700    6.5420 C.2    92  SER92       0.2314
    142  O        -32.6170  -15.8830    7.1050 O.2    92  SER92      -0.2863
    143  CB       -34.4870  -17.0980    5.0310 C.3    92  SER92       0.2116
    144  OG       -35.0330  -18.2880    5.5700 O.3    92  SER92      -0.2180
    145  N        -29.7670  -16.8180    7.7980 N.3    94  GLY94      -0.1210
    146  CA       -28.4850  -16.1480    7.9390 C.3    94  GLY94       0.1956
    147  C        -27.3480  -17.0470    8.4020 C.2    94  GLY94       0.2611
    148  O        -27.4820  -18.2720    8.3970 O.2    94  GLY94      -0.2717
    149  N        -26.2340  -16.4260    8.8060 N.am   95  GLU95      -0.1979
    150  CA       -25.0290  -17.1350    9.2550 C.3    95  GLU95       0.1602
    151  C        -25.0890  -17.5350   10.7370 C.2    95  GLU95       0.2287
    152  O        -25.6020  -16.7840   11.5780 O.2    95  GLU95      -0.2864
    153  CB       -23.7670  -16.2700    9.0310 C.3    95  GLU95       0.0415
    154  CG       -23.3350  -16.0520    7.5800 C.3    95  GLU95       0.1163
    155  CD       -22.2390  -14.9840    7.4330 C.2    95  GLU95       0.3649
    156  OE1      -21.8810  -14.3440    8.4490 O.co2  95  GLU95      -0.2457
    157  OE2      -21.7370  -14.7860    6.2990 O.co2  95  GLU95      -0.2457
    158  N        -18.8500  -18.4150    9.5110 N.3   138  GLU138     -0.1245
    159  CA       -19.3300  -17.7460    8.2950 C.3   138  GLU138      0.1567
    160  C        -19.8030  -18.7210    7.2260 C.2   138  GLU138      0.2260
    161  O        -20.5590  -18.3610    6.3210 O.2   138  GLU138     -0.2867
    162  CB       -18.2280  -16.8640    7.7000 C.3   138  GLU138      0.0388
    163  CG       -17.8030  -15.7210    8.5710 C.3   138  GLU138      0.1160
    164  CD       -16.4730  -15.1460    8.1310 C.2   138  GLU138      0.3649
    165  OE1      -15.4460  -15.8380    8.3050 O.co2 138  GLU138     -0.2457
    166  OE2      -16.4580  -14.0110    7.6020 O.co2 138  GLU138     -0.2457
    167  N        -24.5710  -21.6680    7.5050 N.3   141  MET141     -0.1245
    168  CA       -25.8090  -20.9050    7.4270 C.3   141  MET141      0.1570
    169  C        -26.9240  -21.7010    8.0680 C.2   141  MET141      0.2261
    170  O        -26.7360  -22.8820    8.3770 O.2   141  MET141     -0.2867
    171  CB       -26.1620  -20.5690    5.9800 C.3   141  MET141      0.0387
    172  CG       -25.0180  -19.9200    5.2170 C.3   141  MET141      0.0595
    173  SD       -25.5330  -18.7920    3.8990 S.3   141  MET141     -0.1393
    174  CE       -26.4150  -17.5400    4.8310 C.3   141  MET141      0.0692
    175  N        -22.0810  -24.6330    3.5160 N.3   151  THR151     -0.1203
    176  CA       -21.9360  -23.9570    2.2330 C.3   151  THR151      0.1994
    177  C        -20.4490  -23.8640    1.8560 C.2   151  THR151      0.2617
    178  O        -19.6040  -24.4310    2.5380 O.2   151  THR151     -0.2717
    179  CB       -22.5210  -22.5420    2.2860 C.3   151  THR151      0.1784
    180  OG1      -21.7660  -21.7630    3.2280 O.3   151  THR151     -0.2211
    181  CG2      -24.0040  -22.5790    2.6970 C.3   151  THR151      0.0376
    182  N        -20.1380  -23.1370    0.7880 N.am  152  ASP152     -0.1973
    183  CA       -18.7500  -22.8440    0.3940 C.3   152  ASP152      0.1709
    184  C        -17.9330  -24.0960    0.0530 C.2   152  ASP152      0.2293
    185  O        -16.9810  -24.4560    0.7490 O.2   152  ASP152     -0.2864
    186  CB       -18.0350  -22.0390    1.4950 C.3   152  ASP152      0.1436
    187  CG       -16.7240  -21.4080    1.0150 C.2   152  ASP152      0.3671
    188  OD1      -16.5730  -21.1750   -0.2040 O.co2 152  ASP152     -0.2456
    189  OD2      -15.8440  -21.1400    1.8630 O.co2 152  ASP152     -0.2456
    190  N        -15.3510  -21.7180   -5.3310 N.3   155  LEU155     -0.1231
    191  CA       -14.3200  -20.6860   -5.4670 C.3   155  LEU155      0.1693
    192  C        -14.3600  -19.6580   -4.3370 C.2   155  LEU155      0.2592
    193  O        -15.3860  -19.4720   -3.6760 O.2   155  LEU155     -0.2718
    194  CB       -14.4620  -19.9830   -6.8150 C.3   155  LEU155      0.0284
    195  CG       -14.3360  -20.8530   -8.0630 C.3   155  LEU155      0.0019
    196  CD1      -14.8140  -20.0510   -9.2720 C.3   155  LEU155      0.0001
    197  CD2      -12.8770  -21.3310   -8.2700 C.3   155  LEU155      0.0001
    198  N        -13.2340  -18.9830   -4.1500 N.am  156  CYS156     -0.1956
    199  CA       -13.0240  -18.1100   -3.0030 C.3   156  CYS156      0.1843
    200  C        -14.0150  -16.9630   -2.9340 C.2   156  CYS156      0.2625
    201  O        -14.2400  -16.2730   -3.9210 O.2   156  CYS156     -0.2714
    202  CB       -11.6060  -17.5390   -3.0160 C.3   156  CYS156      0.0997
    203  SG       -11.2900  -16.4320   -1.6260 S.3   156  CYS156     -0.0797
    204  N        -14.5690  -16.7650   -1.7430 N.am  157  LYS157     -0.1977
    205  CA       -15.6220  -15.7880   -1.4950 C.3   157  LYS157      0.1596
    206  C        -15.0580  -14.4960   -0.9220 C.2   157  LYS157      0.2287
    207  O        -15.8000  -13.5390   -0.6780 O.2   157  LYS157     -0.2864
    208  CB       -16.6730  -16.3540   -0.5300 C.3   157  LYS157      0.0298
    209  CG       -17.6020  -17.4050   -1.1270 C.3   157  LYS157      0.0038
    210  CD       -18.7570  -17.7310   -0.1920 C.3   157  LYS157      0.0206
    211  CE       -19.7280  -18.7020   -0.8610 C.3   157  LYS157      0.1093
    212  NZ       -20.8430  -19.1730    0.0260 N.3   157  LYS157     -0.1314
@<TRIPOS>BOND
     1    90    89    2
     2    89    88    1
     3    88    87    1
     4    88    91    1
     5    91    92    1
     6    44    43    2
     7    92    93    1
     8    92    94    1
     9    81    80    2
    10    43    42    1
    11    43    53   am
    12    64    63    1
    13    64    65    1
    14    40    39    2
    15    54    53    1
    16    54    55    1
    17    47    49   ar
    18    47    46   ar
    19    42    45    1
    20    42    41    1
    21    63    62    1
    22    80    79    1
    23    49    51   ar
    24    45    46    1
    25   196   195    1
    26    39    41   am
    27    39    38    1
    28    46    48   ar
    29    57    55   am
    30    57    58    1
    31    62    61    1
    32    55    56    2
    33    61    58    1
    34   197   195    1
    35    60    59    2
    36    51    52    1
    37    51    50   ar
    38    79    78    1
    39    79    82    1
    40   195   194    1
    41    38    37    1
    42    58    59    1
    43    83    82    1
    44    83    84    1
    45    36    35    2
    46    48    50   ar
    47    59    66   am
    48   194   191    1
    49    37    35   am
    50    35    34    1
    51    84    85    1
    52    66    67    1
    53   102   103    1
    54    76    75    2
    55    85    86    1
    56    67    68    1
    57    67    70    1
    58    68    69    2
    59    75    74    1
    60    28    25    1
    61    28    29    1
    62    33    34    1
    63    33    26   am
    64   191   190    1
    65   191   192    1
    66     1     2    1
    67     4     3    2
    68    30    29    1
    69    30    31    1
    70   107   108    1
    71   107   109    1
    72   107   106    1
    73     3     2    1
    74   103   106    1
    75   103   104    1
    76    25    26    1
    77    25    24    1
    78     2     5    1
    79    23    22    2
    80    72    70    1
    81    70    71    1
    82    74    73    1
    83    74    77    1
    84    26    27    2
    85    31    32    1
    86   105   104    2
    87   192   198   am
    88   192   193    2
    89   198   199    1
    90   104   110   am
    91   201   200    2
    92    22    24   am
    93    22    21    1
    94     5     6    1
    95    12    13    1
    96   202   199    1
    97   202   203    1
    98   199   200    1
    99   110   111    1
   100   200   204   am
   101    20    21    1
   102    20    14   am
   103     6     7    1
   104    18    17    1
   105    17    16    1
   106    17    19    1
   107   111   112    1
   108   111   114    1
   109    13    16    1
   110    13    14    1
   111   204   205    1
   112    14    15    2
   113   205   206    1
   114   205   208    1
   115   112   113    2
   116   112   119   am
   117   209   208    1
   118   209   210    1
   119   119   120    1
   120     7     8    1
   121   114   115    1
   122    98    97    2
   123   206   207    2
   124   123   120    1
   125   123   124    1
   126   211   210    1
   127   211   212    1
   128   125   124   ar
   129   125   127   ar
   130   120   121    1
   131    97    96    1
   132   100    99    1
   133   101    99    1
   134   188   187   ar
   135   124   126   ar
   136   184   183    1
   137   184   185    2
   138   115   116    1
   139     8     9    2
   140   127   129   ar
   141   183   182    1
   142   183   186    1
   143    99    96    1
   144    11     9    1
   145   182   177   am
   146     9    10    1
   147   126   128   ar
   148    96    95    1
   149   116   118   ar
   150   116   117   ar
   151   187   186    1
   152   187   189   ar
   153   121   122    2
   154   121   131   am
   155   129   128   ar
   156   129   130    1
   157   131   132    1
   158   177   176    1
   159   177   178    2
   160   176   179    1
   161   176   175    1
   162   179   181    1
   163   179   180    1
   164   136   137    1
   165   136   138    1
   166   136   135    1
   167   132   135    1
   168   132   133    1
   169   173   174    1
   170   173   172    1
   171   133   134    2
   172   133   139   am
   173   139   140    1
   174   143   140    1
   175   143   144    1
   176   140   141    1
   177   172   171    1
   178   171   168    1
   179   157   155   ar
   180   161   160    2
   181   141   142    2
   182   160   159    1
   183   168   167    1
   184   168   169    1
   185   155   154    1
   186   155   156   ar
   187   154   153    1
   188   166   164   ar
   189   162   159    1
   190   162   163    1
   191   145   146    1
   192   146   147    1
   193   169   170    2
   194   164   165   ar
   195   164   163    1
   196   159   158    1
   197   148   147    2
   198   147   149   am
   199   149   150    1
   200   153   150    1
   201   150   151    1
   202   151   152    2
