@<TRIPOS>MOLECULE
tmp/3wfdC02.pdb
 83 79 0 0 0
SMALL
GASTEIGER

@<TRIPOS>ATOM
      1  N          9.1390   15.4480   35.2300 N.3   319  MET319     -0.1245
      2  CA         8.6840   14.5490   34.1380 C.3   319  MET319      0.1570
      3  C          9.3060   13.1780   34.2250 C.2   319  MET319      0.2261
      4  O          8.6380   12.2000   33.9140 O.2   319  MET319     -0.2867
      5  CB         9.1710   15.0920   32.8100 C.3   319  MET319      0.0387
      6  CG         8.2570   14.9190   31.6320 C.3   319  MET319      0.0595
      7  SD         7.6150   16.5400   31.1840 S.3   319  MET319     -0.1393
      8  CE         6.2490   16.6590   32.3530 C.3   319  MET319      0.0692
      9  N          8.6790    4.7060   38.4560 N.3   324  PRO324     -0.2102
     10  CA         8.0160    3.9050   37.4240 C.3   324  PRO324      0.1504
     11  C          8.1910    4.5180   36.0560 C.2   324  PRO324      0.2575
     12  O          8.1270    3.8210   35.0780 O.2   324  PRO324     -0.2718
     13  CB         6.5190    3.9250   37.8460 C.3   324  PRO324      0.0282
     14  CG         6.5290    4.2580   39.2970 C.3   324  PRO324      0.0208
     15  CD         7.7360    5.1470   39.5150 C.3   324  PRO324      0.0893
     16  N          8.3930    5.8190   35.9650 N.am  325  VAL325     -0.1980
     17  CA         8.6510    6.3940   34.6340 C.3   325  VAL325      0.1595
     18  C         10.1750    6.2700   34.3010 C.2   325  VAL325      0.2287
     19  O         10.5820    5.8240   33.2150 O.2   325  VAL325     -0.2864
     20  CB         8.2070    7.8770   34.5920 C.3   325  VAL325      0.0276
     21  CG1        8.5800    8.5020   33.2510 C.3   325  VAL325      0.0022
     22  CG2        6.6910    8.0190   34.9080 C.3   325  VAL325      0.0022
     23  N         11.7880    3.3470   32.3960 N.3   328  TYR328     -0.1227
     24  CA        11.8170    3.4180   30.9300 C.3   328  TYR328      0.1736
     25  C         12.7470    4.4620   30.3160 C.2   328  TYR328      0.2596
     26  O         13.2950    4.2160   29.2300 O.2   328  TYR328     -0.2718
     27  CB        10.4030    3.5410   30.3900 C.3   328  TYR328      0.0548
     28  CG         9.6250    2.2760   30.7140 C.ar  328  TYR328     -0.0200
     29  CD1        9.7950    1.1190   29.9290 C.ar  328  TYR328     -0.0009
     30  CD2        8.7200    2.2150   31.8350 C.ar  328  TYR328     -0.0009
     31  CE1        9.1030   -0.0520   30.2160 C.ar  328  TYR328      0.0417
     32  CE2        8.0300    1.0370   32.1300 C.ar  328  TYR328      0.0417
     33  CZ         8.2120   -0.0780   31.3220 C.ar  328  TYR328      0.1957
     34  OH         7.5570   -1.2600   31.5730 O.3   328  TYR328     -0.2866
     35  N         12.9430    5.6050   31.0000 N.am  329  THR329     -0.1953
     36  CA        13.6000    6.7350   30.3690 C.3   329  THR329      0.1897
     37  C         15.0660    6.9000   30.7600 C.2   329  THR329      0.2313
     38  O         15.7560    7.7370   30.1800 O.2   329  THR329     -0.2863
     39  CB        12.8740    8.0520   30.6390 C.3   329  THR329      0.1794
     40  OG1       13.0410    8.4190   32.0170 O.3   329  THR329     -0.2208
     41  CG2       11.3640    7.9730   30.2830 C.3   329  THR329      0.0378
     42  N         16.0070   11.7440   26.5890 N.3   334  LEU334     -0.1245
     43  CA        15.1710   12.5560   27.4540 C.3   334  LEU334      0.1561
     44  C         16.0280   13.1350   28.5960 C.2   334  LEU334      0.2260
     45  O         15.9090   14.3160   28.9920 O.2   334  LEU334     -0.2867
     46  CB        14.0110   11.6790   27.9580 C.3   334  LEU334      0.0270
     47  CG        12.6550   12.2840   28.2660 C.3   334  LEU334      0.0019
     48  CD1       12.2870   11.8150   29.6680 C.3   334  LEU334      0.0001
     49  CD2       12.6700   13.8070   28.2790 C.3   334  LEU334      0.0001
     50  N         11.2610   10.4140   23.4970 N.3   400  VAL400     -0.1245
     51  CA         9.9750    9.6910   23.4560 C.3   400  VAL400      0.1561
     52  C         10.0150    8.5640   22.4370 C.2   400  VAL400      0.2260
     53  O          9.6310    7.4330   22.7590 O.2   400  VAL400     -0.2867
     54  CB         8.7350   10.6380   23.2520 C.3   400  VAL400      0.0252
     55  CG1        7.4680    9.8430   23.0350 C.3   400  VAL400      0.0019
     56  CG2        8.5520   11.5250   24.4880 C.3   400  VAL400      0.0019
     57  N         12.2710    5.7160   23.6110 N.3   403  VAL403     -0.1245
     58  CA        11.6470    4.8730   24.6200 C.3   403  VAL403      0.1561
     59  C         10.5750    3.9250   24.0450 C.2   403  VAL403      0.2260
     60  O         10.4840    2.7090   24.3820 O.2   403  VAL403     -0.2867
     61  CB        11.0220    5.7820   25.6940 C.3   403  VAL403      0.0252
     62  CG1       10.1460    4.9620   26.6520 C.3   403  VAL403      0.0019
     63  CG2       12.1360    6.5450   26.4210 C.3   403  VAL403      0.0019
     64  N         10.0860    0.1520   25.6070 N.3   408  MET408     -0.1231
     65  CA         8.7470   -0.4930   25.8790 C.3   408  MET408      0.1687
     66  C          8.4730   -1.9060   25.3290 C.2   408  MET408      0.2434
     67  O          7.8340   -2.7070   26.0020 O.2   408  MET408     -0.2733
     68  CB         7.5580    0.3850   25.4070 C.3   408  MET408      0.0400
     69  CG         7.7960    1.8830   25.4290 C.3   408  MET408      0.0596
     70  SD         6.6140    2.8010   26.4020 S.3   408  MET408     -0.1393
     71  CE         5.0040    2.3400   25.6960 C.3   408  MET408      0.0692
     72  N          8.8970   -2.2060   24.0800 N.am  409  PRO409     -0.2718
     73  CA         8.5020   -3.5600   23.6470 C.3   409  PRO409      0.1535
     74  C          9.3280   -4.6610   24.3140 C.2   409  PRO409      0.2598
     75  O         10.3780   -4.3810   24.8860 O.2   409  PRO409     -0.2715
     76  CB         8.7020   -3.5230   22.1210 C.3   409  PRO409      0.0310
     77  CG         8.6740   -2.0740   21.7430 C.3   409  PRO409      0.0237
     78  CD         9.3070   -1.3440   22.9410 C.3   409  PRO409      0.0939
     79  N          8.8380   -5.8920   24.2650 N.am  410  ALA410     -0.1978
     80  CA         9.5840   -7.0860   24.6900 C.3   410  ALA410      0.1597
     81  C         10.7510   -7.4840   23.7530 C.2   410  ALA410      0.2287
     82  O         10.8170   -7.1010   22.5560 O.2   410  ALA410     -0.2864
     83  CB         8.6080   -8.2640   24.8070 C.3   410  ALA410      0.0319
@<TRIPOS>BOND
     1    77    76    1
     2    77    78    1
     3    76    73    1
     4    52    53    2
     5    52    51    1
     6    82    81    2
     7    78    72    1
     8    55    54    1
     9    54    51    1
    10    54    56    1
    11    51    50    1
    12    57    58    1
    13    73    72    1
    14    73    74    1
    15    81    80    1
    16    59    60    2
    17    59    58    1
    18    72    66   am
    19    79    74   am
    20    79    80    1
    21    74    75    2
    22    58    61    1
    23    80    83    1
    24    66    65    1
    25    66    67    2
    26    68    69    1
    27    68    65    1
    28    69    70    1
    29    64    65    1
    30    61    63    1
    31    61    62    1
    32    71    70    1
    33    42    43    1
    34    43    46    1
    35    43    44    1
    36    46    47    1
    37    47    49    1
    38    47    48    1
    39    44    45    2
    40    26    25    2
    41    29    31   ar
    42    29    28   ar
    43    38    37    2
    44    31    33   ar
    45    41    39    1
    46    25    24    1
    47    25    35   am
    48    36    39    1
    49    36    37    1
    50    36    35    1
    51    27    28    1
    52    27    24    1
    53    39    40    1
    54    28    30   ar
    55    24    23    1
    56     7     6    1
    57     7     8    1
    58    33    34    1
    59    33    32   ar
    60     6     5    1
    61    30    32   ar
    62     5     2    1
    63    19    18    2
    64    21    20    1
    65     4     3    2
    66     2     3    1
    67     2     1    1
    68    18    17    1
    69    20    17    1
    70    20    22    1
    71    17    16    1
    72    12    11    2
    73    16    11   am
    74    11    10    1
    75    10    13    1
    76    10     9    1
    77    13    14    1
    78     9    15    1
    79    14    15    1
