@<TRIPOS>MOLECULE
tmp/3wfdC00.pdb
 245 234 0 0 0
SMALL
GASTEIGER

@<TRIPOS>ATOM
      1  N         32.7820   29.5940   27.1840 N.3    18  PHE18      -0.1241
      2  CA        31.3890   29.3700   26.7590 C.3    18  PHE18       0.1605
      3  C         31.3320   29.1620   25.2270 C.2    18  PHE18       0.2264
      4  O         30.7810   28.1260   24.7200 O.2    18  PHE18      -0.2867
      5  CB        30.5500   30.5660   27.2330 C.3    18  PHE18       0.0534
      6  CG        29.0500   30.3920   27.1140 C.ar   18  PHE18      -0.0203
      7  CD1       28.4730   29.1580   26.8330 C.ar   18  PHE18      -0.0042
      8  CD2       28.2140   31.4860   27.3120 C.ar   18  PHE18      -0.0042
      9  CE1       27.0870   29.0350   26.7280 C.ar   18  PHE18      -0.0003
     10  CE2       26.8280   31.3660   27.2230 C.ar   18  PHE18      -0.0003
     11  CZ        26.2610   30.1370   26.9390 C.ar   18  PHE18      -0.0000
     12  N         32.7710   25.8260   24.4240 N.3    21  GLN21      -0.1231
     13  CA        31.8140   24.7910   24.7640 C.3    21  GLN21       0.1698
     14  C         30.7910   24.5900   23.6540 C.2    21  GLN21       0.2592
     15  O         30.4920   23.4410   23.3080 O.2    21  GLN21      -0.2718
     16  CB        31.1350   25.0800   26.0890 C.3    21  GLN21       0.0381
     17  CG        30.1400   24.0160   26.5130 C.3    21  GLN21       0.0905
     18  CD        28.8950   24.5780   27.1920 C.2    21  GLN21       0.2608
     19  OE1       27.9180   23.8620   27.3770 O.2    21  GLN21      -0.2717
     20  NE2       28.9200   25.8400   27.5510 N.am   21  GLN21      -0.0878
     21  N         30.2840   25.6800   23.0640 N.am   22  ILE22      -0.1980
     22  CA        29.2860   25.5710   21.9770 C.3    22  ILE22       0.1595
     23  C         29.8500   24.9030   20.7070 C.2    22  ILE22       0.2287
     24  O         29.2340   23.9750   20.1520 O.2    22  ILE22      -0.2864
     25  CB        28.5890   26.9190   21.6550 C.3    22  ILE22       0.0276
     26  CG1       27.9570   27.5240   22.9150 C.3    22  ILE22       0.0022
     27  CG2       27.5310   26.7290   20.5580 C.3    22  ILE22       0.0022
     28  CD1       27.0570   26.5800   23.7230 C.3    22  ILE22       0.0001
     29  N         29.9340   21.2280   21.3280 N.3    25  GLY25      -0.1210
     30  CA        28.5750   20.7420   21.1850 C.3    25  GLY25       0.1956
     31  C         28.2320   20.5650   19.7110 C.2    25  GLY25       0.2611
     32  O         27.8050   19.4830   19.2630 O.2    25  GLY25      -0.2717
     33  N         28.4500   21.6030   18.9210 N.am   26  LEU26      -0.1979
     34  CA        28.1220   21.5150   17.5060 C.3    26  LEU26       0.1596
     35  C         28.8600   20.3570   16.8120 C.2    26  LEU26       0.2287
     36  O         28.2960   19.6970   15.9550 O.2    26  LEU26      -0.2864
     37  CB        28.3220   22.8580   16.8100 C.3    26  LEU26       0.0297
     38  CG        27.1960   23.8610   17.1030 C.3    26  LEU26       0.0022
     39  CD1       27.6400   25.2580   16.7260 C.3    26  LEU26       0.0001
     40  CD2       25.9600   23.4810   16.3000 C.3    26  LEU26       0.0001
     41  N         29.8360   17.3710   18.2340 N.3    28  MET28      -0.1230
     42  CA        29.1390   16.1540   18.6490 C.3    28  MET28       0.1702
     43  C         27.7840   16.0500   17.9990 C.2    28  MET28       0.2592
     44  O         27.3680   14.9600   17.6150 O.2    28  MET28      -0.2718
     45  CB        28.9200   16.1210   20.1570 C.3    28  MET28       0.0401
     46  CG        30.1610   15.8620   20.9800 C.3    28  MET28       0.0596
     47  SD        29.7250   15.5290   22.7100 S.3    28  MET28      -0.1393
     48  CE        29.0900   17.1160   23.2320 C.3    28  MET28       0.0692
     49  N         27.0810   17.1750   17.8670 N.am   29  GLY29      -0.1957
     50  CA        25.7490   17.1350   17.2770 C.3    29  GLY29       0.1869
     51  C         25.7990   16.6440   15.8410 C.2    29  GLY29       0.2309
     52  O         24.8820   15.9890   15.3990 O.2    29  GLY29      -0.2863
     53  N         26.5790   12.7410   15.8470 N.3    32  TYR32      -0.1241
     54  CA        25.3550   11.9520   15.9560 C.3    32  TYR32       0.1605
     55  C         24.8200   11.4530   14.6090 C.2    32  TYR32       0.2264
     56  O         24.3680   10.3120   14.5280 O.2    32  TYR32      -0.2867
     57  CB        24.2560   12.7550   16.6550 C.3    32  TYR32       0.0534
     58  CG        24.0690   12.4950   18.1400 C.ar   32  TYR32      -0.0201
     59  CD1       25.1460   12.4800   19.0300 C.ar   32  TYR32      -0.0009
     60  CD2       22.7760   12.3460   18.6720 C.ar   32  TYR32      -0.0009
     61  CE1       24.9510   12.2950   20.4050 C.ar   32  TYR32       0.0417
     62  CE2       22.5770   12.1740   20.0350 C.ar   32  TYR32       0.0417
     63  CZ        23.6740   12.1140   20.8800 C.ar   32  TYR32       0.1957
     64  OH        23.4510   11.9350   22.2250 O.3    32  TYR32      -0.2866
     65  N         34.2020   11.1040   19.3440 N.3    44  PHE44      -0.1241
     66  CA        33.0560   11.6680   20.0620 C.3    44  PHE44       0.1605
     67  C         33.3090   11.8710   21.5410 C.2    44  PHE44       0.2264
     68  O         33.0320   12.9370   22.0500 O.2    44  PHE44      -0.2867
     69  CB        31.8170   10.7850   19.8720 C.3    44  PHE44       0.0534
     70  CG        30.6180   11.2380   20.6710 C.ar   44  PHE44      -0.0203
     71  CD1       29.6850   12.1330   20.1170 C.ar   44  PHE44      -0.0042
     72  CD2       30.4230   10.7880   21.9930 C.ar   44  PHE44      -0.0042
     73  CE1       28.5690   12.5440   20.8670 C.ar   44  PHE44      -0.0003
     74  CE2       29.3200   11.2240   22.7550 C.ar   44  PHE44      -0.0003
     75  CZ        28.3860   12.0840   22.2020 C.ar   44  PHE44      -0.0000
     76  N         33.3460   15.2620   23.7120 N.3    48  ARG48      -0.1245
     77  CA        32.3480   15.3280   24.7500 C.3    48  ARG48       0.1563
     78  C         32.9720   15.8170   26.0360 C.2    48  ARG48       0.2260
     79  O         32.4170   16.7090   26.6790 O.2    48  ARG48      -0.2867
     80  CB        31.6460   13.9710   24.9440 C.3    48  ARG48       0.0307
     81  CG        30.4260   14.0650   25.8660 C.3    48  ARG48       0.0489
     82  CD        30.0680   12.7140   26.5040 C.3    48  ARG48       0.2205
     83  NE        28.6450   12.6540   26.8280 N.pl3  48  ARG48      -0.0865
     84  CZ        28.1430   12.8610   28.0540 C.cat  48  ARG48       0.5346
     85  NH1       28.9600   13.1130   29.0550 N.pl3  48  ARG48       0.1354
     86  NH2       26.8260   12.7830   28.2710 N.pl3  48  ARG48       0.1354
     87  N         33.4710   19.5310   25.7160 N.3    51  HIS51      -0.1226
     88  CA        32.1570   20.1950   25.8610 C.3    51  HIS51       0.1752
     89  C         31.7330   20.2520   27.3240 C.2    51  HIS51       0.2596
     90  O         31.4220   21.3390   27.8120 O.2    51  HIS51      -0.2718
     91  CB        31.1180   19.4400   25.0620 C.3    51  HIS51       0.0759
     92  CG        29.7140   19.9650   25.1590 C.ar   51  HIS51       0.0818
     93  ND1       29.2950   21.1050   24.5040 N.ar   51  HIS51      -0.2268
     94  CD2       28.6030   19.4430   25.7400 C.ar   51  HIS51       0.1154
     95  CE1       27.9910   21.2670   24.6850 C.ar   51  HIS51       0.1986
     96  NE2       27.5480   20.2830   25.4470 N.ar   51  HIS51      -0.2212
     97  N         31.7680   19.1250   28.0400 N.am   52  THR52      -0.1953
     98  CA        31.2270   19.1140   29.4170 C.3    52  THR52       0.1897
     99  C         32.1890   19.6880   30.4550 C.2    52  THR52       0.2313
    100  O         31.7340   20.3280   31.4130 O.2    52  THR52      -0.2863
    101  CB        30.7640   17.7190   29.8650 C.3    52  THR52       0.1794
    102  OG1       31.9030   16.8700   29.9220 O.3    52  THR52      -0.2208
    103  CG2       29.7130   17.0890   28.8740 C.3    52  THR52       0.0378
    104  N         32.0130   23.4480   30.1510 N.3    55  LEU55      -0.1245
    105  CA        30.7710   23.9320   30.8150 C.3    55  LEU55       0.1561
    106  C         30.9850   24.1140   32.2970 C.2    55  LEU55       0.2260
    107  O         30.7260   25.2000   32.8530 O.2    55  LEU55      -0.2867
    108  CB        29.5770   23.0010   30.5690 C.3    55  LEU55       0.0270
    109  CG        28.0780   23.3070   30.8630 C.3    55  LEU55       0.0019
    110  CD1       27.4420   22.2530   31.7640 C.3    55  LEU55       0.0001
    111  CD2       27.7790   24.7210   31.3310 C.3    55  LEU55       0.0001
    112  N         32.4560   10.1780   34.4090 N.3   126  GLU126     -0.1231
    113  CA        31.7550   11.2480   33.7030 C.3   126  GLU126      0.1699
    114  C         31.9070   12.5530   34.4590 C.2   126  GLU126      0.2592
    115  O         31.7060   12.5920   35.6740 O.2   126  GLU126     -0.2718
    116  CB        30.2530   10.9120   33.4810 C.3   126  GLU126      0.0402
    117  CG        29.5530   11.9360   32.5990 C.3   126  GLU126      0.1161
    118  CD        28.1410   11.5120   32.1350 C.2   126  GLU126      0.3649
    119  OE1       27.7090   12.0760   31.0980 O.co2 126  GLU126     -0.2457
    120  OE2       27.4510   10.6470   32.7760 O.co2 126  GLU126     -0.2457
    121  N         32.2640   13.6100   33.7220 N.am  127  PHE127     -0.1976
    122  CA        32.4250   14.9790   34.2420 C.3   127  PHE127      0.1639
    123  C         33.6840   15.0760   35.0760 C.2   127  PHE127      0.2290
    124  O         34.0660   16.1680   35.5360 O.2   127  PHE127     -0.2864
    125  CB        31.2190   15.4820   35.0490 C.3   127  PHE127      0.0560
    126  CG        29.8980   15.3330   34.3460 C.ar  127  PHE127     -0.0200
    127  CD1       29.7690   15.6070   32.9690 C.ar  127  PHE127     -0.0042
    128  CD2       28.7580   14.9680   35.0580 C.ar  127  PHE127     -0.0042
    129  CE1       28.5470   15.4620   32.3000 C.ar  127  PHE127     -0.0003
    130  CE2       27.5110   14.8430   34.3970 C.ar  127  PHE127     -0.0003
    131  CZ        27.4080   15.0960   33.0140 C.ar  127  PHE127     -0.0000
    132  N         17.7160    9.9080   25.4030 N.3   333  GLN333     -0.1245
    133  CA        17.7850   11.2970   24.9260 C.3   333  GLN333      0.1566
    134  C         16.9460   12.2720   25.8230 C.2   333  GLN333      0.2260
    135  O         17.1510   13.4880   25.8210 O.2   333  GLN333     -0.2867
    136  CB        17.3250   11.3770   23.4860 C.3   333  GLN333      0.0367
    137  CG        18.3190   10.8040   22.4830 C.3   333  GLN333      0.0905
    138  CD        19.6940   11.4480   22.6070 C.2   333  GLN333      0.2608
    139  OE1       19.8100   12.6750   22.6160 O.2   333  GLN333     -0.2717
    140  NE2       20.7410   10.6170   22.7550 N.am  333  GLN333     -0.0878
    141  N         16.9780   12.3220   29.0440 N.3   335  THR335     -0.1203
    142  CA        17.9800   12.7690   30.0080 C.3   335  THR335      0.1994
    143  C         18.7880   13.9400   29.4630 C.2   335  THR335      0.2617
    144  O         18.8800   14.9840   30.1290 O.2   335  THR335     -0.2717
    145  CB        18.9020   11.6080   30.4200 C.3   335  THR335      0.1784
    146  OG1       18.0920   10.5090   30.8570 O.3   335  THR335     -0.2211
    147  CG2       19.8080   12.0270   31.5310 C.3   335  THR335      0.0376
    148  N         19.3600   13.7920   28.2620 N.am  336  ALA336     -0.1979
    149  CA        20.1060   14.8880   27.6170 C.3   336  ALA336      0.1597
    150  C         19.2400   16.1520   27.4730 C.2   336  ALA336      0.2287
    151  O         19.7700   17.2860   27.6450 O.2   336  ALA336     -0.2864
    152  CB        20.6200   14.4550   26.2500 C.3   336  ALA336      0.0319
    153  N         18.9340   17.6520   30.9390 N.3   339  GLY339     -0.1210
    154  CA        20.2400   18.1760   31.3510 C.3   339  GLY339      0.1956
    155  C         20.6190   19.5010   30.7210 C.2   339  GLY339      0.2611
    156  O         21.1400   20.3960   31.4170 O.2   339  GLY339     -0.2717
    157  N         20.3580   19.6460   29.4100 N.am  340  HIS340     -0.1975
    158  CA        20.6260   20.9000   28.7010 C.3   340  HIS340      0.1656
    159  C         19.8050   22.0600   29.2300 C.2   340  HIS340      0.2291
    160  O         20.3550   23.1140   29.5300 O.2   340  HIS340     -0.2864
    161  CB        20.4030   20.7160   27.1820 C.3   340  HIS340      0.0771
    162  CG        21.6160   20.1940   26.4880 C.ar  340  HIS340      0.0820
    163  ND1       21.9670   18.8630   26.5150 N.ar  340  HIS340     -0.2267
    164  CD2       22.6260   20.8390   25.8750 C.ar  340  HIS340      0.1154
    165  CE1       23.1180   18.7080   25.9010 C.ar  340  HIS340      0.1986
    166  NE2       23.5430   19.8950   25.5120 N.ar  340  HIS340     -0.2212
    167  N         20.7510   22.9350   33.0410 N.3   343  PHE343     -0.1227
    168  CA        22.0720   23.5610   33.2150 C.3   343  PHE343      0.1736
    169  C         22.0910   24.9770   32.6390 C.2   343  PHE343      0.2595
    170  O         22.7180   25.8850   33.2450 O.2   343  PHE343     -0.2718
    171  CB        23.2040   22.7270   32.6040 C.3   343  PHE343      0.0547
    172  CG        24.1060   22.0570   33.6420 C.ar  343  PHE343     -0.0202
    173  CD1       24.9460   22.8070   34.4640 C.ar  343  PHE343     -0.0042
    174  CD2       24.1660   20.6750   33.7540 C.ar  343  PHE343     -0.0042
    175  CE1       25.7840   22.1800   35.3890 C.ar  343  PHE343     -0.0003
    176  CE2       25.0300   20.0480   34.6620 C.ar  343  PHE343     -0.0003
    177  CZ        25.8420   20.7980   35.4710 C.ar  343  PHE343     -0.0000
    178  N         21.3950   25.1600   31.5000 N.am  344  TYR344     -0.1976
    179  CA        21.3230   26.4670   30.8590 C.3   344  TYR344      0.1639
    180  C         20.4460   27.4250   31.6520 C.2   344  TYR344      0.2290
    181  O         20.8630   28.5470   31.9120 O.2   344  TYR344     -0.2864
    182  CB        20.8860   26.4210   29.3650 C.3   344  TYR344      0.0560
    183  CG        20.6050   27.8220   28.7870 C.ar  344  TYR344     -0.0198
    184  CD1       21.6590   28.6810   28.3540 C.ar  344  TYR344     -0.0009
    185  CD2       19.2900   28.2950   28.6910 C.ar  344  TYR344     -0.0009
    186  CE1       21.3760   29.9620   27.8850 C.ar  344  TYR344      0.0417
    187  CE2       19.0060   29.5590   28.2000 C.ar  344  TYR344      0.0417
    188  CZ        20.0320   30.3870   27.8030 C.ar  344  TYR344      0.1957
    189  OH        19.6680   31.6380   27.3480 O.3   344  TYR344     -0.2866
    190  N         23.9450   28.7270   33.4540 N.3   348  ALA348     -0.1245
    191  CA        24.4440   29.6510   32.4240 C.3   348  ALA348      0.1562
    192  C         23.7070   31.0020   32.5730 C.2   348  ALA348      0.2260
    193  O         24.3390   32.0590   32.6610 O.2   348  ALA348     -0.2867
    194  CB        24.2820   29.0600   30.9920 C.3   348  ALA348      0.0290
    195  N         17.5680   27.1290   22.9010 N.3   388  MET388     -0.1245
    196  CA        17.6140   26.1260   23.9660 C.3   388  MET388      0.1570
    197  C         16.2500   25.4720   24.1980 C.2   388  MET388      0.2261
    198  O         16.2070   24.2430   24.3310 O.2   388  MET388     -0.2867
    199  CB        18.2480   26.6770   25.2540 C.3   388  MET388      0.0387
    200  CG        18.5170   25.6330   26.3210 C.3   388  MET388      0.0595
    201  SD        19.3840   24.1840   25.6710 S.3   388  MET388     -0.1393
    202  CE        21.0930   24.7090   25.7500 C.3   388  MET388      0.0692
    203  N         16.1690   23.0720   21.2760 N.3   391  ILE391     -0.1245
    204  CA        17.0630   21.9610   21.5980 C.3   391  ILE391      0.1561
    205  C         16.3480   20.9670   22.5300 C.2   391  ILE391      0.2260
    206  O         16.3360   19.7590   22.2720 O.2   391  ILE391     -0.2867
    207  CB        18.3830   22.4290   22.2350 C.3   391  ILE391      0.0252
    208  CG1       19.3370   22.9610   21.1520 C.3   391  ILE391      0.0019
    209  CG2       19.0690   21.2660   22.9420 C.3   391  ILE391      0.0019
    210  CD1       20.5200   23.6880   21.7510 C.3   391  ILE391      0.0001
    211  N         17.9140   19.4430   16.1460 N.3   431  ARG431     -0.1231
    212  CA        18.7300   19.8530   17.2950 C.3   431  ARG431      0.1694
    213  C         19.9860   20.5650   16.8070 C.2   431  ARG431      0.2591
    214  O         20.3010   21.6350   17.2800 O.2   431  ARG431     -0.2718
    215  CB        19.1090   18.6790   18.2300 C.3   431  ARG431      0.0321
    216  CG        19.9210   19.1190   19.4940 C.3   431  ARG431      0.0489
    217  CD        21.4760   19.0580   19.4060 C.3   431  ARG431      0.2205
    218  NE        21.9050   17.7010   19.0860 N.pl3 431  ARG431     -0.0865
    219  CZ        22.1200   16.7220   19.9760 C.cat 431  ARG431      0.5346
    220  NH1       22.0650   16.9360   21.2990 N.pl3 431  ARG431      0.1354
    221  NH2       22.4310   15.5080   19.5230 N.pl3 431  ARG431      0.1354
    222  N         20.7030   19.9680   15.8630 N.am  432  GLU432     -0.1979
    223  CA        21.8730   20.6240   15.2730 C.3   432  GLU432      0.1602
    224  C         21.5760   22.0470   14.7410 C.2   432  GLU432      0.2287
    225  O         22.2470   22.9950   15.1500 O.2   432  GLU432     -0.2864
    226  CB        22.5140   19.7450   14.1850 C.3   432  GLU432      0.0415
    227  CG        23.8700   20.2530   13.7010 C.3   432  GLU432      0.1163
    228  CD        24.9770   20.1940   14.7510 C.2   432  GLU432      0.3649
    229  OE1       24.7210   19.9070   15.9550 O.co2 432  GLU432     -0.2457
    230  OE2       26.1330   20.4320   14.3530 O.co2 432  GLU432     -0.2457
    231  N         21.1070   24.2960   17.4610 N.3   435  GLY435     -0.1225
    232  CA        22.4100   24.5550   18.0570 C.3   435  GLY435      0.1811
    233  C         23.0700   25.6860   17.3030 C.2   435  GLY435      0.2280
    234  O         23.7680   26.4750   17.8820 O.2   435  GLY435     -0.2866
    235  N         21.6320   28.9330   18.4360 N.3   438  PHE438     -0.1241
    236  CA        22.1920   29.2300   19.7330 C.3   438  PHE438      0.1605
    237  C         23.5410   29.9530   19.6470 C.2   438  PHE438      0.2264
    238  O         23.7480   30.9610   20.3220 O.2   438  PHE438     -0.2867
    239  CB        22.3100   27.9740   20.5850 C.3   438  PHE438      0.0534
    240  CG        22.5900   28.2610   22.0220 C.ar  438  PHE438     -0.0203
    241  CD1       23.9010   28.5060   22.4590 C.ar  438  PHE438     -0.0042
    242  CD2       21.5410   28.3200   22.9540 C.ar  438  PHE438     -0.0042
    243  CE1       24.1590   28.7520   23.8060 C.ar  438  PHE438     -0.0003
    244  CE2       21.8080   28.5790   24.3210 C.ar  438  PHE438     -0.0003
    245  CZ        23.1150   28.8010   24.7370 C.ar  438  PHE438     -0.0000
@<TRIPOS>BOND
     1   227   226    1
     2   227   228    1
     3   226   223    1
     4   230   228   ar
     5    56    55    2
     6    55    54    1
     7   224   225    2
     8   224   223    1
     9   228   229   ar
    10   223   222    1
    11    52    51    2
    12    51    50    1
    13    53    54    1
    14   222   213   am
    15    36    35    2
    16    54    57    1
    17   211   212    1
    18    40    38    1
    19    57    58    1
    20    39    38    1
    21   213   214    2
    22   213   212    1
    23    37    38    1
    24    37    34    1
    25    35    34    1
    26    50    49    1
    27   212   215    1
    28   233   234    2
    29   233   232    1
    30   231   232    1
    31    34    33    1
    32    44    43    2
    33    49    43   am
    34    43    42    1
    35    58    60   ar
    36    58    59   ar
    37   215   216    1
    38    41    42    1
    39   235   236    1
    40    42    45    1
    41    60    62   ar
    42    33    31   am
    43    59    61   ar
    44   218   217    1
    45   218   219    2
    46    32    31    2
    47    65    66    1
    48   217   216    1
    49   221   219    1
    50   237   236    1
    51   237   238    2
    52    31    30    1
    53   236   239    1
    54    69    66    1
    55    69    70    1
    56   219   220    1
    57    62    63   ar
    58    66    67    1
    59    71    70   ar
    60    71    73   ar
    61    24    23    2
    62    45    46    1
    63    61    63   ar
    64    27    25    1
    65   239   240    1
    66    70    72   ar
    67    23    22    1
    68    73    75   ar
    69    63    64    1
    70    46    47    1
    71   208   210    1
    72   208   207    1
    73    30    29    1
    74   203   204    1
    75    67    68    2
    76   204   207    1
    77   204   205    1
    78    25    22    1
    79    25    26    1
    80    22    21    1
    81    72    74   ar
    82   240   241   ar
    83   240   242   ar
    84    75    74   ar
    85   207   209    1
    86   206   205    2
    87   241   243   ar
    88   137   138    1
    89   137   136    1
    90   138   139    2
    91   138   140   am
    92    47    48    1
    93   195   196    1
    94    26    28    1
    95   242   244   ar
    96    21    14   am
    97    15    14    2
    98   136   133    1
    99    14    13    1
   100    76    77    1
   101   243   245   ar
   102   196   197    1
   103   196   199    1
   104   197   198    2
   105   244   245   ar
   106    12    13    1
   107    93    95   ar
   108    93    92   ar
   109    95    96   ar
   110     4     3    2
   111    77    80    1
   112    77    78    1
   113    13    16    1
   114   133   132    1
   115   133   134    1
   116    80    81    1
   117    91    92    1
   118    91    88    1
   119    92    94   ar
   120     3     2    1
   121   199   200    1
   122    96    94   ar
   123   166   164   ar
   124   166   165   ar
   125   201   202    1
   126   201   200    1
   127    87    88    1
   128   135   134    2
   129    88    89    1
   130    81    82    1
   131   164   162   ar
   132   165   163   ar
   133    78    79    2
   134    16    17    1
   135   152   149    1
   136   162   163   ar
   137   162   161    1
   138    82    83    1
   139    17    18    1
   140     9     7   ar
   141     9    11   ar
   142     2     1    1
   143     2     5    1
   144    83    84    2
   145     7     6   ar
   146    11    10   ar
   147     6     5    1
   148     6     8   ar
   149   161   158    1
   150    18    19    2
   151    18    20   am
   152    10     8   ar
   153    89    90    2
   154    89    97   am
   155   189   188    1
   156   150   149    1
   157   150   151    2
   158   149   148    1
   159   188   186   ar
   160   188   187   ar
   161   186   184   ar
   162    97    98    1
   163    84    86    1
   164    84    85    1
   165   187   185   ar
   166   148   143   am
   167   184   183   ar
   168   185   183   ar
   169   158   159    1
   170   158   157    1
   171   183   182    1
   172   103   101    1
   173   141   142    1
   174   159   160    2
   175   182   179    1
   176   157   155   am
   177    98   101    1
   178    98    99    1
   179   143   142    1
   180   143   144    2
   181   101   102    1
   182   142   145    1
   183   104   105    1
   184   145   146    1
   185   145   147    1
   186    99   100    2
   187   108   105    1
   188   108   109    1
   189   155   154    1
   190   155   156    2
   191   105   106    1
   192   179   178    1
   193   179   180    1
   194   109   111    1
   195   109   110    1
   196   153   154    1
   197   194   191    1
   198   119   118   ar
   199   178   169   am
   200   180   181    2
   201   118   117    1
   202   118   120   ar
   203   106   107    2
   204   129   127   ar
   205   129   131   ar
   206   191   192    1
   207   191   190    1
   208   192   193    2
   209   117   116    1
   210   171   168    1
   211   171   172    1
   212   169   168    1
   213   169   170    2
   214   127   126   ar
   215   131   130   ar
   216   167   168    1
   217   116   113    1
   218   172   174   ar
   219   172   173   ar
   220   113   112    1
   221   113   114    1
   222   121   122    1
   223   121   114   am
   224   174   176   ar
   225   122   125    1
   226   122   123    1
   227   126   125    1
   228   126   128   ar
   229   130   128   ar
   230   114   115    2
   231   173   175   ar
   232   176   177   ar
   233   123   124    2
   234   175   177   ar
