@<TRIPOS>MOLECULE
tmp/3wfdC03.pdb
 93 95 0 0 0
SMALL
GASTEIGER

@<TRIPOS>ATOM
      1  N         18.5690    2.4370   39.9350 N.3   253  TRP253     -0.1241
      2  CA        18.9840    1.2640   39.1730 C.3   253  TRP253      0.1605
      3  C         20.4790    1.0010   39.2600 C.2   253  TRP253      0.2264
      4  O         21.0150    0.2230   38.4640 O.2   253  TRP253     -0.2867
      5  CB        18.5730    1.4300   37.6920 C.3   253  TRP253      0.0550
      6  CG        17.2650    2.1960   37.4760 C.ar  253  TRP253      0.0003
      7  CD1       17.0970    3.4030   36.8390 C.ar  253  TRP253      0.0946
      8  CD2       15.9620    1.7850   37.8840 C.ar  253  TRP253      0.0152
      9  NE1       15.7610    3.7750   36.8330 N.ar  253  TRP253     -0.2442
     10  CE2       15.0450    2.8050   37.4830 C.ar  253  TRP253      0.0810
     11  CE3       15.4700    0.6590   38.5490 C.ar  253  TRP253      0.0012
     12  CZ2       13.6890    2.7520   37.7840 C.ar  253  TRP253      0.0191
     13  CZ3       14.0980    0.5940   38.8200 C.ar  253  TRP253      0.0001
     14  CH2       13.2280    1.6430   38.4460 C.ar  253  TRP253      0.0015
     15  N         13.8660    3.6740   45.6550 N.3   261  LEU261     -0.1231
     16  CA        12.7620    3.8680   44.7290 C.3   261  LEU261      0.1693
     17  C         11.7030    4.7770   45.3510 C.2   261  LEU261      0.2592
     18  O         11.2320    5.6930   44.6940 O.2   261  LEU261     -0.2718
     19  CB        12.1690    2.5180   44.3150 C.3   261  LEU261      0.0284
     20  CG        13.1660    1.5550   43.6360 C.3   261  LEU261      0.0019
     21  CD1       12.6090    0.1300   43.6140 C.3   261  LEU261      0.0001
     22  CD2       13.5290    2.0210   42.2350 C.3   261  LEU261      0.0001
     23  N         11.3360    4.5200   46.6110 N.am  262  TRP262     -0.1976
     24  CA        10.3430    5.3520   47.3230 C.3   262  TRP262      0.1640
     25  C         10.9170    6.6910   47.7460 C.2   262  TRP262      0.2290
     26  O         10.4060    7.7620   47.3610 O.2   262  TRP262     -0.2864
     27  CB         9.7410    4.5940   48.5110 C.3   262  TRP262      0.0576
     28  CG         8.8910    3.4320   48.0470 C.ar  262  TRP262      0.0006
     29  CD1        9.2880    2.1120   47.8850 C.ar  262  TRP262      0.0946
     30  CD2        7.5250    3.4950   47.6260 C.ar  262  TRP262      0.0152
     31  NE1        8.2340    1.3580   47.4020 N.ar  262  TRP262     -0.2442
     32  CE2        7.1420    2.1760   47.2350 C.ar  262  TRP262      0.0810
     33  CE3        6.5780    4.5320   47.5530 C.ar  262  TRP262      0.0012
     34  CZ2        5.8430    1.8700   46.7780 C.ar  262  TRP262      0.0191
     35  CZ3        5.2910    4.2290   47.0900 C.ar  262  TRP262      0.0001
     36  CH2        4.9360    2.9000   46.7120 C.ar  262  TRP262      0.0015
     37  N         11.8530    8.9370   44.6600 N.3   265  SER265     -0.1202
     38  CA        10.6870    9.5060   43.9920 C.3   265  SER265      0.2020
     39  C          9.9290   10.5420   44.8330 C.2   265  SER265      0.2618
     40  O          9.5210   11.5950   44.3230 O.2   265  SER265     -0.2717
     41  CB         9.6890    8.4250   43.5870 C.3   265  SER265      0.2103
     42  OG        10.2670    7.4120   42.8240 O.3   265  SER265     -0.2182
     43  N          9.6970   10.2470   46.1040 N.am  266  VAL266     -0.1979
     44  CA         8.8660   11.1740   46.8950 C.3   266  VAL266      0.1595
     45  C          9.5570   12.4920   47.1800 C.2   266  VAL266      0.2287
     46  O          8.9690   13.5650   46.9740 O.2   266  VAL266     -0.2864
     47  CB         8.2450   10.5130   48.1470 C.3   266  VAL266      0.0276
     48  CG1        7.4410   11.5280   48.9340 C.3   266  VAL266      0.0022
     49  CG2        7.3520    9.3340   47.7170 C.3   266  VAL266      0.0022
     50  N         10.0560   10.2130   38.7510 N.3   322  LEU322     -0.1231
     51  CA         9.3720    9.1420   39.4010 C.3   322  LEU322      0.1693
     52  C          9.8110    7.7930   38.8540 C.2   322  LEU322      0.2592
     53  O          9.8010    7.5450   37.6240 O.2   322  LEU322     -0.2718
     54  CB         7.8520    9.3340   39.2320 C.3   322  LEU322      0.0284
     55  CG         7.2080   10.6610   39.7310 C.3   322  LEU322      0.0019
     56  CD1        5.7400   10.7500   39.3160 C.3   322  LEU322      0.0001
     57  CD2        7.3760   10.8920   41.2250 C.3   322  LEU322      0.0001
     58  N         10.1510    6.8830   39.7650 N.am  323  ALA323     -0.1966
     59  CA        10.7790    5.6320   39.3720 C.3   323  ALA323      0.1713
     60  C         10.0050    4.8440   38.2990 C.2   323  ALA323      0.2458
     61  O         10.5960    4.3540   37.3390 O.2   323  ALA323     -0.2730
     62  CB        11.0850    4.7670   40.5870 C.3   323  ALA323      0.0333
     63  N          8.6790    4.7060   38.4560 N.am  324  PRO324     -0.2727
     64  CA         8.0160    3.9050   37.4240 C.3   324  PRO324      0.1402
     65  C          8.1910    4.5180   36.0560 C.2   324  PRO324      0.2269
     66  O          8.1270    3.8210   35.0780 O.2   324  PRO324     -0.2865
     67  CB         6.5190    3.9250   37.8460 C.3   324  PRO324      0.0296
     68  CG         6.5290    4.2580   39.2970 C.3   324  PRO324      0.0237
     69  CD         7.7360    5.1470   39.5150 C.3   324  PRO324      0.0939
     70  N         12.2450    4.2280   35.0120 N.3   327  TYR327     -0.1227
     71  CA        12.5900    2.8680   34.6210 C.3   327  TYR327      0.1736
     72  C         12.7570    2.7660   33.1070 C.2   327  TYR327      0.2595
     73  O         13.7270    2.1590   32.6000 O.2   327  TYR327     -0.2718
     74  CB        11.4900    1.9210   35.0630 C.3   327  TYR327      0.0548
     75  CG        11.7860    0.4610   34.7820 C.ar  327  TYR327     -0.0200
     76  CD1       12.7360   -0.2360   35.5440 C.ar  327  TYR327     -0.0009
     77  CD2       11.1110   -0.2330   33.7590 C.ar  327  TYR327     -0.0009
     78  CE1       13.0110   -1.5730   35.3000 C.ar  327  TYR327      0.0417
     79  CE2       11.3570   -1.5810   33.5190 C.ar  327  TYR327      0.0417
     80  CZ        12.3190   -2.2440   34.2790 C.ar  327  TYR327      0.1957
     81  OH        12.5890   -3.5840   34.0410 O.3   327  TYR327     -0.2866
     82  N         11.7880    3.3470   32.3960 N.am  328  TYR328     -0.1976
     83  CA        11.8170    3.4180   30.9300 C.3   328  TYR328      0.1639
     84  C         12.7470    4.4620   30.3160 C.2   328  TYR328      0.2290
     85  O         13.2950    4.2160   29.2300 O.2   328  TYR328     -0.2864
     86  CB        10.4030    3.5410   30.3900 C.3   328  TYR328      0.0560
     87  CG         9.6250    2.2760   30.7140 C.ar  328  TYR328     -0.0198
     88  CD1        9.7950    1.1190   29.9290 C.ar  328  TYR328     -0.0009
     89  CD2        8.7200    2.2150   31.8350 C.ar  328  TYR328     -0.0009
     90  CE1        9.1030   -0.0520   30.2160 C.ar  328  TYR328      0.0417
     91  CE2        8.0300    1.0370   32.1300 C.ar  328  TYR328      0.0417
     92  CZ         8.2120   -0.0780   31.3220 C.ar  328  TYR328      0.1957
     93  OH         7.5570   -1.2600   31.5730 O.3   328  TYR328     -0.2866
@<TRIPOS>BOND
     1    85    84    2
     2    88    90   ar
     3    88    87   ar
     4    90    92   ar
     5    84    83    1
     6    86    87    1
     7    86    83    1
     8    87    89   ar
     9    83    82    1
    10    92    93    1
    11    92    91   ar
    12    89    91   ar
    13    82    72   am
    14    73    72    2
    15    72    71    1
    16    79    77   ar
    17    79    80   ar
    18    77    75   ar
    19    81    80    1
    20    80    78   ar
    21    71    70    1
    22    71    74    1
    23    75    74    1
    24    75    76   ar
    25    66    65    2
    26    78    76   ar
    27    65    64    1
    28     9     7   ar
    29     9    10   ar
    30     7     6   ar
    31    61    60    2
    32    64    67    1
    33    64    63    1
    34     6     5    1
    35     6     8   ar
    36    10    12   ar
    37    10     8   ar
    38    53    52    2
    39     5     2    1
    40    12    14   ar
    41    67    68    1
    42     8    11   ar
    43    60    63   am
    44    60    59    1
    45    14    13   ar
    46    63    69    1
    47     4     3    2
    48    11    13   ar
    49    50    51    1
    50    52    51    1
    51    52    58   am
    52     2     3    1
    53     2     1    1
    54    54    51    1
    55    54    55    1
    56    68    69    1
    57    56    55    1
    58    59    58    1
    59    59    62    1
    60    55    57    1
    61    22    20    1
    62    42    41    1
    63    41    38    1
    64    21    20    1
    65    20    19    1
    66    38    37    1
    67    38    39    1
    68    19    16    1
    69    40    39    2
    70    18    17    2
    71    16    17    1
    72    16    15    1
    73    39    43   am
    74    17    23   am
    75    43    44    1
    76    23    24    1
    77    36    34   ar
    78    36    35   ar
    79    34    32   ar
    80    44    45    1
    81    44    47    1
    82    46    45    2
    83    35    33   ar
    84    32    31   ar
    85    32    30   ar
    86    24    25    1
    87    24    27    1
    88    26    25    2
    89    31    29   ar
    90    33    30   ar
    91    30    28   ar
    92    49    47    1
    93    29    28   ar
    94    28    27    1
    95    47    48    1
