@<TRIPOS>MOLECULE
tmp/3wffA00.pdb
 208 194 0 0 0
SMALL
GASTEIGER

@<TRIPOS>ATOM
      1  N         -1.9760   -0.6760   59.1080 N.3    40  LEU40      -0.1245
      2  CA        -0.5510   -0.4210   58.9160 C.3    40  LEU40       0.1561
      3  C         -0.0450   -1.0950   57.6400 C.2    40  LEU40       0.2260
      4  O          0.7860   -0.5310   56.9120 O.2    40  LEU40      -0.2867
      5  CB         0.2710   -0.8750   60.1340 C.3    40  LEU40       0.0270
      6  CG         0.0280   -0.0940   61.4200 C.3    40  LEU40       0.0019
      7  CD1        0.7820   -0.7340   62.5990 C.3    40  LEU40       0.0001
      8  CD2        0.3780    1.3780   61.2680 C.3    40  LEU40       0.0001
      9  N         -1.2150    1.1840   54.9250 N.3    43  LEU43      -0.1231
     10  CA        -0.3770    2.3820   54.8900 C.3    43  LEU43       0.1693
     11  C          0.9770    2.0940   54.2600 C.2    43  LEU43       0.2592
     12  O          1.4740    2.8710   53.4580 O.2    43  LEU43      -0.2718
     13  CB        -0.1850    2.9600   56.2990 C.3    43  LEU43       0.0284
     14  CG        -1.3940    3.6650   56.8840 C.3    43  LEU43       0.0019
     15  CD1       -1.2080    3.9530   58.3610 C.3    43  LEU43       0.0001
     16  CD2       -1.6440    4.9740   56.1380 C.3    43  LEU43       0.0001
     17  N          1.5650    0.9710   54.6120 N.am   44  ASN44      -0.1974
     18  CA         2.8560    0.6040   54.0710 C.3    44  ASN44       0.1688
     19  C          2.7900    0.3460   52.5550 C.2    44  ASN44       0.2292
     20  O          3.6490    0.8050   51.8230 O.2    44  ASN44      -0.2864
     21  CB         3.4320   -0.5830   54.8320 C.3    44  ASN44       0.1181
     22  CG         3.7990   -0.2060   56.2610 C.2    44  ASN44       0.2629
     23  OD1        3.9660    0.9670   56.5480 O.2    44  ASN44      -0.2716
     24  ND2        3.8770   -1.1820   57.1570 N.am   44  ASN44      -0.0877
     25  N          0.5370    1.5640   50.4650 N.3    46  LEU46      -0.1231
     26  CA         0.3430    2.9070   49.9510 C.3    46  LEU46       0.1693
     27  C          1.6610    3.6800   49.9000 C.2    46  LEU46       0.2591
     28  O          2.0120    4.2490   48.8580 O.2    46  LEU46      -0.2718
     29  CB        -0.6590    3.6670   50.8050 C.3    46  LEU46       0.0284
     30  CG        -0.8390    5.1390   50.4600 C.3    46  LEU46       0.0019
     31  CD1       -1.3630    5.3170   49.0240 C.3    46  LEU46       0.0001
     32  CD2       -1.8010    5.7690   51.4420 C.3    46  LEU46       0.0001
     33  N          2.3890    3.6880   51.0110 N.am   47  ALA47      -0.1980
     34  CA         3.6270    4.4400   51.0680 C.3    47  ALA47       0.1597
     35  C          4.6640    3.9160   50.0720 C.2    47  ALA47       0.2287
     36  O          5.4720    4.6780   49.5980 O.2    47  ALA47      -0.2864
     37  CB         4.1950    4.4360   52.4600 C.3    47  ALA47       0.0319
     38  N          3.6610    5.4410   46.8680 N.3    50  GLN50      -0.1245
     39  CA         3.9610    6.8590   46.8670 C.3    50  GLN50       0.1566
     40  C          5.4690    7.0860   46.7060 C.2    50  GLN50       0.2260
     41  O          5.8830    8.0420   46.0480 O.2    50  GLN50      -0.2867
     42  CB         3.4430    7.5250   48.1280 C.3    50  GLN50       0.0367
     43  CG         1.9270    7.6210   48.1840 C.3    50  GLN50       0.0905
     44  CD         1.4350    7.8620   49.6030 C.2    50  GLN50       0.2608
     45  OE1        2.0770    7.4380   50.5680 O.2    50  GLN50      -0.2717
     46  NE2        0.3170    8.5670   49.7380 N.am   50  GLN50      -0.0878
     47  N         12.3210   10.1450   53.4860 N.3    80  TRP80      -0.1227
     48  CA        11.0860    9.5850   52.9300 C.3    80  TRP80       0.1737
     49  C          9.8540    9.8440   53.7980 C.2    80  TRP80       0.2595
     50  O          8.8070   10.2520   53.3110 O.2    80  TRP80      -0.2718
     51  CB        11.2380    8.1010   52.6310 C.3    80  TRP80       0.0564
     52  CG        11.2790    7.2280   53.7960 C.ar   80  TRP80       0.0003
     53  CD1       12.3310    7.0200   54.6350 C.ar   80  TRP80       0.0946
     54  CD2       10.2250    6.4150   54.2590 C.ar   80  TRP80       0.0152
     55  NE1       12.0000    6.1120   55.5860 N.ar   80  TRP80      -0.2442
     56  CE2       10.7020    5.7260   55.3860 C.ar   80  TRP80       0.0810
     57  CE3        8.9090    6.2020   53.8350 C.ar   80  TRP80       0.0012
     58  CZ2        9.9200    4.8360   56.0900 C.ar   80  TRP80       0.0191
     59  CZ3        8.1350    5.3080   54.5290 C.ar   80  TRP80       0.0001
     60  CH2        8.6430    4.6350   55.6470 C.ar   80  TRP80       0.0015
     61  N          9.9960    9.6860   55.0960 N.am   81  MET81      -0.1979
     62  CA         8.8560    9.8950   55.9670 C.3    81  MET81       0.1605
     63  C          8.4800   11.3790   56.0700 C.2    81  MET81       0.2287
     64  O          7.3000   11.7120   56.1780 O.2    81  MET81      -0.2864
     65  CB         9.1500    9.3130   57.3460 C.3    81  MET81       0.0413
     66  CG         7.9590    9.3380   58.2930 C.3    81  MET81       0.0598
     67  SD         6.5800    8.2660   57.8610 S.3    81  MET81      -0.1393
     68  CE         7.2990    6.7050   58.3630 C.3    81  MET81       0.0692
     69  N          6.4770   12.0010   52.7550 N.3    84  LEU84      -0.1231
     70  CA         5.1160   11.4380   52.8580 C.3    84  LEU84       0.1693
     71  C          4.2400   12.1820   53.8900 C.2    84  LEU84       0.2592
     72  O          3.0760   12.4340   53.6550 O.2    84  LEU84      -0.2718
     73  CB         5.1730    9.9470   53.1850 C.3    84  LEU84       0.0284
     74  CG         5.8880    9.0580   52.1660 C.3    84  LEU84       0.0019
     75  CD1        5.9110    7.6470   52.6620 C.3    84  LEU84       0.0001
     76  CD2        5.2750    9.1160   50.7730 C.3    84  LEU84       0.0001
     77  N          4.8130   12.5710   55.0180 N.am   85  SER85      -0.1952
     78  CA         4.0570   13.3010   56.0230 C.3    85  SER85       0.1924
     79  C          3.6090   14.6650   55.5460 C.2    85  SER85       0.2314
     80  O          2.4860   15.0930   55.8000 O.2    85  SER85      -0.2863
     81  CB         4.9130   13.4850   57.2800 C.3    85  SER85       0.2116
     82  OG         5.1460   12.2140   57.8450 O.3    85  SER85      -0.2180
     83  N          0.9740   14.2530   52.9810 N.3    88  LEU88      -0.1245
     84  CA        -0.2380   13.9000   53.7180 C.3    88  LEU88       0.1561
     85  C         -0.9070   15.1370   54.2930 C.2    88  LEU88       0.2260
     86  O         -2.1290   15.3090   54.1600 O.2    88  LEU88      -0.2867
     87  CB         0.0870   12.8830   54.8190 C.3    88  LEU88       0.0270
     88  CG        -0.9880   12.5910   55.8680 C.3    88  LEU88       0.0019
     89  CD1       -2.1660   11.8510   55.2320 C.3    88  LEU88       0.0001
     90  CD2       -0.3410   11.7650   56.9620 C.3    88  LEU88       0.0001
     91  N         -2.5540   17.1430   51.4870 N.3    91  ARG91      -0.1245
     92  CA        -3.7950   16.5240   51.0170 C.3    91  ARG91       0.1563
     93  C         -4.8910   16.6950   52.0550 C.2    91  ARG91       0.2260
     94  O         -6.0430   16.9250   51.7300 O.2    91  ARG91      -0.2867
     95  CB        -3.6000   15.0360   50.7550 C.3    91  ARG91       0.0307
     96  CG        -2.9820   14.7260   49.4120 C.3    91  ARG91       0.0489
     97  CD        -3.0850   13.2310   49.0940 C.3    91  ARG91       0.2205
     98  NE        -2.4410   12.3690   50.0850 N.pl3  91  ARG91      -0.0865
     99  CZ        -1.1340   12.1340   50.1750 C.cat  91  ARG91       0.5346
    100  NH1       -0.2810   12.7380   49.3670 N.pl3  91  ARG91       0.1354
    101  NH2       -0.6670   11.3110   51.1070 N.pl3  91  ARG91       0.1354
    102  N         -7.0730   12.9790   58.2670 N.3   101  LEU101     -0.1245
    103  CA        -5.8190   12.6550   57.6090 C.3   101  LEU101      0.1561
    104  C         -6.1250   11.9420   56.2960 C.2   101  LEU101      0.2260
    105  O         -6.4860   10.7760   56.2690 O.2   101  LEU101     -0.2867
    106  CB        -4.9130   11.8090   58.5010 C.3   101  LEU101      0.0270
    107  CG        -4.2830   12.5440   59.6820 C.3   101  LEU101      0.0019
    108  CD1       -3.5070   11.5710   60.5630 C.3   101  LEU101      0.0001
    109  CD2       -3.3800   13.6670   59.1810 C.3   101  LEU101      0.0001
    110  N         -4.8890   10.1470   53.6390 N.3   103  PHE103     -0.1241
    111  CA        -3.7510    9.4170   53.1220 C.3   103  PHE103      0.1605
    112  C         -3.8940    9.1790   51.6040 C.2   103  PHE103      0.2264
    113  O         -2.9160    9.2140   50.8870 O.2   103  PHE103     -0.2867
    114  CB        -3.5740    8.0900   53.8420 C.3   103  PHE103      0.0534
    115  CG        -3.0920    8.2220   55.2670 C.ar  103  PHE103     -0.0203
    116  CD1       -1.7480    8.2650   55.5410 C.ar  103  PHE103     -0.0042
    117  CD2       -3.9880    8.3010   56.3120 C.ar  103  PHE103     -0.0042
    118  CE1       -1.3000    8.3880   56.8280 C.ar  103  PHE103     -0.0003
    119  CE2       -3.5490    8.4300   57.6090 C.ar  103  PHE103     -0.0003
    120  CZ        -2.2090    8.4690   57.8730 C.ar  103  PHE103     -0.0000
    121  N         -1.3890    4.2460   66.2290 N.3   119  MET119     -0.1245
    122  CA        -0.5390    5.4060   66.3000 C.3   119  MET119      0.1570
    123  C         -1.3640    6.6440   66.4780 C.2   119  MET119      0.2261
    124  O         -1.2160    7.6380   65.7690 O.2   119  MET119     -0.2867
    125  CB         0.4740    5.4900   65.1340 C.3   119  MET119      0.0387
    126  CG        -0.0120    5.0640   63.7900 C.3   119  MET119      0.0595
    127  SD         1.3170    5.0470   62.5320 S.3   119  MET119     -0.1393
    128  CE         0.2190    5.0960   61.1580 C.3   119  MET119      0.0692
    129  N          0.7310    9.8790   67.3090 N.3   122  LEU122     -0.1231
    130  CA         1.4620   10.2840   66.1120 C.3   122  LEU122      0.1693
    131  C          0.5690   10.9020   65.0470 C.2   122  LEU122      0.2592
    132  O          0.9400   11.8840   64.4200 O.2   122  LEU122     -0.2718
    133  CB         2.2340    9.1190   65.5250 C.3   122  LEU122      0.0284
    134  CG         3.3030    8.5530   66.4570 C.3   122  LEU122      0.0019
    135  CD1        4.0370    7.4040   65.7990 C.3   122  LEU122      0.0001
    136  CD2        4.2540    9.6240   66.9650 C.3   122  LEU122      0.0001
    137  N         -0.5910   10.3090   64.8130 N.am  123  CYS123     -0.1970
    138  CA        -1.5860   10.8740   63.8830 C.3   123  CYS123      0.1712
    139  C         -2.1220   12.2190   64.3700 C.2   123  CYS123      0.2296
    140  O         -2.2990   13.1600   63.5750 O.2   123  CYS123     -0.2864
    141  CB        -2.7470    9.9060   63.6830 C.3   123  CYS123      0.0983
    142  SG        -2.3110    8.4490   62.6920 S.3   123  CYS123     -0.0798
    143  N          0.4960   14.8150   63.6590 N.3   126  MET126     -0.1245
    144  CA         0.4490   15.1450   62.2350 C.3   126  MET126      0.1570
    145  C         -0.7680   15.9770   61.8710 C.2   126  MET126      0.2261
    146  O         -0.6870   16.9230   61.0800 O.2   126  MET126     -0.2867
    147  CB         0.4400   13.8740   61.4120 C.3   126  MET126      0.0387
    148  CG         0.2670   14.1000   59.9370 C.3   126  MET126      0.0595
    149  SD         1.8600   14.3660   59.1610 S.3   126  MET126     -0.1393
    150  CE         2.5540   15.8360   59.8590 C.3   126  MET126      0.0692
    151  N          7.5270    9.0310   64.1450 N.3   212  LEU212     -0.1245
    152  CA         6.9310    8.1730   63.1210 C.3   212  LEU212      0.1561
    153  C          7.9060    7.0940   62.7170 C.2   212  LEU212      0.2260
    154  O          7.5620    5.9330   62.7030 O.2   212  LEU212     -0.2867
    155  CB         6.4810    8.9870   61.9040 C.3   212  LEU212      0.0270
    156  CG         5.1990    9.7930   62.1250 C.3   212  LEU212      0.0019
    157  CD1        5.0400   10.8220   61.0170 C.3   212  LEU212      0.0001
    158  CD2        3.9650    8.8920   62.2080 C.3   212  LEU212      0.0001
    159  N          8.3670    4.2210   65.2960 N.3   215  PHE215     -0.1227
    160  CA         7.3180    3.2300   65.2630 C.3   215  PHE215      0.1736
    161  C          7.4830    2.3690   64.0240 C.2   215  PHE215      0.2595
    162  O          7.2630    1.1590   64.0640 O.2   215  PHE215     -0.2718
    163  CB         5.9630    3.8940   65.2660 C.3   215  PHE215      0.0547
    164  CG         4.8180    2.9390   65.4100 C.ar  215  PHE215     -0.0202
    165  CD1        4.8320    1.9510   66.3760 C.ar  215  PHE215     -0.0042
    166  CD2        3.7200    3.0350   64.5660 C.ar  215  PHE215     -0.0042
    167  CE1        3.7710    1.0730   66.5110 C.ar  215  PHE215     -0.0003
    168  CE2        2.6400    2.1730   64.7110 C.ar  215  PHE215     -0.0003
    169  CZ         2.6710    1.1930   65.6720 C.ar  215  PHE215     -0.0000
    170  N          7.9000    2.9900   62.9250 N.am  216  CYS216     -0.1970
    171  CA         8.0220    2.2470   61.6770 C.3   216  CYS216      0.1712
    172  C          9.1450    1.2430   61.7790 C.2   216  CYS216      0.2296
    173  O          9.0090    0.1110   61.3240 O.2   216  CYS216     -0.2864
    174  CB         8.2460    3.2140   60.5330 C.3   216  CYS216      0.0983
    175  SG         8.1560    2.3990   58.9620 S.3   216  CYS216     -0.0798
    176  N          7.8780   -1.7320   64.0100 N.3   219  THR219     -0.1218
    177  CA         6.9690   -2.6550   63.3400 C.3   219  THR219      0.1862
    178  C          7.7090   -3.4110   62.2140 C.2   219  THR219      0.2287
    179  O          7.3890   -4.5680   61.9240 O.2   219  THR219     -0.2866
    180  CB         5.7080   -1.9680   62.7760 C.3   219  THR219      0.1770
    181  OG1        6.0980   -1.0580   61.7520 O.3   219  THR219     -0.2211
    182  CG2        4.9380   -1.1960   63.8660 C.3   219  THR219      0.0375
    183  N          2.5180   -7.1770   60.1610 N.3   228  VAL228     -0.1245
    184  CA         2.5040   -5.8980   59.4930 C.3   228  VAL228      0.1561
    185  C          3.3470   -6.0470   58.2250 C.2   228  VAL228      0.2260
    186  O          4.5490   -6.2910   58.3030 O.2   228  VAL228     -0.2867
    187  CB         3.0150   -4.7780   60.4090 C.3   228  VAL228      0.0252
    188  CG1        3.1730   -3.4690   59.6250 C.3   228  VAL228      0.0019
    189  CG2        2.0490   -4.6160   61.5900 C.3   228  VAL228      0.0019
    190  N          5.2660   -5.0460   54.8180 N.3   230  PHE230     -0.1241
    191  CA         5.9890   -3.9720   54.1290 C.3   230  PHE230      0.1605
    192  C          6.2550   -4.3960   52.6810 C.2   230  PHE230      0.2264
    193  O          6.6830   -5.5040   52.4480 O.2   230  PHE230     -0.2867
    194  CB         7.3290   -3.7240   54.8130 C.3   230  PHE230      0.0534
    195  CG         7.2120   -3.0360   56.1480 C.ar  230  PHE230     -0.0203
    196  CD1        6.9050   -3.7570   57.2820 C.ar  230  PHE230     -0.0042
    197  CD2        7.3940   -1.6680   56.2530 C.ar  230  PHE230     -0.0042
    198  CE1        6.8050   -3.1280   58.5040 C.ar  230  PHE230     -0.0003
    199  CE2        7.2790   -1.0250   57.4860 C.ar  230  PHE230     -0.0003
    200  CZ         7.0010   -1.7600   58.6030 C.ar  230  PHE230     -0.0000
    201  N          9.7520   -0.2220   50.7350 N.3   234  LEU234     -0.1245
    202  CA         9.9910    0.1410   52.1530 C.3   234  LEU234      0.1561
    203  C         10.9920   -0.7700   52.8450 C.2   234  LEU234      0.2260
    204  O         11.7680   -0.3070   53.6790 O.2   234  LEU234     -0.2867
    205  CB         8.7000    0.1850   52.9500 C.3   234  LEU234      0.0270
    206  CG         7.6650    1.2550   52.5800 C.3   234  LEU234      0.0019
    207  CD1        6.7100    1.4150   53.7540 C.3   234  LEU234      0.0001
    208  CD2        8.2760    2.5970   52.2290 C.3   234  LEU234      0.0001
@<TRIPOS>BOND
     1    41    40    2
     2    40    39    1
     3    39    38    1
     4    39    42    1
     5    42    43    1
     6    43    44    1
     7    28    27    2
     8    31    30    1
     9    97    96    1
    10    97    98    1
    11   100    99    1
    12    96    95    1
    13    36    35    2
    14    44    46   am
    15    44    45    2
    16    27    26    1
    17    27    33   am
    18    26    25    1
    19    26    29    1
    20    35    34    1
    21    98    99    2
    22    99   101    1
    23    30    29    1
    24    30    32    1
    25   201   202    1
    26    95    92    1
    27    76    74    1
    28   113   112    2
    29    33    34    1
    30    92    91    1
    31    92    93    1
    32    34    37    1
    33   112   111    1
    34    94    93    2
    35    20    19    2
    36   202   203    1
    37   202   205    1
    38    74    75    1
    39    74    73    1
    40   208   206    1
    41   193   192    2
    42    19    18    1
    43   206   205    1
    44   206   207    1
    45    51    48    1
    46    51    52    1
    47   192   191    1
    48    69    70    1
    49   203   204    2
    50    70    73    1
    51    70    71    1
    52    48    47    1
    53    48    49    1
    54    83    84    1
    55   111   110    1
    56   111   114    1
    57    50    49    2
    58    12    11    2
    59    72    71    2
    60    84    85    1
    61    84    87    1
    62    52    54   ar
    63    52    53   ar
    64    49    61   am
    65    57    54   ar
    66    57    59   ar
    67   114   115    1
    68    71    77   am
    69    18    17    1
    70    18    21    1
    71   191   194    1
    72   191   190    1
    73    86    85    2
    74    54    56   ar
    75    11    17   am
    76    11    10    1
    77    59    60   ar
    78    53    55   ar
    79   194   195    1
    80    87    88    1
    81    21    22    1
    82    10     9    1
    83    10    13    1
    84    77    78    1
    85    61    62    1
    86    89    88    1
    87   115   116   ar
    88   115   117   ar
    89    56    55   ar
    90    56    58   ar
    91   116   118   ar
    92    79    80    2
    93    79    78    1
    94    60    58   ar
    95    88    90    1
    96    62    63    1
    97    62    65    1
    98    78    81    1
    99    63    64    2
   100    16    14    1
   101   195   197   ar
   102   195   196   ar
   103   197   199   ar
   104    22    23    2
   105    22    24   am
   106   105   104    2
   107   104   103    1
   108    13    14    1
   109   117   119   ar
   110   118   120   ar
   111    14    15    1
   112     4     3    2
   113    81    82    1
   114   196   198   ar
   115    65    66    1
   116   199   200   ar
   117   103   102    1
   118   103   106    1
   119   119   120   ar
   120     3     2    1
   121    67    66    1
   122    67    68    1
   123   185   186    2
   124   185   184    1
   125   106   107    1
   126   198   200   ar
   127     2     1    1
   128     2     5    1
   129   175   174    1
   130   149   150    1
   131   149   148    1
   132   109   107    1
   133   184   183    1
   134   184   187    1
   135   188   187    1
   136   107   108    1
   137   148   147    1
   138     5     6    1
   139   187   189    1
   140   174   171    1
   141   157   156    1
   142   146   145    2
   143   128   127    1
   144     8     6    1
   145   173   172    2
   146   147   144    1
   147     6     7    1
   148   171   172    1
   149   171   170    1
   150   181   180    1
   151   145   144    1
   152   155   156    1
   153   155   152    1
   154   179   178    2
   155   156   158    1
   156   178   177    1
   157   144   143    1
   158   127   126    1
   159   142   141    1
   160   154   153    2
   161   153   152    1
   162   180   177    1
   163   180   182    1
   164   170   161   am
   165   152   151    1
   166   177   176    1
   167   140   139    2
   168   141   138    1
   169   126   125    1
   170   138   139    1
   171   138   137    1
   172   161   162    2
   173   161   160    1
   174   132   131    2
   175   166   168   ar
   176   166   164   ar
   177   168   169   ar
   178   137   131   am
   179   131   130    1
   180   125   122    1
   181   160   163    1
   182   160   159    1
   183   163   164    1
   184   164   165   ar
   185   133   130    1
   186   133   134    1
   187   169   167   ar
   188   124   123    2
   189   135   134    1
   190   130   129    1
   191   121   122    1
   192   122   123    1
   193   165   167   ar
   194   134   136    1
