@<TRIPOS>MOLECULE
tmp/3wflA01.pdb
 116 114 0 0 0
SMALL
GASTEIGER

@<TRIPOS>ATOM
      1  N         26.8540   82.9200    4.5880 N.3    54  TRP54      -0.1241
      2  CA        25.9520   83.8900    3.9150 C.3    54  TRP54       0.1605
      3  C         25.1960   83.2030    2.8100 C.2    54  TRP54       0.2264
      4  O         25.7460   82.5640    1.9210 O.2    54  TRP54      -0.2867
      5  CB        26.7410   85.0760    3.3750 C.3    54  TRP54       0.0550
      6  CG        27.3530   86.0180    4.3070 C.ar   54  TRP54       0.0003
      7  CD1       28.1150   87.0600    3.9130 C.ar   54  TRP54       0.0946
      8  CD2       27.2510   86.1180    5.7580 C.ar   54  TRP54       0.0152
      9  NE1       28.4740   87.8390    4.9990 N.ar   54  TRP54      -0.2442
     10  CE2       27.9460   87.3010    6.1440 C.ar   54  TRP54       0.0810
     11  CE3       26.6460   85.3490    6.7780 C.ar   54  TRP54       0.0012
     12  CZ2       28.0860   87.6760    7.4490 C.ar   54  TRP54       0.0191
     13  CZ3       26.8210   85.7460    8.0950 C.ar   54  TRP54       0.0001
     14  CH2       27.5050   86.9290    8.4170 C.ar   54  TRP54       0.0015
     15  N         22.3030   91.0490    4.2180 N.3   110  ASN110     -0.1240
     16  CA        23.1120   91.6950    5.1850 C.3   110  ASN110      0.1653
     17  C         22.5080   92.9920    5.6670 C.2   110  ASN110      0.2266
     18  O         22.0360   93.7680    4.8630 O.2   110  ASN110     -0.2867
     19  CB        24.5070   91.9710    4.6240 C.3   110  ASN110      0.1155
     20  CG        25.5880   91.9630    5.6910 C.2   110  ASN110      0.2627
     21  OD1       25.3360   91.8840    6.8770 O.2   110  ASN110     -0.2716
     22  ND2       26.8160   92.0410    5.2480 N.am  110  ASN110     -0.0877
     23  N         24.6730   95.1040    6.7120 N.3   112  TRP112     -0.1241
     24  CA        25.7900   95.9390    6.3190 C.3   112  TRP112      0.1605
     25  C         25.9960   95.9710    4.8180 C.2   112  TRP112      0.2264
     26  O         25.4010   95.1540    4.0840 O.2   112  TRP112     -0.2867
     27  CB        27.0530   95.4470    7.0330 C.3   112  TRP112      0.0550
     28  CG        26.8630   95.2680    8.4940 C.ar  112  TRP112      0.0003
     29  CD1       26.8800   94.0590    9.1510 C.ar  112  TRP112      0.0946
     30  CD2       26.5490   96.2540    9.4950 C.ar  112  TRP112      0.0152
     31  NE1       26.6010   94.2350   10.4570 N.ar  112  TRP112     -0.2442
     32  CE2       26.4160   95.5640   10.7300 C.ar  112  TRP112      0.0810
     33  CE3       26.3840   97.6190    9.4590 C.ar  112  TRP112      0.0012
     34  CZ2       26.1360   96.2510   11.8940 C.ar  112  TRP112      0.0191
     35  CZ3       26.1420   98.2810   10.6010 C.ar  112  TRP112      0.0001
     36  CH2       25.9740   97.5750   11.7970 C.ar  112  TRP112      0.0015
     37  N         28.6020   95.0310    3.1630 N.3   114  ASP114     -0.1239
     38  CA        29.4110   93.9740    2.6440 C.3   114  ASP114      0.1674
     39  C         28.5310   92.9880    1.9010 C.2   114  ASP114      0.2266
     40  O         27.5330   92.4870    2.4480 O.2   114  ASP114     -0.2867
     41  CB        30.1400   93.2590    3.7970 C.3   114  ASP114      0.1410
     42  CG        30.8610   94.1660    4.6830 C.2   114  ASP114      0.3668
     43  OD1       31.7910   94.8650    4.1520 O.co2 114  ASP114     -0.2456
     44  OD2       30.4350   94.4640    5.7940 O.co2 114  ASP114     -0.2456
     45  N         21.6660   89.0230    8.4190 N.3   166  ASN166     -0.1225
     46  CA        22.8300   89.1860    9.2870 C.3   166  ASN166      0.1785
     47  C         22.7780   90.5290    9.9760 C.2   166  ASN166      0.2597
     48  O         22.8690   91.5790    9.3840 O.2   166  ASN166     -0.2718
     49  CB        24.1180   89.0980    8.5010 C.3   166  ASN166      0.1169
     50  CG        25.3040   89.2460    9.4080 C.2   166  ASN166      0.2627
     51  OD1       25.3760   88.5950   10.4460 O.2   166  ASN166     -0.2716
     52  ND2       26.2080   90.1970    9.1100 N.am  166  ASN166     -0.0877
     53  N         22.5950   90.4910   11.3150 N.am  167  GLU167     -0.1979
     54  CA        22.6750   91.6830   12.1990 C.3   167  GLU167      0.1602
     55  C         21.7540   92.8260   11.7980 C.2   167  GLU167      0.2287
     56  O         22.1190   93.9850   11.7830 O.2   167  GLU167     -0.2864
     57  CB        24.1320   92.1370   12.2520 C.3   167  GLU167      0.0415
     58  CG        25.0730   91.0510   12.7780 C.3   167  GLU167      0.1163
     59  CD        26.4580   91.4440   13.1180 C.2   167  GLU167      0.3649
     60  OE1       27.0400   92.3890   12.5210 O.co2 167  GLU167     -0.2457
     61  OE2       27.0340   90.8880   14.1030 O.co2 167  GLU167     -0.2457
     62  N         30.8210   91.4550   20.5400 N.3   242  TYR242     -0.1241
     63  CA        32.0550   92.2070   20.1570 C.3   242  TYR242      0.1605
     64  C         32.3710   93.3670   21.0770 C.2   242  TYR242      0.2264
     65  O         32.0890   94.4940   20.7070 O.2   242  TYR242     -0.2867
     66  CB        32.0310   92.6640   18.7290 C.3   242  TYR242      0.0534
     67  CG        31.8820   91.5300   17.7100 C.ar  242  TYR242     -0.0201
     68  CD1       33.0030   90.8110   17.2900 C.ar  242  TYR242     -0.0009
     69  CD2       30.6550   91.1030   17.1300 C.ar  242  TYR242     -0.0009
     70  CE1       32.9330   89.7640   16.3680 C.ar  242  TYR242      0.0417
     71  CE2       30.6190   90.0820   16.2550 C.ar  242  TYR242      0.0417
     72  CZ        31.7160   89.4090   15.8720 C.ar  242  TYR242      0.1957
     73  OH        31.6350   88.4290   14.9460 O.3   242  TYR242     -0.2866
     74  N         27.6380   84.6740   17.0780 N.3   275  GLU275     -0.1245
     75  CA        28.9700   85.2240   16.6900 C.3   275  GLU275      0.1567
     76  C         29.6020   85.7380   17.9790 C.2   275  GLU275      0.2260
     77  O         28.9540   86.3760   18.8020 O.2   275  GLU275     -0.2867
     78  CB        28.9210   86.4240   15.7630 C.3   275  GLU275      0.0388
     79  CG        28.3340   86.2370   14.4230 C.3   275  GLU275      0.1160
     80  CD        28.4100   87.4430   13.5210 C.2   275  GLU275      0.3649
     81  OE1       29.2200   88.3560   13.8540 O.co2 275  GLU275     -0.2457
     82  OE2       27.7330   87.5320   12.4750 O.co2 275  GLU275     -0.2457
     83  N         33.0820   83.5280   15.6160 N.3   305  TRP305     -0.1241
     84  CA        33.3950   84.2520   14.3830 C.3   305  TRP305      0.1605
     85  C         34.9170   84.3510   14.3290 C.2   305  TRP305      0.2264
     86  O         35.4970   84.9760   15.2380 O.2   305  TRP305     -0.2867
     87  CB        32.7680   85.6170   14.3690 C.3   305  TRP305      0.0550
     88  CG        33.0580   86.3450   13.1100 C.ar  305  TRP305      0.0003
     89  CD1       34.1830   87.0750   12.8160 C.ar  305  TRP305      0.0946
     90  CD2       32.2770   86.3390   11.8880 C.ar  305  TRP305      0.0152
     91  NE1       34.1390   87.5510   11.5170 N.ar  305  TRP305     -0.2442
     92  CE2       32.9660   87.1260   10.9330 C.ar  305  TRP305      0.0810
     93  CE3       31.0620   85.8220   11.5570 C.ar  305  TRP305      0.0012
     94  CZ2       32.4650   87.3410    9.6750 C.ar  305  TRP305      0.0191
     95  CZ3       30.5620   86.0400   10.2940 C.ar  305  TRP305      0.0001
     96  CH2       31.2490   86.7850    9.3410 C.ar  305  TRP305      0.0015
     97  N         40.0680   88.6620    9.1420 N.3   319  ASP319     -0.1239
     98  CA        39.5810   89.9700    9.5850 C.3   319  ASP319      0.1674
     99  C         40.0890   90.2350   10.9800 C.2   319  ASP319      0.2266
    100  O         39.5440   91.1410   11.6760 O.2   319  ASP319     -0.2867
    101  CB        38.1170   90.1110    9.5320 C.3   319  ASP319      0.1410
    102  CG        37.3560   89.1380   10.3580 C.2   319  ASP319      0.3668
    103  OD1       37.9570   88.2780   10.9330 O.co2 319  ASP319     -0.2456
    104  OD2       36.0840   89.3560   10.3450 O.co2 319  ASP319     -0.2456
    105  N         39.6290   88.3930   13.5790 N.3   321  TYR321     -0.1241
    106  CA        38.9440   87.4210   14.3860 C.3   321  TYR321      0.1605
    107  C         39.2050   85.9820   13.9630 C.2   321  TYR321      0.2264
    108  O         39.1730   85.0770   14.8150 O.2   321  TYR321     -0.2867
    109  CB        37.4420   87.6490   14.2810 C.3   321  TYR321      0.0534
    110  CG        36.9640   89.0380   14.7170 C.ar  321  TYR321     -0.0201
    111  CD1       37.1130   89.4860   16.0150 C.ar  321  TYR321     -0.0009
    112  CD2       36.4130   89.9140   13.8110 C.ar  321  TYR321     -0.0009
    113  CE1       36.6520   90.7250   16.4380 C.ar  321  TYR321      0.0417
    114  CE2       35.9850   91.1160   14.2230 C.ar  321  TYR321      0.0417
    115  CZ        36.1020   91.5190   15.5250 C.ar  321  TYR321      0.1957
    116  OH        35.6570   92.7860   15.9250 O.3   321  TYR321     -0.2866
@<TRIPOS>BOND
     1    39    40    2
     2    39    38    1
     3     4     3    2
     4    38    37    1
     5    38    41    1
     6     3     2    1
     7     5     2    1
     8     5     6    1
     9    41    42    1
    10     7     6   ar
    11     7     9   ar
    12     2     1    1
    13    26    25    2
    14    43    42   ar
    15    15    16    1
    16     6     8   ar
    17    19    16    1
    18    19    20    1
    19    42    44   ar
    20    25    24    1
    21    18    17    2
    22     9    10   ar
    23    16    17    1
    24    22    20   am
    25    20    21    2
    26     8    10   ar
    27     8    11   ar
    28    10    12   ar
    29    24    23    1
    30    24    27    1
    31    11    13   ar
    32    27    28    1
    33    12    14   ar
    34    13    14   ar
    35    45    46    1
    36    28    29   ar
    37    28    30   ar
    38    49    46    1
    39    49    50    1
    40    52    50   am
    41    97    98    1
    42    29    31   ar
    43    46    47    1
    44    96    94   ar
    45    96    95   ar
    46    48    47    2
    47    50    51    2
    48    33    30   ar
    49    33    35   ar
    50    30    32   ar
    51   101    98    1
    52   101   102    1
    53    98    99    1
    54    94    92   ar
    55    47    53   am
    56    95    93   ar
    57   104   102   ar
    58   102   103   ar
    59    31    32   ar
    60    35    36   ar
    61    32    34   ar
    62    92    91   ar
    63    92    90   ar
    64    99   100    2
    65    53    54    1
    66    91    89   ar
    67    93    90   ar
    68    56    55    2
    69    36    34   ar
    70    55    54    1
    71    90    88   ar
    72    54    57    1
    73    57    58    1
    74    82    80   ar
    75    60    59   ar
    76    58    59    1
    77    89    88   ar
    78    88    87    1
    79    59    61   ar
    80    80    81   ar
    81    80    79    1
    82   105   106    1
    83   112   114   ar
    84   112   110   ar
    85   107   106    1
    86   107   108    2
    87   114   115   ar
    88   109   106    1
    89   109   110    1
    90    85    84    1
    91    85    86    2
    92    87    84    1
    93    84    83    1
    94    79    78    1
    95   110   111   ar
    96    73    72    1
    97   115   116    1
    98   115   113   ar
    99    78    75    1
   100    72    71   ar
   101    72    70   ar
   102   111   113   ar
   103    71    69   ar
   104    70    68   ar
   105    75    74    1
   106    75    76    1
   107    69    67   ar
   108    68    67   ar
   109    67    66    1
   110    76    77    2
   111    66    63    1
   112    63    62    1
   113    63    64    1
   114    65    64    2
