@<TRIPOS>MOLECULE
tmp/3wfrH00.pdb
 178 166 0 0 0
SMALL
GASTEIGER

@<TRIPOS>ATOM
      1  N         44.0900   -8.0850  -54.1180 N.3    25  GLY25      -0.1210
      2  CA        44.3350   -9.3610  -53.4730 C.3    25  GLY25       0.1956
      3  C         43.1330  -10.2720  -53.3150 C.2    25  GLY25       0.2612
      4  O         42.1970  -10.2460  -54.1140 O.2    25  GLY25      -0.2717
      5  N         43.1750  -11.0830  -52.2620 N.am   26  GLY26      -0.1942
      6  CA        42.2220  -12.1570  -52.0450 C.3    26  GLY26       0.2014
      7  C         40.7480  -11.8160  -52.0590 C.2    26  GLY26       0.2638
      8  O         39.9300  -12.6670  -52.3920 O.2    26  GLY26      -0.2714
      9  N         40.3950  -10.5910  -51.6910 N.am   27  TRP27      -0.1973
     10  CA        38.9910  -10.2050  -51.7080 C.3    27  TRP27       0.1640
     11  C         38.4790  -10.1780  -53.1460 C.2    27  TRP27       0.2290
     12  O         37.4200  -10.7360  -53.4500 O.2    27  TRP27      -0.2864
     13  CB        38.7830   -8.8530  -51.0290 C.3    27  TRP27       0.0576
     14  CG        37.5260   -8.8030  -50.2200 C.ar   27  TRP27       0.0006
     15  CD1       37.4000   -9.0600  -48.8880 C.ar   27  TRP27       0.0946
     16  CD2       36.2110   -8.4930  -50.6940 C.ar   27  TRP27       0.0152
     17  NE1       36.0890   -8.9200  -48.4980 N.ar   27  TRP27      -0.2442
     18  CE2       35.3380   -8.5740  -49.5900 C.ar   27  TRP27       0.0810
     19  CE3       35.6870   -8.1520  -51.9440 C.ar   27  TRP27       0.0012
     20  CZ2       33.9730   -8.3240  -49.6980 C.ar   27  TRP27       0.0191
     21  CZ3       34.3330   -7.9060  -52.0490 C.ar   27  TRP27       0.0001
     22  CH2       33.4900   -7.9920  -50.9330 C.ar   27  TRP27       0.0015
     23  N         39.8680  -11.7120  -55.7730 N.3    29  ARG29      -0.1231
     24  CA        39.9250  -13.1010  -56.2270 C.3    29  ARG29       0.1694
     25  C         38.6890  -13.8950  -55.8130 C.2    29  ARG29       0.2592
     26  O         37.9320  -14.3750  -56.6620 O.2    29  ARG29      -0.2718
     27  CB        41.1810  -13.7750  -55.6730 C.3    29  ARG29       0.0321
     28  CG        41.3050  -15.2530  -56.0010 C.3    29  ARG29       0.0489
     29  CD        42.3140  -15.9210  -55.0790 C.3    29  ARG29       0.2205
     30  NE        41.8800  -15.8660  -53.6860 N.pl3  29  ARG29      -0.0865
     31  CZ        42.6630  -16.1290  -52.6450 C.cat  29  ARG29       0.5346
     32  NH1       43.9330  -16.4600  -52.8320 N.pl3  29  ARG29       0.1354
     33  NH2       42.1780  -16.0510  -51.4130 N.pl3  29  ARG29       0.1354
     34  N         38.5070  -14.0350  -54.5020 N.am   30  ASP30      -0.1974
     35  CA        37.3710  -14.7510  -53.9290 C.3    30  ASP30       0.1709
     36  C         36.0390  -14.2490  -54.4710 C.2    30  ASP30       0.2293
     37  O         35.1090  -15.0320  -54.6650 O.2    30  ASP30      -0.2864
     38  CB        37.3780  -14.6290  -52.4030 C.3    30  ASP30       0.1436
     39  CG        38.5860  -15.2880  -51.7690 C.2    30  ASP30       0.3671
     40  OD1       39.6200  -15.4230  -52.4540 O.co2  30  ASP30      -0.2456
     41  OD2       38.5010  -15.6690  -50.5820 O.co2  30  ASP30      -0.2456
     42  N         39.0010  -11.0990  -45.0480 N.3    42  ASP42      -0.1239
     43  CA        40.3150  -10.4790  -45.1550 C.3    42  ASP42       0.1674
     44  C         40.3920   -9.5850  -46.3890 C.2    42  ASP42       0.2266
     45  O         40.3180  -10.0670  -47.5190 O.2    42  ASP42      -0.2867
     46  CB        41.4050  -11.5500  -45.2110 C.3    42  ASP42       0.1410
     47  CG        42.8000  -10.9630  -45.1570 C.2    42  ASP42       0.3668
     48  OD1       43.0160  -10.0090  -44.3830 O.co2  42  ASP42      -0.2456
     49  OD2       43.6810  -11.4560  -45.8900 O.co2  42  ASP42      -0.2456
     50  N         42.5470   -6.5120  -48.4700 N.3    44  ASP44      -0.1239
     51  CA        43.8600   -5.8950  -48.6070 C.3    44  ASP44       0.1674
     52  C         43.7970   -4.6920  -49.5390 C.2    44  ASP44       0.2266
     53  O         43.2430   -4.7730  -50.6330 O.2    44  ASP44      -0.2867
     54  CB        44.8610   -6.9220  -49.1330 C.3    44  ASP44       0.1410
     55  CG        44.7140   -8.2710  -48.4550 C.2    44  ASP44       0.3668
     56  OD1       43.7210   -8.9740  -48.7470 O.co2  44  ASP44      -0.2456
     57  OD2       45.5870   -8.6280  -47.6340 O.co2  44  ASP44      -0.2456
     58  N         44.3330   -5.4130  -44.2500 N.3    96  ASP96      -0.1239
     59  CA        45.7540   -5.1280  -44.4180 C.3    96  ASP96       0.1674
     60  C         45.9820   -3.9640  -45.3760 C.2    96  ASP96       0.2266
     61  O         45.6320   -4.0430  -46.5510 O.2    96  ASP96      -0.2867
     62  CB        46.4850   -6.3670  -44.9320 C.3    96  ASP96       0.1410
     63  CG        46.3340   -7.5620  -44.0100 C.2    96  ASP96       0.3668
     64  OD1       46.5340   -7.4020  -42.7870 O.co2  96  ASP96      -0.2456
     65  OD2       46.0140   -8.6620  -44.5090 O.co2  96  ASP96      -0.2456
     66  N         53.5300   -9.0700  -57.1680 N.3   116  ARG116     -0.1231
     67  CA        52.7610  -10.0280  -56.3770 C.3   116  ARG116      0.1694
     68  C         53.0710  -11.4680  -56.7820 C.2   116  ARG116      0.2592
     69  O         53.6050  -11.7150  -57.8630 O.2   116  ARG116     -0.2718
     70  CB        51.2630   -9.7470  -56.5030 C.3   116  ARG116      0.0321
     71  CG        50.9190   -8.2670  -56.5300 C.3   116  ARG116      0.0489
     72  CD        49.4580   -8.0280  -56.2060 C.3   116  ARG116      0.2205
     73  NE        49.2500   -7.8070  -54.7780 N.pl3 116  ARG116     -0.0865
     74  CZ        49.2550   -6.6080  -54.2050 C.cat 116  ARG116      0.5346
     75  NH1       49.4530   -5.5230  -54.9400 N.pl3 116  ARG116      0.1354
     76  NH2       49.0580   -6.4910  -52.8990 N.pl3 116  ARG116      0.1354
     77  N         52.7430  -12.4150  -55.9070 N.am  117  ASP117     -0.1974
     78  CA        53.0490  -13.8240  -56.1500 C.3   117  ASP117      0.1709
     79  C         52.2850  -14.4480  -57.3200 C.2   117  ASP117      0.2293
     80  O         52.8940  -14.9830  -58.2450 O.2   117  ASP117     -0.2864
     81  CB        52.8380  -14.6510  -54.8780 C.3   117  ASP117      0.1436
     82  CG        51.4500  -14.4890  -54.2950 C.2   117  ASP117      0.3671
     83  OD1       50.7160  -13.5860  -54.7430 O.co2 117  ASP117     -0.2456
     84  OD2       51.0950  -15.2650  -53.3840 O.co2 117  ASP117     -0.2456
     85  N         45.8850  -13.3350  -57.6050 N.3   121  ASN121     -0.1240
     86  CA        45.9910  -12.4100  -56.4840 C.3   121  ASN121      0.1653
     87  C         46.4620  -11.0230  -56.9110 C.2   121  ASN121      0.2266
     88  O         46.5450  -10.1080  -56.0930 O.2   121  ASN121     -0.2867
     89  CB        46.9410  -12.9730  -55.4250 C.3   121  ASN121      0.1155
     90  CG        46.4700  -14.2970  -54.8610 C.2   121  ASN121      0.2627
     91  OD1       45.5430  -14.9140  -55.3850 O.2   121  ASN121     -0.2716
     92  ND2       47.1120  -14.7440  -53.7880 N.am  121  ASN121     -0.0877
     93  N         60.2890  -14.1170  -52.2200 N.3   161  ASP161     -0.1239
     94  CA        59.5830  -14.4080  -50.9760 C.3   161  ASP161      0.1674
     95  C         59.1660  -15.8760  -50.9410 C.2   161  ASP161      0.2266
     96  O         58.0520  -16.2160  -51.3370 O.2   161  ASP161     -0.2867
     97  CB        58.3630  -13.5000  -50.8120 C.3   161  ASP161      0.1410
     98  CG        57.6720  -13.6870  -49.4750 C.2   161  ASP161      0.3668
     99  OD1       58.3570  -14.0520  -48.4950 O.co2 161  ASP161     -0.2456
    100  OD2       56.4440  -13.4670  -49.4030 O.co2 161  ASP161     -0.2456
    101  N         58.1120  -18.1320  -48.8600 N.3   163  VAL163     -0.1231
    102  CA        56.9000  -18.6050  -48.1840 C.3   163  VAL163      0.1692
    103  C         55.7200  -18.7630  -49.1480 C.2   163  VAL163      0.2591
    104  O         54.8500  -19.6190  -48.9530 O.2   163  VAL163     -0.2718
    105  CB        56.5080  -17.6730  -47.0080 C.3   163  VAL163      0.0266
    106  CG1       56.1710  -16.2810  -47.5160 C.3   163  VAL163      0.0020
    107  CG2       55.3470  -18.2560  -46.2120 C.3   163  VAL163      0.0020
    108  N         55.7180  -17.9510  -50.2020 N.am  164  ARG164     -0.1980
    109  CA        54.6720  -17.9830  -51.2160 C.3   164  ARG164      0.1597
    110  C         54.4870  -19.3760  -51.8110 C.2   164  ARG164      0.2287
    111  O         53.3740  -19.7530  -52.1820 O.2   164  ARG164     -0.2864
    112  CB        54.9800  -16.9740  -52.3240 C.3   164  ARG164      0.0334
    113  CG        55.0010  -15.5280  -51.8520 C.3   164  ARG164      0.0492
    114  CD        55.6440  -14.6160  -52.8830 C.3   164  ARG164      0.2205
    115  NE        55.5300  -13.2080  -52.5140 N.pl3 164  ARG164     -0.0865
    116  CZ        55.9120  -12.1990  -53.2900 C.cat 164  ARG164      0.5346
    117  NH1       56.4320  -12.4370  -54.4860 N.pl3 164  ARG164      0.1354
    118  NH2       55.7720  -10.9490  -52.8710 N.pl3 164  ARG164      0.1354
    119  N         51.7180  -21.0210  -50.1390 N.3   167  ARG167     -0.1245
    120  CA        50.4190  -20.4290  -50.4420 C.3   167  ARG167      0.1563
    121  C         49.8720  -20.9890  -51.7480 C.2   167  ARG167      0.2260
    122  O         48.6850  -21.3020  -51.8510 O.2   167  ARG167     -0.2867
    123  CB        50.5280  -18.9050  -50.5140 C.3   167  ARG167      0.0307
    124  CG        51.1070  -18.2740  -49.2550 C.3   167  ARG167      0.0489
    125  CD        51.1500  -16.7560  -49.3380 C.3   167  ARG167      0.2205
    126  NE        49.8180  -16.1580  -49.3180 N.pl3 167  ARG167     -0.0865
    127  CZ        49.1720  -15.7360  -50.4000 C.cat 167  ARG167      0.5346
    128  NH1       49.7350  -15.8420  -51.5950 N.pl3 167  ARG167      0.1354
    129  NH2       47.9630  -15.2040  -50.2880 N.pl3 167  ARG167      0.1354
    130  N         48.2660  -24.0660  -50.9980 N.3   170  ARG170     -0.1245
    131  CA        47.0340  -23.8370  -50.2530 C.3   170  ARG170      0.1563
    132  C         45.8990  -23.3820  -51.1640 C.2   170  ARG170      0.2260
    133  O         44.8760  -24.0630  -51.2880 O.2   170  ARG170     -0.2867
    134  CB        47.2600  -22.7930  -49.1570 C.3   170  ARG170      0.0307
    135  CG        46.0060  -22.4470  -48.3700 C.3   170  ARG170      0.0489
    136  CD        46.2360  -21.2630  -47.4450 C.3   170  ARG170      0.2205
    137  NE        46.5750  -20.0470  -48.1790 N.pl3 170  ARG170     -0.0865
    138  CZ        45.6780  -19.2140  -48.6960 C.cat 170  ARG170      0.5346
    139  NH1       44.3830  -19.4640  -48.5650 N.pl3 170  ARG170      0.1354
    140  NH2       46.0760  -18.1300  -49.3480 N.pl3 170  ARG170      0.1354
    141  N         42.3800  -24.7070  -51.8300 N.3   174  GLU174     -0.1231
    142  CA        41.3540  -23.9620  -51.1090 C.3   174  GLU174      0.1699
    143  C         40.3900  -23.2580  -52.0570 C.2   174  GLU174      0.2592
    144  O         39.1830  -23.2230  -51.8190 O.2   174  GLU174     -0.2718
    145  CB        42.0010  -22.9550  -50.1570 C.3   174  GLU174      0.0402
    146  CG        41.0150  -22.1620  -49.3210 C.3   174  GLU174      0.1161
    147  CD        41.7060  -21.2370  -48.3400 C.2   174  GLU174      0.3649
    148  OE1       42.7530  -21.6350  -47.7870 O.co2 174  GLU174     -0.2457
    149  OE2       41.2080  -20.1110  -48.1300 O.co2 174  GLU174     -0.2457
    150  N         40.9320  -22.6910  -53.1290 N.am  175  LYS175     -0.1980
    151  CA        40.1170  -22.0380  -54.1460 C.3   175  LYS175      0.1596
    152  C         39.8040  -22.9800  -55.3060 C.2   175  LYS175      0.2287
    153  O         39.2150  -22.5730  -56.3070 O.2   175  LYS175     -0.2864
    154  CB        40.7860  -20.7530  -54.6340 C.3   175  LYS175      0.0298
    155  CG        40.8380  -19.6730  -53.5670 C.3   175  LYS175      0.0038
    156  CD        39.4550  -19.4480  -52.9740 C.3   175  LYS175      0.0206
    157  CE        39.5050  -18.5690  -51.7360 C.3   175  LYS175      0.1093
    158  NZ        40.1920  -19.2310  -50.5960 N.3   175  LYS175     -0.1314
    159  N         55.5350  -17.7050  -40.1950 N.3   201  ARG201     -0.1245
    160  CA        54.7250  -17.5380  -41.3950 C.3   201  ARG201      0.1563
    161  C         54.4620  -18.9080  -42.0020 C.2   201  ARG201      0.2260
    162  O         53.3470  -19.2090  -42.4410 O.2   201  ARG201     -0.2867
    163  CB        55.4430  -16.6480  -42.4080 C.3   201  ARG201      0.0307
    164  CG        55.9430  -15.3340  -41.8370 C.3   201  ARG201      0.0489
    165  CD        56.7800  -14.5850  -42.8580 C.3   201  ARG201      0.2205
    166  NE        55.9810  -14.1260  -43.9900 N.pl3 201  ARG201     -0.0865
    167  CZ        56.4910  -13.7150  -45.1450 C.cat 201  ARG201      0.5346
    168  NH1       57.8040  -13.7160  -45.3290 N.pl3 201  ARG201      0.1354
    169  NH2       55.6880  -13.3120  -46.1200 N.pl3 201  ARG201      0.1354
    170  N         46.7940  -22.8820  -42.0490 N.3   208  LYS208     -0.1245
    171  CA        45.8200  -22.4500  -43.0480 C.3   208  LYS208      0.1561
    172  C         45.4640  -23.6110  -43.9710 C.2   208  LYS208      0.2260
    173  O         44.3280  -23.7270  -44.4310 O.2   208  LYS208     -0.2867
    174  CB        46.3540  -21.2690  -43.8630 C.3   208  LYS208      0.0271
    175  CG        46.4540  -19.9660  -43.0860 C.3   208  LYS208      0.0035
    176  CD        47.0010  -18.8400  -43.9520 C.3   208  LYS208      0.0206
    177  CE        45.9500  -18.3160  -44.9160 C.3   208  LYS208      0.1093
    178  NZ        44.8400  -17.6300  -44.1960 N.3   208  LYS208     -0.1314
@<TRIPOS>BOND
     1    80    79    2
     2    69    68    2
     3    85    86    1
     4    79    78    1
     5    66    67    1
     6    87    86    1
     7    87    88    2
     8    68    67    1
     9    68    77   am
    10    26    25    2
    11    71    70    1
    12    71    72    1
    13    70    67    1
    14    86    89    1
    15   153   152    2
    16    24    25    1
    17    24    23    1
    18    24    27    1
    19    72    73    1
    20    78    77    1
    21    78    81    1
    22    28    27    1
    23    28    29    1
    24    25    34   am
    25    89    90    1
    26    91    90    2
    27   152   151    1
    28    29    30    1
    29    75    74    1
    30    81    82    1
    31    90    92   am
    32    73    74    2
    33    83    82   ar
    34    37    36    2
    35   154   151    1
    36   154   155    1
    37    34    35    1
    38   117   116    1
    39    36    35    1
    40    82    84   ar
    41    74    76    1
    42   151   150    1
    43     1     2    1
    44     4     3    2
    45    35    38    1
    46    30    31    2
    47   155   156    1
    48     2     3    1
    49    12    11    2
    50     3     5   am
    51   116   118    1
    52   116   115    2
    53    11    10    1
    54   150   143   am
    55   156   157    1
    56   114   115    1
    57   114   113    1
    58    32    31    1
    59    31    33    1
    60    40    39   ar
    61    38    39    1
    62     8     7    2
    63   112   113    1
    64   112   109    1
    65     5     6    1
    66    93    94    1
    67   111   110    2
    68     7     6    1
    69     7     9   am
    70   143   144    2
    71   143   142    1
    72    21    19   ar
    73    21    22   ar
    74    19    16   ar
    75   122   121    2
    76   141   142    1
    77   110   109    1
    78    39    41   ar
    79   121   120    1
    80   157   158    1
    81    10     9    1
    82    10    13    1
    83   128   127    1
    84    96    95    2
    85   133   132    2
    86   109   108    1
    87   132   131    1
    88   142   145    1
    89    13    14    1
    90   130   131    1
    91    94    95    1
    92    94    97    1
    93    22    20   ar
    94    97    98    1
    95    16    14   ar
    96    16    18   ar
    97    53    52    2
    98   123   120    1
    99   123   124    1
   100   120   119    1
   101   127   129    1
   102   127   126    2
   103   131   134    1
   104    14    15   ar
   105   108   103   am
   106   145   146    1
   107    20    18   ar
   108    18    17   ar
   109    52    51    1
   110    98   100   ar
   111    98    99   ar
   112   140   138    1
   113   125   126    1
   114   125   124    1
   115   146   147    1
   116   134   135    1
   117   103   104    2
   118   103   102    1
   119    54    51    1
   120    54    55    1
   121    15    17   ar
   122   101   102    1
   123    56    55   ar
   124   138   139    1
   125   138   137    2
   126    51    50    1
   127    55    57   ar
   128   135   136    1
   129   147   149   ar
   130   147   148   ar
   131   102   105    1
   132   137   136    1
   133    45    44    2
   134   106   105    1
   135   105   107    1
   136    61    60    2
   137    44    43    1
   138   169   167    1
   139    49    47   ar
   140    60    59    1
   141   168   167    1
   142    46    47    1
   143    46    43    1
   144    47    48   ar
   145    43    42    1
   146   167   166    2
   147    62    59    1
   148    62    63    1
   149   177   178    1
   150   177   176    1
   151    65    63   ar
   152   173   172    2
   153    59    58    1
   154    63    64   ar
   155   166   165    1
   156   172   171    1
   157   176   175    1
   158   174   175    1
   159   174   171    1
   160   171   170    1
   161   165   164    1
   162   162   161    2
   163   163   164    1
   164   163   160    1
   165   161   160    1
   166   160   159    1
