@<TRIPOS>MOLECULE
tmp/3wfrH01.pdb
 96 87 0 0 0
SMALL
GASTEIGER

@<TRIPOS>ATOM
      1  N         43.1750  -11.0830  -52.2620 N.3    26  GLY26      -0.1225
      2  CA        42.2220  -12.1570  -52.0450 C.3    26  GLY26       0.1811
      3  C         40.7480  -11.8160  -52.0590 C.2    26  GLY26       0.2280
      4  O         39.9300  -12.6670  -52.3920 O.2    26  GLY26      -0.2866
      5  N         39.8680  -11.7120  -55.7730 N.3    29  ARG29      -0.1231
      6  CA        39.9250  -13.1010  -56.2270 C.3    29  ARG29       0.1694
      7  C         38.6890  -13.8950  -55.8130 C.2    29  ARG29       0.2592
      8  O         37.9320  -14.3750  -56.6620 O.2    29  ARG29      -0.2718
      9  CB        41.1810  -13.7750  -55.6730 C.3    29  ARG29       0.0321
     10  CG        41.3050  -15.2530  -56.0010 C.3    29  ARG29       0.0489
     11  CD        42.3140  -15.9210  -55.0790 C.3    29  ARG29       0.2205
     12  NE        41.8800  -15.8660  -53.6860 N.pl3  29  ARG29      -0.0865
     13  CZ        42.6630  -16.1290  -52.6450 C.cat  29  ARG29       0.5346
     14  NH1       43.9330  -16.4600  -52.8320 N.pl3  29  ARG29       0.1354
     15  NH2       42.1780  -16.0510  -51.4130 N.pl3  29  ARG29       0.1354
     16  N         38.5070  -14.0350  -54.5020 N.am   30  ASP30      -0.1974
     17  CA        37.3710  -14.7510  -53.9290 C.3    30  ASP30       0.1709
     18  C         36.0390  -14.2490  -54.4710 C.2    30  ASP30       0.2293
     19  O         35.1090  -15.0320  -54.6650 O.2    30  ASP30      -0.2864
     20  CB        37.3780  -14.6290  -52.4030 C.3    30  ASP30       0.1436
     21  CG        38.5860  -15.2880  -51.7690 C.2    30  ASP30       0.3671
     22  OD1       39.6200  -15.4230  -52.4540 O.co2  30  ASP30      -0.2456
     23  OD2       38.5010  -15.6690  -50.5820 O.co2  30  ASP30      -0.2456
     24  N         39.0010  -11.0990  -45.0480 N.3    42  ASP42      -0.1239
     25  CA        40.3150  -10.4790  -45.1550 C.3    42  ASP42       0.1674
     26  C         40.3920   -9.5850  -46.3890 C.2    42  ASP42       0.2266
     27  O         40.3180  -10.0670  -47.5190 O.2    42  ASP42      -0.2867
     28  CB        41.4050  -11.5500  -45.2110 C.3    42  ASP42       0.1410
     29  CG        42.8000  -10.9630  -45.1570 C.2    42  ASP42       0.3668
     30  OD1       43.0160  -10.0090  -44.3830 O.co2  42  ASP42      -0.2456
     31  OD2       43.6810  -11.4560  -45.8900 O.co2  42  ASP42      -0.2456
     32  N         42.5470   -6.5120  -48.4700 N.3    44  ASP44      -0.1239
     33  CA        43.8600   -5.8950  -48.6070 C.3    44  ASP44       0.1674
     34  C         43.7970   -4.6920  -49.5390 C.2    44  ASP44       0.2266
     35  O         43.2430   -4.7730  -50.6330 O.2    44  ASP44      -0.2867
     36  CB        44.8610   -6.9220  -49.1330 C.3    44  ASP44       0.1410
     37  CG        44.7140   -8.2710  -48.4550 C.2    44  ASP44       0.3668
     38  OD1       43.7210   -8.9740  -48.7470 O.co2  44  ASP44      -0.2456
     39  OD2       45.5870   -8.6280  -47.6340 O.co2  44  ASP44      -0.2456
     40  N         45.8850  -13.3350  -57.6050 N.3   121  ASN121     -0.1240
     41  CA        45.9910  -12.4100  -56.4840 C.3   121  ASN121      0.1653
     42  C         46.4620  -11.0230  -56.9110 C.2   121  ASN121      0.2266
     43  O         46.5450  -10.1080  -56.0930 O.2   121  ASN121     -0.2867
     44  CB        46.9410  -12.9730  -55.4250 C.3   121  ASN121      0.1155
     45  CG        46.4700  -14.2970  -54.8610 C.2   121  ASN121      0.2627
     46  OD1       45.5430  -14.9140  -55.3850 O.2   121  ASN121     -0.2716
     47  ND2       47.1120  -14.7440  -53.7880 N.am  121  ASN121     -0.0877
     48  N         51.7180  -21.0210  -50.1390 N.3   167  ARG167     -0.1245
     49  CA        50.4190  -20.4290  -50.4420 C.3   167  ARG167      0.1563
     50  C         49.8720  -20.9890  -51.7480 C.2   167  ARG167      0.2260
     51  O         48.6850  -21.3020  -51.8510 O.2   167  ARG167     -0.2867
     52  CB        50.5280  -18.9050  -50.5140 C.3   167  ARG167      0.0307
     53  CG        51.1070  -18.2740  -49.2550 C.3   167  ARG167      0.0489
     54  CD        51.1500  -16.7560  -49.3380 C.3   167  ARG167      0.2205
     55  NE        49.8180  -16.1580  -49.3180 N.pl3 167  ARG167     -0.0865
     56  CZ        49.1720  -15.7360  -50.4000 C.cat 167  ARG167      0.5346
     57  NH1       49.7350  -15.8420  -51.5950 N.pl3 167  ARG167      0.1354
     58  NH2       47.9630  -15.2040  -50.2880 N.pl3 167  ARG167      0.1354
     59  N         48.2660  -24.0660  -50.9980 N.3   170  ARG170     -0.1245
     60  CA        47.0340  -23.8370  -50.2530 C.3   170  ARG170      0.1563
     61  C         45.8990  -23.3820  -51.1640 C.2   170  ARG170      0.2260
     62  O         44.8760  -24.0630  -51.2880 O.2   170  ARG170     -0.2867
     63  CB        47.2600  -22.7930  -49.1570 C.3   170  ARG170      0.0307
     64  CG        46.0060  -22.4470  -48.3700 C.3   170  ARG170      0.0489
     65  CD        46.2360  -21.2630  -47.4450 C.3   170  ARG170      0.2205
     66  NE        46.5750  -20.0470  -48.1790 N.pl3 170  ARG170     -0.0865
     67  CZ        45.6780  -19.2140  -48.6960 C.cat 170  ARG170      0.5346
     68  NH1       44.3830  -19.4640  -48.5650 N.pl3 170  ARG170      0.1354
     69  NH2       46.0760  -18.1300  -49.3480 N.pl3 170  ARG170      0.1354
     70  N         42.3800  -24.7070  -51.8300 N.3   174  GLU174     -0.1231
     71  CA        41.3540  -23.9620  -51.1090 C.3   174  GLU174      0.1699
     72  C         40.3900  -23.2580  -52.0570 C.2   174  GLU174      0.2592
     73  O         39.1830  -23.2230  -51.8190 O.2   174  GLU174     -0.2718
     74  CB        42.0010  -22.9550  -50.1570 C.3   174  GLU174      0.0402
     75  CG        41.0150  -22.1620  -49.3210 C.3   174  GLU174      0.1161
     76  CD        41.7060  -21.2370  -48.3400 C.2   174  GLU174      0.3649
     77  OE1       42.7530  -21.6350  -47.7870 O.co2 174  GLU174     -0.2457
     78  OE2       41.2080  -20.1110  -48.1300 O.co2 174  GLU174     -0.2457
     79  N         40.9320  -22.6910  -53.1290 N.am  175  LYS175     -0.1980
     80  CA        40.1170  -22.0380  -54.1460 C.3   175  LYS175      0.1596
     81  C         39.8040  -22.9800  -55.3060 C.2   175  LYS175      0.2287
     82  O         39.2150  -22.5730  -56.3070 O.2   175  LYS175     -0.2864
     83  CB        40.7860  -20.7530  -54.6340 C.3   175  LYS175      0.0298
     84  CG        40.8380  -19.6730  -53.5670 C.3   175  LYS175      0.0038
     85  CD        39.4550  -19.4480  -52.9740 C.3   175  LYS175      0.0206
     86  CE        39.5050  -18.5690  -51.7360 C.3   175  LYS175      0.1093
     87  NZ        40.1920  -19.2310  -50.5960 N.3   175  LYS175     -0.1314
     88  N         46.7940  -22.8820  -42.0490 N.3   208  LYS208     -0.1245
     89  CA        45.8200  -22.4500  -43.0480 C.3   208  LYS208      0.1561
     90  C         45.4640  -23.6110  -43.9710 C.2   208  LYS208      0.2260
     91  O         44.3280  -23.7270  -44.4310 O.2   208  LYS208     -0.2867
     92  CB        46.3540  -21.2690  -43.8630 C.3   208  LYS208      0.0271
     93  CG        46.4540  -19.9660  -43.0860 C.3   208  LYS208      0.0035
     94  CD        47.0010  -18.8400  -43.9520 C.3   208  LYS208      0.0206
     95  CE        45.9500  -18.3160  -44.9160 C.3   208  LYS208      0.1093
     96  NZ        44.8400  -17.6300  -44.1960 N.3   208  LYS208     -0.1314
@<TRIPOS>BOND
     1    40    41    1
     2    42    41    1
     3    42    43    2
     4     8     7    2
     5    41    44    1
     6    82    81    2
     7     6     7    1
     8     6     5    1
     9     6     9    1
    10    10     9    1
    11    10    11    1
    12     7    16   am
    13    44    45    1
    14    46    45    2
    15    81    80    1
    16    11    12    1
    17    45    47   am
    18    19    18    2
    19    83    80    1
    20    83    84    1
    21    16    17    1
    22    18    17    1
    23    80    79    1
    24    17    20    1
    25    12    13    2
    26    84    85    1
    27    79    72   am
    28    85    86    1
    29    14    13    1
    30    13    15    1
    31    22    21   ar
    32    20    21    1
    33     4     3    2
    34     1     2    1
    35     3     2    1
    36    72    73    2
    37    72    71    1
    38    51    50    2
    39    70    71    1
    40    21    23   ar
    41    50    49    1
    42    86    87    1
    43    57    56    1
    44    62    61    2
    45    61    60    1
    46    71    74    1
    47    59    60    1
    48    35    34    2
    49    52    49    1
    50    52    53    1
    51    49    48    1
    52    56    58    1
    53    56    55    2
    54    60    63    1
    55    74    75    1
    56    34    33    1
    57    69    67    1
    58    54    55    1
    59    54    53    1
    60    75    76    1
    61    63    64    1
    62    36    33    1
    63    36    37    1
    64    38    37   ar
    65    67    68    1
    66    67    66    2
    67    33    32    1
    68    37    39   ar
    69    64    65    1
    70    76    78   ar
    71    76    77   ar
    72    66    65    1
    73    27    26    2
    74    26    25    1
    75    31    29   ar
    76    28    29    1
    77    28    25    1
    78    29    30   ar
    79    25    24    1
    80    95    96    1
    81    95    94    1
    82    91    90    2
    83    90    89    1
    84    94    93    1
    85    92    93    1
    86    92    89    1
    87    89    88    1
