@<TRIPOS>MOLECULE
tmp/3wfuA00.pdb
 195 186 0 0 0
SMALL
GASTEIGER

@<TRIPOS>ATOM
      1  N          8.5550   -5.8370    8.5930 N.3    29  LEU29      -0.1245
      2  CA         7.3570   -5.0690    8.8710 C.3    29  LEU29       0.1561
      3  C          6.1190   -5.7630    8.3380 C.2    29  LEU29       0.2260
      4  O          5.0470   -5.6970    8.9940 O.2    29  LEU29      -0.2867
      5  CB         7.4550   -3.6060    8.2940 C.3    29  LEU29       0.0270
      6  CG         8.5140   -2.7300    9.0100 C.3    29  LEU29       0.0019
      7  CD1        8.6730   -1.4570    8.2690 C.3    29  LEU29       0.0001
      8  CD2        8.1130   -2.5470   10.5120 C.3    29  LEU29       0.0001
      9  N          5.1650   -8.3660   10.7430 N.3    32  LEU32      -0.1245
     10  CA         4.5660   -7.7470   11.9370 C.3    32  LEU32       0.1561
     11  C          3.0960   -7.3410   11.6820 C.2    32  LEU32       0.2260
     12  O          2.1820   -7.5910   12.5290 O.2    32  LEU32      -0.2867
     13  CB         5.4100   -6.5210   12.3140 C.3    32  LEU32       0.0270
     14  CG         4.9810   -5.7440   13.5310 C.3    32  LEU32       0.0019
     15  CD1        5.1320   -6.5100   14.8160 C.3    32  LEU32       0.0001
     16  CD2        5.8190   -4.4440   13.5900 C.3    32  LEU32       0.0001
     17  N         -0.6750   -3.5020   15.1730 N.3    39  THR39      -0.1218
     18  CA         0.5780   -2.7700   15.0730 C.3    39  THR39       0.1862
     19  C          0.5260   -1.8430   13.8570 C.2    39  THR39       0.2287
     20  O          0.9960   -0.7150   13.9330 O.2    39  THR39      -0.2866
     21  CB         1.7940   -3.6860   14.9520 C.3    39  THR39       0.1770
     22  OG1        1.7400   -4.3820   13.7280 O.3    39  THR39      -0.2211
     23  CG2        1.8770   -4.6500   16.1520 C.3    39  THR39       0.0375
     24  N         -0.9430    1.6030   14.4770 N.3    42  LYS42      -0.1231
     25  CA        -0.1240    2.6170   15.1140 C.3    42  LYS42       0.1693
     26  C          0.5700    3.5220   14.0500 C.2    42  LYS42       0.2592
     27  O          1.1310    4.5580   14.4270 O.2    42  LYS42      -0.2718
     28  CB         1.0420    2.0240   15.9500 C.3    42  LYS42       0.0285
     29  CG         0.5210    1.3800   17.1780 C.3    42  LYS42       0.0035
     30  CD        -0.1620    2.4050   18.0290 C.3    42  LYS42       0.0206
     31  CE        -0.3260    1.8710   19.4120 C.3    42  LYS42       0.1093
     32  NZ        -0.5180    3.0450   20.3890 N.3    42  LYS42      -0.1314
     33  N          0.5820    3.1380   12.7770 N.am   43  PHE43      -0.1962
     34  CA         1.2660    3.8630   11.6990 C.3    43  PHE43       0.1771
     35  C          0.2280    4.5650   10.8520 C.2    43  PHE43       0.2620
     36  O         -0.3360    3.9780    9.9210 O.2    43  PHE43      -0.2715
     37  CB         2.0200    2.8980   10.7800 C.3    43  PHE43       0.0574
     38  CG         3.2560    2.3590   11.3630 C.ar   43  PHE43      -0.0200
     39  CD1        3.3070    1.1980   12.2020 C.ar   43  PHE43      -0.0042
     40  CD2        4.4640    3.0130   11.1010 C.ar   43  PHE43      -0.0042
     41  CE1        4.5370    0.7220   12.7010 C.ar   43  PHE43      -0.0003
     42  CE2        5.6540    2.5280   11.5930 C.ar   43  PHE43      -0.0003
     43  CZ         5.6900    1.3990   12.3540 C.ar   43  PHE43      -0.0000
     44  N          0.0100    5.8420   11.0970 N.am   44  ASP44      -0.1957
     45  CA        -0.9310    6.5880   10.2760 C.3    44  ASP44       0.1840
     46  C         -0.4850    6.4920    8.8190 C.2    44  ASP44       0.2621
     47  O         -1.3290    6.3290    7.9300 O.2    44  ASP44      -0.2715
     48  CB        -0.9730    8.0740   10.6910 C.3    44  ASP44       0.1450
     49  CG        -1.5830    8.3100   12.0600 C.2    44  ASP44       0.3671
     50  OD1       -2.3050    7.4450   12.6070 O.co2  44  ASP44      -0.2456
     51  OD2       -1.3160    9.3960   12.6070 O.co2  44  ASP44      -0.2456
     52  N          0.8270    6.5110    8.5560 N.am   45  LYS45      -0.1977
     53  CA         1.2830    6.4230    7.1740 C.3    45  LYS45       0.1596
     54  C          1.2530    5.0130    6.4840 C.2    45  LYS45       0.2287
     55  O          1.6180    4.8520    5.2920 O.2    45  LYS45      -0.2864
     56  CB         2.6370    7.0550    7.0450 C.3    45  LYS45       0.0298
     57  CG         3.8180    6.1710    7.4730 C.3    45  LYS45       0.0038
     58  CD         5.0830    7.0120    7.1800 C.3    45  LYS45       0.0206
     59  CE         6.3980    6.2760    7.5210 C.3    45  LYS45       0.1093
     60  NZ         7.4540    7.0790    6.8270 N.3    45  LYS45      -0.1314
     61  N         10.7800    2.7500    5.4170 N.3    64  HIS64      -0.1241
     62  CA        10.7500    2.6710    6.8560 C.3    64  HIS64       0.1621
     63  C         11.3870    1.3690    7.3610 C.2    64  HIS64       0.2264
     64  O         12.0410    1.3600    8.4120 O.2    64  HIS64      -0.2867
     65  CB         9.3030    2.7490    7.3730 C.3    64  HIS64       0.0745
     66  CG         9.2910    3.0600    8.8080 C.ar   64  HIS64       0.0817
     67  ND1        9.8220    4.2550    9.2560 N.ar   64  HIS64      -0.2268
     68  CD2        8.8760    2.3780    9.8970 C.ar   64  HIS64       0.1154
     69  CE1        9.7210    4.2930   10.5730 C.ar   64  HIS64       0.1986
     70  NE2        9.1750    3.1620   10.9940 N.ar   64  HIS64      -0.2212
     71  N         14.9250    2.3680    7.7420 N.3    67  VAL67      -0.1231
     72  CA        15.1250    3.2140    8.8890 C.3    67  VAL67       0.1692
     73  C         15.1280    2.3600   10.1550 C.2    67  VAL67       0.2591
     74  O         16.0130    2.5000   11.0290 O.2    67  VAL67      -0.2718
     75  CB        13.9910    4.3120    8.9490 C.3    67  VAL67       0.0266
     76  CG1       13.9460    5.0990   10.3060 C.3    67  VAL67       0.0020
     77  CG2       14.2320    5.3120    7.7640 C.3    67  VAL67       0.0020
     78  N         14.1510    1.4720   10.3100 N.am   68  VAL68      -0.1980
     79  CA        14.0310    0.6360   11.5320 C.3    68  VAL68       0.1595
     80  C         15.2610   -0.2520   11.6970 C.2    68  VAL68       0.2287
     81  O         15.8740   -0.3450   12.7670 O.2    68  VAL68      -0.2864
     82  CB        12.7020   -0.2060   11.4550 C.3    68  VAL68       0.0276
     83  CG1       12.6530   -1.2640   12.6060 C.3    68  VAL68       0.0022
     84  CG2       11.5300    0.7220   11.5800 C.3    68  VAL68       0.0022
     85  N         18.5320    1.4810   12.5430 N.3    71  ALA71      -0.1231
     86  CA        18.5730    1.8660   13.9840 C.3    71  ALA71       0.1694
     87  C         18.9380    0.6140   14.8110 C.2    71  ALA71       0.2591
     88  O         19.8830    0.6710   15.6580 O.2    71  ALA71      -0.2718
     89  CB        17.2740    2.4770   14.4370 C.3    71  ALA71       0.0304
     90  N         18.2480   -0.4900   14.5540 N.am   72  LEU72      -0.1980
     91  CA        18.5070   -1.7080   15.3550 C.3    72  LEU72       0.1596
     92  C         19.9210   -2.1930   15.1580 C.2    72  LEU72       0.2287
     93  O         20.6090   -2.5510   16.1090 O.2    72  LEU72      -0.2864
     94  CB        17.5100   -2.7600   14.9300 C.3    72  LEU72       0.0297
     95  CG        17.6420   -4.0850   15.7200 C.3    72  LEU72       0.0022
     96  CD1       17.6280   -3.9030   17.2430 C.3    72  LEU72       0.0001
     97  CD2       16.5110   -5.0150   15.2730 C.3    72  LEU72       0.0001
     98  N         15.7380    6.5240   22.0370 N.3    89  LEU89      -0.1245
     99  CA        14.7790    5.7470   21.2580 C.3    89  LEU89       0.1561
    100  C         13.5680    5.1650   22.0380 C.2    89  LEU89       0.2260
    101  O         12.4360    5.1130   21.5700 O.2    89  LEU89      -0.2867
    102  CB        15.5700    4.5840   20.5290 C.3    89  LEU89       0.0270
    103  CG        14.8280    3.8210   19.4050 C.3    89  LEU89       0.0019
    104  CD1       14.5480    4.7370   18.1760 C.3    89  LEU89       0.0001
    105  CD2       15.4850    2.4290   19.0510 C.3    89  LEU89       0.0001
    106  N         10.9060    8.0520   22.5340 N.3    92  SER92      -0.1202
    107  CA        10.1720    8.3650   21.3080 C.3    92  SER92       0.2020
    108  C          9.0800    7.3190   21.2080 C.2    92  SER92       0.2618
    109  O          7.8360    7.6200   21.1440 O.2    92  SER92      -0.2717
    110  CB        11.1570    8.3350   20.1090 C.3    92  SER92       0.2103
    111  OG        10.4670    8.2870   18.8950 O.3    92  SER92      -0.2182
    112  N          9.5360    6.0650   21.3160 N.am   93  HIS93      -0.1975
    113  CA         8.5690    4.9980   21.2240 C.3    93  HIS93       0.1656
    114  C          7.5140    4.8600   22.2470 C.2    93  HIS93       0.2291
    115  O          6.4160    4.5710   21.8900 O.2    93  HIS93      -0.2864
    116  CB         9.0780    3.7630   20.5510 C.3    93  HIS93       0.0771
    117  CG         9.7610    4.1110   19.2610 C.ar   93  HIS93       0.0820
    118  ND1       11.0960    3.8350   19.0220 N.ar   93  HIS93      -0.2267
    119  CD2        9.3430    4.8630   18.1980 C.ar   93  HIS93       0.1154
    120  CE1       11.4540    4.3420   17.8440 C.ar   93  HIS93       0.1986
    121  NE2       10.4310    5.0090   17.3440 N.ar   93  HIS93      -0.2212
    122  N          6.1820    9.4600   22.1050 N.3    96  LYS96      -0.1231
    123  CA         5.6500    9.9360   20.8000 C.3    96  LYS96       0.1693
    124  C          4.7250    8.8990   20.1630 C.2    96  LYS96       0.2592
    125  O          3.5330    9.1680   19.8200 O.2    96  LYS96      -0.2718
    126  CB         6.7970   10.2170   19.8250 C.3    96  LYS96       0.0285
    127  CG         6.4790   11.3540   18.8740 C.3    96  LYS96       0.0035
    128  CD         7.4470   11.4710   17.7450 C.3    96  LYS96       0.0206
    129  CE         6.7390   12.2950   16.6480 C.3    96  LYS96       0.1093
    130  NZ         5.3190   11.8550   16.2980 N.3    96  LYS96      -0.1314
    131  N          5.2660    7.6840   20.0130 N.am   97  HIS97      -0.1976
    132  CA         4.5870    6.6680   19.2120 C.3    97  HIS97       0.1656
    133  C          3.6170    5.8000   19.9590 C.2    97  HIS97       0.2291
    134  O          2.7590    5.2120   19.3280 O.2    97  HIS97      -0.2864
    135  CB         5.6020    5.8710   18.3990 C.3    97  HIS97       0.0771
    136  CG         6.4160    6.7400   17.4880 C.ar   97  HIS97       0.0820
    137  ND1        5.8550    7.6400   16.5930 N.ar   97  HIS97      -0.2267
    138  CD2        7.7530    6.8850   17.3750 C.ar   97  HIS97       0.1154
    139  CE1        6.8260    8.2760   15.9570 C.ar   97  HIS97       0.1986
    140  NE2        7.9870    7.8550   16.4340 N.ar   97  HIS97      -0.2212
    141  N          3.9150    2.7980   21.8580 N.3    99  ILE99      -0.1301
    142  CA         4.1030    1.4340   21.3510 C.3    99  ILE99       0.1246
    143  C          4.2840    0.4930   22.5620 C.3    99  ILE99       0.2009
    144  O          5.3800    0.5210   23.2400 O.3    99  ILE99      -0.2188
    145  CB         5.3690    1.3300   20.4430 C.3    99  ILE99       0.0202
    146  CG1        5.2600    2.2290   19.1950 C.3    99  ILE99       0.0015
    147  CG2        5.6590   -0.1260   20.1420 C.3    99  ILE99       0.0016
    148  CD1        3.9780    2.0250   18.4860 C.3    99  ILE99       0.0000
    149  N          4.7220   -5.1110   21.3890 N.3   103  TYR103     -0.1227
    150  CA         4.9720   -4.9880   19.9290 C.3   103  TYR103      0.1736
    151  C          6.4720   -5.1910   19.6540 C.2   103  TYR103      0.2595
    152  O          6.8150   -5.6110   18.5340 O.2   103  TYR103     -0.2718
    153  CB         4.5960   -3.6180   19.3960 C.3   103  TYR103      0.0548
    154  CG         3.0760   -3.3220   19.4200 C.ar  103  TYR103     -0.0200
    155  CD1        2.1500   -4.1840   20.0150 C.ar  103  TYR103     -0.0009
    156  CD2        2.6010   -2.1800   18.8140 C.ar  103  TYR103     -0.0009
    157  CE1        0.8030   -3.9120   20.0490 C.ar  103  TYR103      0.0417
    158  CE2        1.2450   -1.8670   18.8490 C.ar  103  TYR103      0.0417
    159  CZ         0.3690   -2.7280   19.4770 C.ar  103  TYR103      0.1957
    160  OH        -0.9470   -2.3840   19.4860 O.3   103  TYR103     -0.2866
    161  N          7.3910   -4.8920   20.6030 N.am  104  LEU104     -0.1980
    162  CA         8.8160   -5.2050   20.3900 C.3   104  LEU104      0.1596
    163  C          9.0560   -6.7180   20.4910 C.2   104  LEU104      0.2287
    164  O          9.9050   -7.2410   19.7930 O.2   104  LEU104     -0.2864
    165  CB         9.6250   -4.4990   21.4850 C.3   104  LEU104      0.0297
    166  CG         9.9000   -2.9800   21.1030 C.3   104  LEU104      0.0022
    167  CD1        8.7340   -2.1060   21.2000 C.3   104  LEU104      0.0001
    168  CD2       11.0430   -2.4100   21.9170 C.3   104  LEU104      0.0001
    169  N          7.9350   -7.8990   17.0120 N.3   107  ILE107     -0.1245
    170  CA         8.8940   -7.6340   15.9240 C.3   107  ILE107      0.1561
    171  C         10.2100   -8.4970   16.0930 C.2   107  ILE107      0.2260
    172  O         10.8580   -8.8630   15.1060 O.2   107  ILE107     -0.2867
    173  CB         9.2130   -6.1540   15.7610 C.3   107  ILE107      0.0252
    174  CG1        9.6960   -5.9190   14.2960 C.3   107  ILE107      0.0019
    175  CG2       10.2620   -5.7150   16.8050 C.3   107  ILE107      0.0019
    176  CD1        9.8630   -4.4490   13.9110 C.3   107  ILE107      0.0001
    177  N         17.7430   -5.9580   23.9770 N.3   138  PHE138     -0.1241
    178  CA        17.2110   -4.7160   23.4310 C.3   138  PHE138      0.1605
    179  C         15.8450   -4.4100   24.0290 C.2   138  PHE138      0.2264
    180  O         15.6220   -3.2880   24.5410 O.2   138  PHE138     -0.2867
    181  CB        17.0970   -4.8720   21.9040 C.3   138  PHE138      0.0534
    182  CG        16.3400   -3.7530   21.1870 C.ar  138  PHE138     -0.0203
    183  CD1       16.8290   -2.4540   21.0820 C.ar  138  PHE138     -0.0042
    184  CD2       15.1000   -4.0410   20.6110 C.ar  138  PHE138     -0.0042
    185  CE1       16.0630   -1.4900   20.3850 C.ar  138  PHE138     -0.0003
    186  CE2       14.3450   -3.1120   19.9100 C.ar  138  PHE138     -0.0003
    187  CZ        14.7470   -1.8450   19.8080 C.ar  138  PHE138     -0.0000
    188  N         14.7090   -1.3490   26.7680 N.3   142  ILE142     -0.1245
    189  CA        13.6010   -0.4320   26.4630 C.3   142  ILE142      0.1561
    190  C         12.5830   -0.5550   27.6080 C.2   142  ILE142      0.2260
    191  O         12.0700    0.4480   28.0850 O.2   142  ILE142     -0.2867
    192  CB        12.9870   -0.7160   25.0770 C.3   142  ILE142      0.0252
    193  CG1       14.0280   -0.3890   24.0040 C.3   142  ILE142      0.0019
    194  CG2       11.7000    0.0550   24.9650 C.3   142  ILE142      0.0019
    195  CD1       13.6180   -0.7550   22.7180 C.3   142  ILE142      0.0001
@<TRIPOS>BOND
     1    55    54    2
     2    61    62    1
     3    54    53    1
     4    60    59    1
     5    62    63    1
     6    62    65    1
     7    56    53    1
     8    56    57    1
     9    53    52    1
    10    58    57    1
    11    58    59    1
    12    63    64    2
    13    65    66    1
    14    71    72    1
    15    77    75    1
    16    47    46    2
    17     7     6    1
    18     5     2    1
    19     5     6    1
    20     3     2    1
    21     3     4    2
    22    52    46   am
    23     1     2    1
    24    66    67   ar
    25    66    68   ar
    26    46    45    1
    27    72    75    1
    28    72    73    1
    29    75    76    1
    30     6     8    1
    31    67    69   ar
    32    68    70   ar
    33    36    35    2
    34    73    78   am
    35    73    74    2
    36    45    48    1
    37    45    44    1
    38    78    79    1
    39    69    70   ar
    40    48    49    1
    41     9    10    1
    42    37    38    1
    43    37    34    1
    44    35    44   am
    45    35    34    1
    46    40    38   ar
    47    40    42   ar
    48    38    39   ar
    49    82    79    1
    50    82    84    1
    51    82    83    1
    52    79    80    1
    53    42    43   ar
    54    11    10    1
    55    11    12    2
    56    80    81    2
    57    34    33    1
    58    10    13    1
    59    49    51   ar
    60    49    50   ar
    61    39    41   ar
    62    13    14    1
    63    43    41   ar
    64    85    86    1
    65    33    26   am
    66    14    16    1
    67    14    15    1
    68    22    21    1
    69    19    20    2
    70    19    18    1
    71   176   174    1
    72    86    89    1
    73    86    87    1
    74    26    27    2
    75    26    25    1
    76   174   173    1
    77    24    25    1
    78    90    87   am
    79    90    91    1
    80    87    88    2
    81    94    91    1
    82    94    95    1
    83    21    18    1
    84    21    23    1
    85    18    17    1
    86   172   171    2
    87    25    28    1
    88    92    91    1
    89    92    93    2
    90    97    95    1
    91    95    96    1
    92   173   170    1
    93   173   175    1
    94   170   171    1
    95   170   169    1
    96    28    29    1
    97   139   140   ar
    98   139   137   ar
    99   130   129    1
   100   140   138   ar
   101   137   136   ar
   102   129   128    1
   103    29    30    1
   104   121   120   ar
   105   121   119   ar
   106   138   136   ar
   107   136   135    1
   108   128   127    1
   109   120   118   ar
   110    30    31    1
   111   104   103    1
   112   119   117   ar
   113   135   132    1
   114   148   146    1
   115   152   151    2
   116   156   158   ar
   117   156   154   ar
   118   158   159   ar
   119   127   126    1
   120   111   110    1
   121   118   117   ar
   122   105   103    1
   123   146   145    1
   124   132   133    1
   125   132   131    1
   126   117   116    1
   127   134   133    2
   128   153   154    1
   129   153   150    1
   130   103   102    1
   131    31    32    1
   132   154   155   ar
   133   159   160    1
   134   159   157   ar
   135   151   150    1
   136   151   161   am
   137   164   163    2
   138   187   186   ar
   139   187   185   ar
   140   125   124    2
   141   126   123    1
   142   186   184   ar
   143   150   149    1
   144   131   124   am
   145   155   157   ar
   146   110   107    1
   147   147   145    1
   148   124   123    1
   149   185   183   ar
   150   162   163    1
   151   162   161    1
   152   162   165    1
   153   145   142    1
   154   102    99    1
   155   116   113    1
   156   184   182   ar
   157   123   122    1
   158   183   182   ar
   159   166   167    1
   160   166   165    1
   161   166   168    1
   162   109   108    2
   163   182   181    1
   164   108   107    1
   165   108   112   am
   166   113   112    1
   167   113   114    1
   168    99    98    1
   169    99   100    1
   170   107   106    1
   171   142   141    1
   172   142   143    1
   173   101   100    2
   174   115   114    2
   175   181   178    1
   176   143   144    1
   177   195   193    1
   178   178   177    1
   179   178   179    1
   180   193   192    1
   181   179   180    2
   182   194   192    1
   183   192   189    1
   184   189   188    1
   185   189   190    1
   186   190   191    2
