@<TRIPOS>MOLECULE
tmp/3wfwA00.pdb
 117 113 0 0 0
SMALL
GASTEIGER

@<TRIPOS>ATOM
      1  N         36.5650  -10.6110   34.7580 N.3    77  LEU77      -0.1245
      2  CA        37.8410   -9.8940   34.6010 C.3    77  LEU77       0.1561
      3  C         37.9260   -8.7670   35.6250 C.2    77  LEU77       0.2260
      4  O         38.9620   -8.5640   36.2490 O.2    77  LEU77      -0.2867
      5  CB        37.9380   -9.3310   33.1710 C.3    77  LEU77       0.0270
      6  CG        39.2030   -8.5260   32.8390 C.3    77  LEU77       0.0019
      7  CD1       40.3950   -9.4530   32.8200 C.3    77  LEU77       0.0001
      8  CD2       39.0300   -7.8510   31.4750 C.3    77  LEU77       0.0001
      9  N         38.8290   -9.9560   39.0380 N.3    80  ARG80      -0.1231
     10  CA        40.2700  -10.1660   39.1460 C.3    80  ARG80       0.1694
     11  C         41.0120   -8.8420   39.3730 C.2    80  ARG80       0.2592
     12  O         41.9440   -8.7740   40.1760 O.2    80  ARG80      -0.2718
     13  CB        40.8130  -10.9170   37.9250 C.3    80  ARG80       0.0321
     14  CG        40.2540  -12.3140   37.8010 C.3    80  ARG80       0.0489
     15  CD        41.0860  -13.1960   36.8580 C.3    80  ARG80       0.2205
     16  NE        41.0500  -12.7490   35.4630 N.pl3  80  ARG80      -0.0865
     17  CZ        40.0830  -13.0740   34.6060 C.cat  80  ARG80       0.5346
     18  NH1       39.0750  -13.8360   35.0120 N.pl3  80  ARG80       0.1354
     19  NH2       40.1190  -12.6480   33.3470 N.pl3  80  ARG80       0.1354
     20  N         40.5490   -7.7920   38.7000 N.am   81  HIS81      -0.1976
     21  CA        41.1240   -6.4600   38.8630 C.3    81  HIS81       0.1656
     22  C         40.9450   -5.8790   40.2490 C.2    81  HIS81       0.2291
     23  O         41.8460   -5.2000   40.7580 O.2    81  HIS81      -0.2864
     24  CB        40.5740   -5.5180   37.8060 C.3    81  HIS81       0.0771
     25  CG        41.2520   -5.6870   36.4900 C.ar   81  HIS81       0.0820
     26  ND1       41.0940   -6.8200   35.7270 N.ar   81  HIS81      -0.2267
     27  CD2       42.1450   -4.9060   35.8400 C.ar   81  HIS81       0.1154
     28  CE1       41.8490   -6.7300   34.6460 C.ar   81  HIS81       0.1986
     29  NE2       42.4900   -5.5770   34.6960 N.ar   81  HIS81      -0.2212
     30  N         43.6580   -7.2450   42.0800 N.3    84  TYR84      -0.1241
     31  CA        44.9620   -6.6710   41.7040 C.3    84  TYR84       0.1605
     32  C         45.1850   -5.3280   42.3810 C.2    84  TYR84       0.2264
     33  O         46.2870   -4.7770   42.3000 O.2    84  TYR84      -0.2867
     34  CB        45.0810   -6.4570   40.1810 C.3    84  TYR84       0.0534
     35  CG        44.9580   -7.7120   39.3480 C.ar   84  TYR84      -0.0201
     36  CD1       45.4410   -8.9330   39.8100 C.ar   84  TYR84      -0.0009
     37  CD2       44.3600   -7.6720   38.0900 C.ar   84  TYR84      -0.0009
     38  CE1       45.3160  -10.0950   39.0380 C.ar   84  TYR84       0.0417
     39  CE2       44.2240   -8.8160   37.3240 C.ar   84  TYR84       0.0417
     40  CZ        44.7110  -10.0230   37.8040 C.ar   84  TYR84       0.1957
     41  OH        44.5800  -11.1660   37.0400 O.3    84  TYR84      -0.2866
     42  N         43.1450   -2.7140   41.6440 N.3    86  VAL86      -0.1245
     43  CA        42.6120   -1.7150   40.7110 C.3    86  VAL86       0.1561
     44  C         41.2990   -1.1310   41.2400 C.2    86  VAL86       0.2260
     45  O         40.4920   -1.8540   41.8390 O.2    86  VAL86      -0.2867
     46  CB        42.3740   -2.3360   39.3100 C.3    86  VAL86       0.0252
     47  CG1       41.7500   -1.3220   38.3480 C.3    86  VAL86       0.0019
     48  CG2       43.6840   -2.8850   38.7420 C.3    86  VAL86       0.0019
     49  N         40.6370    4.3190   38.2070 N.3    90  HIS90      -0.1226
     50  CA        41.8100    4.0850   37.3700 C.3    90  HIS90       0.1752
     51  C         41.4750    3.8600   35.9010 C.2    90  HIS90       0.2596
     52  O         42.3570    3.9230   35.0340 O.2    90  HIS90      -0.2718
     53  CB        42.5820    2.8650   37.8700 C.3    90  HIS90       0.0759
     54  CG        43.1250    3.0240   39.2500 C.ar   90  HIS90       0.0818
     55  ND1       43.2990    1.9590   40.1080 N.ar   90  HIS90      -0.2268
     56  CD2       43.5700    4.1190   39.9100 C.ar   90  HIS90       0.1154
     57  CE1       43.8090    2.3950   41.2460 C.ar   90  HIS90       0.1986
     58  NE2       43.9910    3.7020   41.1500 N.ar   90  HIS90      -0.2212
     59  N         40.2050    3.5810   35.6110 N.am   91  TYR91      -0.1976
     60  CA        39.8320    3.2440   34.2330 C.3    91  TYR91       0.1639
     61  C         40.0080    4.3860   33.2190 C.2    91  TYR91       0.2290
     62  O         40.5030    4.1460   32.0980 O.2    91  TYR91      -0.2864
     63  CB        38.4150    2.6150   34.1680 C.3    91  TYR91       0.0560
     64  CG        38.4220    1.1590   34.6020 C.ar   91  TYR91      -0.0198
     65  CD1       38.5150    0.1320   33.6770 C.ar   91  TYR91      -0.0009
     66  CD2       38.3890    0.8240   35.9480 C.ar   91  TYR91      -0.0009
     67  CE1       38.5510   -1.2040   34.0950 C.ar   91  TYR91       0.0417
     68  CE2       38.4450   -0.4820   36.3760 C.ar   91  TYR91       0.0417
     69  CZ        38.5200   -1.4970   35.4560 C.ar   91  TYR91       0.1957
     70  OH        38.5760   -2.7950   35.9190 O.3    91  TYR91      -0.2866
     71  N         42.2420    6.8020   33.0300 N.3    93  VAL93      -0.1231
     72  CA        43.6180    7.0450   32.5920 C.3    93  VAL93       0.1692
     73  C         44.1570    5.9260   31.6940 C.2    93  VAL93       0.2591
     74  O         44.9160    6.1900   30.7640 O.2    93  VAL93      -0.2718
     75  CB        44.5740    7.3830   33.7760 C.3    93  VAL93       0.0266
     76  CG1       44.8720    6.1580   34.6300 C.3    93  VAL93       0.0020
     77  CG2       45.8660    7.9710   33.2550 C.3    93  VAL93       0.0020
     78  N         43.7580    4.6850   31.9610 N.am   94  VAL94      -0.1980
     79  CA        44.1130    3.5900   31.0760 C.3    94  VAL94       0.1595
     80  C         43.5390    3.8120   29.6750 C.2    94  VAL94       0.2287
     81  O         44.2230    3.6060   28.6770 O.2    94  VAL94      -0.2864
     82  CB        43.7210    2.2370   31.6890 C.3    94  VAL94       0.0276
     83  CG1       43.8020    1.1300   30.6520 C.3    94  VAL94       0.0022
     84  CG2       44.6700    1.9500   32.8570 C.3    94  VAL94       0.0022
     85  N         36.3670    1.1710   24.2410 N.3   122  TYR122     -0.1241
     86  CA        36.9990    1.1250   25.5490 C.3   122  TYR122      0.1605
     87  C         36.0110    1.6060   26.6150 C.2   122  TYR122      0.2264
     88  O         35.7990    0.9270   27.6290 O.2   122  TYR122     -0.2867
     89  CB        38.2930    1.9620   25.6160 C.3   122  TYR122      0.0534
     90  CG        38.8710    1.9230   27.0160 C.ar  122  TYR122     -0.0201
     91  CD1       39.7180    0.8930   27.4090 C.ar  122  TYR122     -0.0009
     92  CD2       38.5050    2.8760   27.9680 C.ar  122  TYR122     -0.0009
     93  CE1       40.2340    0.8350   28.7060 C.ar  122  TYR122      0.0417
     94  CE2       39.0010    2.8160   29.2770 C.ar  122  TYR122      0.0417
     95  CZ        39.8590    1.7880   29.6350 C.ar  122  TYR122      0.1957
     96  OH        40.3570    1.7160   30.9220 O.3   122  TYR122     -0.2866
     97  N         33.2830   -0.9740   27.5550 N.3   125  LEU125     -0.1231
     98  CA        33.8240   -2.1060   28.2990 C.3   125  LEU125      0.1693
     99  C         34.2020   -1.6750   29.7190 C.2   125  LEU125      0.2591
    100  O         33.8960   -2.3780   30.6910 O.2   125  LEU125     -0.2718
    101  CB        35.0630   -2.6450   27.5830 C.3   125  LEU125      0.0284
    102  CG        35.7150   -3.8840   28.2090 C.3   125  LEU125      0.0019
    103  CD1       34.7070   -5.0410   28.3500 C.3   125  LEU125      0.0001
    104  CD2       36.9130   -4.3370   27.3860 C.3   125  LEU125      0.0001
    105  N         34.8620   -0.5230   29.8340 N.am  126  ALA126     -0.1980
    106  CA        35.2060    0.0190   31.1340 C.3   126  ALA126      0.1597
    107  C         33.9640    0.2560   32.0090 C.2   126  ALA126      0.2287
    108  O         33.9920   -0.0020   33.2140 O.2   126  ALA126     -0.2864
    109  CB        36.0310    1.3040   30.9830 C.3   126  ALA126      0.0319
    110  N         32.9660   -2.9370   33.5730 N.3   129  MET129     -0.1245
    111  CA        33.8840   -3.3500   34.6150 C.3   129  MET129      0.1570
    112  C         33.7660   -2.4670   35.8700 C.2   129  MET129      0.2261
    113  O         33.8010   -2.9660   37.0010 O.2   129  MET129     -0.2867
    114  CB        35.3110   -3.3890   34.0610 C.3   129  MET129      0.0387
    115  CG        35.4820   -4.4470   32.9290 C.3   129  MET129      0.0595
    116  SD        37.1120   -4.3810   32.1960 S.3   129  MET129     -0.1393
    117  CE        38.0840   -5.0510   33.5510 C.3   129  MET129      0.0692
@<TRIPOS>BOND
     1    85    86    1
     2    86    89    1
     3    86    87    1
     4    89    90    1
     5    87    88    2
     6    90    91   ar
     7    90    92   ar
     8   104   102    1
     9    91    93   ar
    10    97    98    1
    11   101   102    1
    12   101    98    1
    13    92    94   ar
    14   102   103    1
    15    98    99    1
    16    81    80    2
    17    93    95   ar
    18    94    95   ar
    19    95    96    1
    20    80    79    1
    21    99   105   am
    22    99   100    2
    23   105   106    1
    24    83    82    1
    25    74    73    2
    26   109   106    1
    27    79    82    1
    28    79    78    1
    29   106   107    1
    30     8     6    1
    31    82    84    1
    32    73    78   am
    33    73    72    1
    34   107   108    2
    35    62    61    2
    36   116   115    1
    37   116   117    1
    38    72    71    1
    39    72    75    1
    40     7     6    1
    41     6     5    1
    42   115   114    1
    43     5     2    1
    44    61    60    1
    45    77    75    1
    46    19    17    1
    47   110   111    1
    48    65    67   ar
    49    65    64   ar
    50    75    76    1
    51   114   111    1
    52    67    69   ar
    53    63    60    1
    54    63    64    1
    55    60    59    1
    56     2     1    1
    57     2     3    1
    58    64    66   ar
    59    17    18    1
    60    17    16    2
    61   111   112    1
    62    28    29   ar
    63    28    26   ar
    64    29    27   ar
    65    52    51    2
    66    69    70    1
    67    69    68   ar
    68    16    15    1
    69    59    51   am
    70     3     4    2
    71    26    25   ar
    72    27    25   ar
    73   112   113    2
    74    51    50    1
    75    66    68   ar
    76    25    24    1
    77    15    14    1
    78    41    40    1
    79    39    40   ar
    80    39    37   ar
    81    50    53    1
    82    50    49    1
    83    14    13    1
    84    40    38   ar
    85    24    21    1
    86    53    54    1
    87    13    10    1
    88    37    35   ar
    89    47    46    1
    90    20    21    1
    91    20    11   am
    92    48    46    1
    93    21    22    1
    94    38    36   ar
    95     9    10    1
    96    10    11    1
    97    54    56   ar
    98    54    55   ar
    99    46    43    1
   100    35    36   ar
   101    35    34    1
   102    11    12    2
   103    56    58   ar
   104    55    57   ar
   105    34    31    1
   106    22    23    2
   107    43    44    1
   108    43    42    1
   109    58    57   ar
   110    44    45    2
   111    31    30    1
   112    31    32    1
   113    33    32    2
