@<TRIPOS>MOLECULE
tmp/3wfxB00.pdb
 101 98 0 0 0
SMALL
GASTEIGER

@<TRIPOS>ATOM
      1  N        -19.5330    0.1720   -7.7460 N.3    28  TYR28      -0.1241
      2  CA       -19.6870   -1.1870   -7.2620 C.3    28  TYR28       0.1605
      3  C        -20.8850   -1.3030   -6.3300 C.2    28  TYR28       0.2264
      4  O        -21.5870   -2.3130   -6.3260 O.2    28  TYR28      -0.2867
      5  CB       -18.3970   -1.6990   -6.6270 C.3    28  TYR28       0.0534
      6  CG       -17.3980   -2.0660   -7.6900 C.ar   28  TYR28      -0.0201
      7  CD1      -17.5520   -3.2240   -8.4360 C.ar   28  TYR28      -0.0009
      8  CD2      -16.3230   -1.2330   -7.9810 C.ar   28  TYR28      -0.0009
      9  CE1      -16.6440   -3.5580   -9.4420 C.ar   28  TYR28       0.0417
     10  CE2      -15.4160   -1.5550   -8.9800 C.ar   28  TYR28       0.0417
     11  CZ       -15.5790   -2.7160   -9.7080 C.ar   28  TYR28       0.1957
     12  OH       -14.6660   -3.0390  -10.7040 O.3    28  TYR28      -0.2866
     13  N        -23.9020   -1.4360   -8.8710 N.3    31  LEU31      -0.1245
     14  CA       -23.9290   -2.7400   -9.5400 C.3    31  LEU31       0.1561
     15  C        -24.4690   -3.8380   -8.6200 C.2    31  LEU31       0.2260
     16  O        -25.3110   -4.6450   -9.0180 O.2    31  LEU31      -0.2867
     17  CB       -22.5160   -3.1280  -10.0310 C.3    31  LEU31       0.0270
     18  CG       -22.4380   -4.3870  -10.8930 C.3    31  LEU31       0.0019
     19  CD1      -23.3040   -4.2090  -12.1410 C.3    31  LEU31       0.0001
     20  CD2      -20.9880   -4.7260  -11.2770 C.3    31  LEU31       0.0001
     21  N        -24.2740  -11.0150   -9.4560 N.3    38  VAL38      -0.1245
     22  CA       -22.9120  -10.9860   -9.9940 C.3    38  VAL38       0.1561
     23  C        -21.8540  -10.6980   -8.9350 C.2    38  VAL38       0.2260
     24  O        -20.6560  -10.7980   -9.2130 O.2    38  VAL38      -0.2867
     25  CB       -22.7490   -9.9730  -11.1480 C.3    38  VAL38       0.0252
     26  CG1      -23.6920  -10.3170  -12.3100 C.3    38  VAL38       0.0019
     27  CG2      -22.9600   -8.5570  -10.6500 C.3    38  VAL38       0.0019
     28  N        -18.6650  -12.8020   -8.4040 N.3    41  LEU41      -0.1231
     29  CA       -17.6710  -12.8130   -9.4760 C.3    41  LEU41       0.1693
     30  C        -16.4520  -11.9590   -9.1340 C.2    41  LEU41       0.2592
     31  O        -15.3540  -12.2070   -9.6190 O.2    41  LEU41      -0.2718
     32  CB       -18.2870  -12.3060  -10.7800 C.3    41  LEU41       0.0284
     33  CG       -18.6680  -13.3340  -11.8350 C.3    41  LEU41       0.0019
     34  CD1      -19.4980  -14.4510  -11.2550 C.3    41  LEU41       0.0001
     35  CD2      -19.4040  -12.6390  -12.9680 C.3    41  LEU41       0.0001
     36  N        -16.6550  -10.9480   -8.2990 N.am   42  PHE42      -0.1962
     37  CA       -15.6220   -9.9570   -8.0580 C.3    42  PHE42       0.1771
     38  C        -14.7710  -10.2770   -6.8480 C.2    42  PHE42       0.2619
     39  O        -15.2550  -10.8250   -5.8640 O.2    42  PHE42      -0.2715
     40  CB       -16.2530   -8.5740   -7.9220 C.3    42  PHE42       0.0574
     41  CG       -16.8550   -8.0820   -9.1930 C.ar   42  PHE42      -0.0200
     42  CD1      -18.1450   -8.4360   -9.5430 C.ar   42  PHE42      -0.0042
     43  CD2      -16.1190   -7.2970  -10.0650 C.ar   42  PHE42      -0.0042
     44  CE1      -18.7000   -7.9990  -10.7300 C.ar   42  PHE42      -0.0003
     45  CE2      -16.6700   -6.8580  -11.2500 C.ar   42  PHE42      -0.0003
     46  CZ       -17.9570   -7.2110  -11.5860 C.ar   42  PHE42      -0.0000
     47  N        -13.4890   -9.9470   -6.9370 N.am   43  LYS43      -0.1977
     48  CA       -12.5990  -10.1270   -5.8020 C.3    43  LYS43       0.1596
     49  C        -12.8490   -9.0370   -4.7740 C.2    43  LYS43       0.2287
     50  O        -12.9600   -7.8560   -5.1080 O.2    43  LYS43      -0.2864
     51  CB       -11.1390  -10.1620   -6.2450 C.3    43  LYS43       0.0298
     52  CG       -10.7860  -11.4170   -7.0290 C.3    43  LYS43       0.0038
     53  CD       -10.8770  -12.6580   -6.1490 C.3    43  LYS43       0.0206
     54  CE       -11.6320  -13.7870   -6.8420 C.3    43  LYS43       0.1093
     55  NZ       -13.1120  -13.6210   -6.7650 N.3    43  LYS43      -0.1314
     56  N         -9.8590   -0.3240   -9.7770 N.3    52  LYS52      -0.1245
     57  CA       -10.5590   -1.3250  -10.5790 C.3    52  LYS52       0.1561
     58  C        -11.4700   -0.6940  -11.6130 C.2    52  LYS52       0.2260
     59  O        -11.5340   -1.1760  -12.7400 O.2    52  LYS52      -0.2867
     60  CB       -11.3870   -2.2900   -9.7140 C.3    52  LYS52       0.0271
     61  CG       -10.6110   -3.0540   -8.6420 C.3    52  LYS52       0.0035
     62  CD        -9.4730   -3.8640   -9.2280 C.3    52  LYS52       0.0206
     63  CE        -9.2580   -5.1520   -8.4370 C.3    52  LYS52       0.1093
     64  NZ        -8.9870   -4.9000   -6.9910 N.3    52  LYS52      -0.1314
     65  N         -9.2140    0.9220  -14.4000 N.3    55  ASP55      -0.1225
     66  CA        -8.7410   -0.0340  -15.4050 C.3    55  ASP55       0.1805
     67  C         -9.7790   -0.1960  -16.5200 C.2    55  ASP55       0.2597
     68  O         -9.4370   -0.3110  -17.7050 O.2    55  ASP55      -0.2718
     69  CB        -8.4860   -1.4070  -14.7720 C.3    55  ASP55       0.1424
     70  CG        -7.2750   -1.4210  -13.8500 C.2    55  ASP55       0.3668
     71  OD1       -6.4450   -0.4970  -13.9440 O.co2  55  ASP55      -0.2456
     72  OD2       -7.1520   -2.3680  -13.0400 O.co2  55  ASP55      -0.2456
     73  N        -11.0510   -0.2140  -16.1280 N.am   56  VAL56      -0.1980
     74  CA       -12.1410   -0.4290  -17.0690 C.3    56  VAL56       0.1595
     75  C        -12.2730    0.7780  -17.9870 C.2    56  VAL56       0.2287
     76  O        -12.2710    0.6470  -19.2260 O.2    56  VAL56      -0.2864
     77  CB       -13.5030   -0.6810  -16.3320 C.3    56  VAL56       0.0276
     78  CG1      -14.6030   -0.9930  -17.3420 C.3    56  VAL56       0.0022
     79  CG2      -13.3810   -1.8220  -15.3590 C.3    56  VAL56       0.0022
     80  N         -9.3130    1.2260  -20.2880 N.3    59  TRP59      -0.1227
     81  CA        -9.3160    0.2320  -21.3520 C.3    59  TRP59       0.1737
     82  C        -10.2310    0.7100  -22.4650 C.2    59  TRP59       0.2595
     83  O         -9.8440    0.7370  -23.6400 O.2    59  TRP59      -0.2718
     84  CB        -9.7580   -1.1390  -20.8290 C.3    59  TRP59       0.0564
     85  CG        -9.2630   -2.2730  -21.6770 C.ar   59  TRP59       0.0003
     86  CD1       -8.2180   -3.1130  -21.4060 C.ar   59  TRP59       0.0946
     87  CD2       -9.7780   -2.6720  -22.9530 C.ar   59  TRP59       0.0152
     88  NE1       -8.0550   -4.0130  -22.4380 N.ar   59  TRP59      -0.2442
     89  CE2       -8.9980   -3.7600  -23.4000 C.ar   59  TRP59       0.0810
     90  CE3      -10.8300   -2.2230  -23.7550 C.ar   59  TRP59       0.0012
     91  CZ2       -9.2470   -4.4060  -24.6040 C.ar   59  TRP59       0.0191
     92  CZ3      -11.0680   -2.8670  -24.9640 C.ar   59  TRP59       0.0001
     93  CH2      -10.2820   -3.9420  -25.3710 C.ar   59  TRP59       0.0015
     94  N        -11.4400    1.1090  -22.0880 N.am   60  ILE60      -0.1980
     95  CA       -12.4140    1.6080  -23.0560 C.3    60  ILE60       0.1595
     96  C        -11.8870    2.7720  -23.9080 C.2    60  ILE60       0.2287
     97  O        -11.9410    2.7190  -25.1370 O.2    60  ILE60      -0.2864
     98  CB       -13.7260    1.9880  -22.3570 C.3    60  ILE60       0.0276
     99  CG1      -14.4560    0.7190  -21.9080 C.3    60  ILE60       0.0022
    100  CG2      -14.6210    2.7960  -23.2760 C.3    60  ILE60       0.0022
    101  CD1      -15.6510    0.9950  -20.9560 C.3    60  ILE60       0.0001
@<TRIPOS>BOND
     1    93    92   ar
     2    93    91   ar
     3    97    96    2
     4    92    90   ar
     5    91    89   ar
     6    96    95    1
     7    90    87   ar
     8    83    82    2
     9    89    87   ar
    10    89    88   ar
    11   100    98    1
    12    95    98    1
    13    95    94    1
    14    87    85   ar
    15    82    94   am
    16    82    81    1
    17    88    86   ar
    18    98    99    1
    19    99   101    1
    20    85    86   ar
    21    85    84    1
    22    81    84    1
    23    81    80    1
    24    76    75    2
    25    75    74    1
    26    68    67    2
    27    78    77    1
    28    74    77    1
    29    74    73    1
    30    67    73   am
    31    67    66    1
    32    77    79    1
    33    66    69    1
    34    66    65    1
    35    69    70    1
    36    71    70   ar
    37    70    72   ar
    38    35    33    1
    39    59    58    2
    40    26    25    1
    41    19    18    1
    42    33    34    1
    43    33    32    1
    44    58    57    1
    45    46    45   ar
    46    46    44   ar
    47    20    18    1
    48    45    43   ar
    49    25    27    1
    50    25    22    1
    51    18    17    1
    52    32    29    1
    53    44    42   ar
    54    12    11    1
    55    57    56    1
    56    57    60    1
    57    43    41   ar
    58    17    14    1
    59    22    21    1
    60    22    23    1
    61    60    61    1
    62    11     9   ar
    63    11    10   ar
    64    31    30    2
    65    42    41   ar
    66    14    13    1
    67    14    15    1
    68    29    30    1
    69    29    28    1
    70     9     7   ar
    71    62    61    1
    72    62    63    1
    73    24    23    2
    74    41    40    1
    75    30    36   am
    76    16    15    2
    77    10     8   ar
    78    63    64    1
    79     7     6   ar
    80    36    37    1
    81    37    40    1
    82    37    38    1
    83     8     6   ar
    84     1     2    1
    85     6     5    1
    86     2     5    1
    87     2     3    1
    88    52    51    1
    89    52    53    1
    90    47    38   am
    91    47    48    1
    92    38    39    2
    93    54    55    1
    94    54    53    1
    95     3     4    2
    96    51    48    1
    97    48    49    1
    98    50    49    2
