@<TRIPOS>MOLECULE
tmp/3wfxB03.pdb
 85 83 0 0 0
SMALL
GASTEIGER

@<TRIPOS>ATOM
      1  N        -23.1360    2.2450  -53.5450 N.3    92  PRO92      -0.2116
      2  CA       -23.8890    0.9980  -53.7230 C.3    92  PRO92       0.1372
      3  C        -23.7300    0.3390  -55.0930 C.2    92  PRO92       0.2244
      4  O        -23.5920   -0.8760  -55.1280 O.2    92  PRO92      -0.2868
      5  CB       -25.3520    1.4320  -53.5150 C.3    92  PRO92       0.0268
      6  CG       -25.2610    2.6130  -52.5960 C.3    92  PRO92       0.0207
      7  CD       -23.9810    3.3240  -52.9810 C.3    92  PRO92       0.0892
      8  N        -20.2850   -1.3370  -55.3100 N.3    95  GLY95      -0.1210
      9  CA       -20.3040   -2.5690  -54.5330 C.3    95  GLY95       0.1956
     10  C        -21.0200   -3.7070  -55.2350 C.2    95  GLY95       0.2611
     11  O        -20.5250   -4.8320  -55.3030 O.2    95  GLY95      -0.2717
     12  N        -22.1980   -3.4160  -55.7640 N.am   96  HIS96      -0.1975
     13  CA       -22.9660   -4.4300  -56.4780 C.3    96  HIS96       0.1656
     14  C        -22.1520   -4.9650  -57.6670 C.2    96  HIS96       0.2291
     15  O        -22.1560   -6.1580  -57.9660 O.2    96  HIS96      -0.2864
     16  CB       -24.2710   -3.8160  -56.9820 C.3    96  HIS96       0.0771
     17  CG       -25.2170   -4.8090  -57.5820 C.ar   96  HIS96       0.0820
     18  ND1      -25.1740   -5.1690  -58.9130 N.ar   96  HIS96      -0.2267
     19  CD2      -26.2380   -5.5120  -57.0310 C.ar   96  HIS96       0.1154
     20  CE1      -26.1240   -6.0560  -59.1570 C.ar   96  HIS96       0.1986
     21  NE2      -26.7870   -6.2770  -58.0320 N.ar   96  HIS96      -0.2212
     22  N        -19.1160   -7.2350  -56.5290 N.3    99  ILE99      -0.1231
     23  CA       -19.5510   -8.5640  -56.1120 C.3    99  ILE99       0.1692
     24  C        -20.1400   -9.3420  -57.2950 C.2    99  ILE99       0.2592
     25  O        -19.9580  -10.5520  -57.3960 O.2    99  ILE99      -0.2718
     26  CB       -20.5310   -8.4740  -54.9260 C.3    99  ILE99       0.0266
     27  CG1      -19.8150   -7.8700  -53.7140 C.3    99  ILE99       0.0019
     28  CG2      -21.0690   -9.8560  -54.5520 C.3    99  ILE99       0.0020
     29  CD1      -20.7270   -7.5370  -52.5310 C.3    99  ILE99       0.0001
     30  N        -20.8020   -8.6400  -58.2090 N.am  100  TRP100     -0.1976
     31  CA       -21.2640   -9.2520  -59.4630 C.3   100  TRP100      0.1640
     32  C        -20.0960   -9.8420  -60.2600 C.2   100  TRP100      0.2290
     33  O        -20.1730  -10.9570  -60.7940 O.2   100  TRP100     -0.2864
     34  CB       -22.0120   -8.2140  -60.3010 C.3   100  TRP100      0.0576
     35  CG       -22.6670   -8.7450  -61.5460 C.ar  100  TRP100      0.0006
     36  CD1      -23.9490   -9.2160  -61.6710 C.ar  100  TRP100      0.0946
     37  CD2      -22.0790   -8.8340  -62.8450 C.ar  100  TRP100      0.0152
     38  NE1      -24.1830   -9.6060  -62.9680 N.ar  100  TRP100     -0.2442
     39  CE2      -23.0530   -9.3770  -63.7110 C.ar  100  TRP100      0.0810
     40  CE3      -20.8220   -8.5130  -63.3610 C.ar  100  TRP100      0.0012
     41  CZ2      -22.8050   -9.6050  -65.0610 C.ar  100  TRP100      0.0191
     42  CZ3      -20.5830   -8.7290  -64.7040 C.ar  100  TRP100      0.0001
     43  CH2      -21.5660   -9.2740  -65.5380 C.ar  100  TRP100      0.0015
     44  N        -21.1070  -14.6070  -50.9130 N.3   115  GLU115     -0.1245
     45  CA       -21.7460  -13.3650  -51.3210 C.3   115  GLU115      0.1567
     46  C        -22.1530  -12.5120  -50.1250 C.2   115  GLU115      0.2260
     47  O        -22.0420  -11.2820  -50.1530 O.2   115  GLU115     -0.2867
     48  CB       -22.9450  -13.6470  -52.2260 C.3   115  GLU115      0.0388
     49  CG       -23.5960  -12.4060  -52.7690 C.3   115  GLU115      0.1160
     50  CD       -24.3480  -12.6720  -54.0500 C.2   115  GLU115      0.3649
     51  OE1      -24.1640  -13.7620  -54.6300 O.co2 115  GLU115     -0.2457
     52  OE2      -25.1240  -11.7900  -54.4760 O.co2 115  GLU115     -0.2457
     53  N        -20.4260   -8.8890  -49.2120 N.3   119  THR119     -0.1218
     54  CA       -21.4000   -7.8220  -48.9570 C.3   119  THR119      0.1862
     55  C        -21.1520   -7.1430  -47.6170 C.2   119  THR119      0.2287
     56  O        -21.1290   -5.9230  -47.5370 O.2   119  THR119     -0.2866
     57  CB       -22.8510   -8.3260  -48.9960 C.3   119  THR119      0.1770
     58  OG1      -23.1120   -8.8980  -50.2760 O.3   119  THR119     -0.2211
     59  CG2      -23.8380   -7.1750  -48.7520 C.3   119  THR119      0.0375
     60  N        -17.8460   -5.1770  -47.8370 N.3   122  TYR122     -0.1227
     61  CA       -18.0020   -3.9510  -48.6260 C.3   122  TYR122      0.1736
     62  C        -18.8390   -2.8980  -47.9020 C.2   122  TYR122      0.2595
     63  O        -18.4640   -1.7310  -47.8630 O.2   122  TYR122     -0.2718
     64  CB       -18.6310   -4.2090  -49.9920 C.3   122  TYR122      0.0548
     65  CG       -18.6500   -2.9570  -50.8320 C.ar  122  TYR122     -0.0200
     66  CD1      -17.5710   -2.6270  -51.6460 C.ar  122  TYR122     -0.0009
     67  CD2      -19.7360   -2.0950  -50.8020 C.ar  122  TYR122     -0.0009
     68  CE1      -17.5730   -1.4630  -52.3950 C.ar  122  TYR122      0.0417
     69  CE2      -19.7520   -0.9380  -51.5460 C.ar  122  TYR122      0.0417
     70  CZ       -18.6740   -0.6310  -52.3490 C.ar  122  TYR122      0.1957
     71  OH       -18.7050    0.5270  -53.0840 O.3   122  TYR122     -0.2866
     72  N        -19.9900   -3.3010  -47.3710 N.am  123  GLU123     -0.1979
     73  CA       -20.8840   -2.3360  -46.7230 C.3   123  GLU123      0.1602
     74  C        -20.2680   -1.6700  -45.4900 C.2   123  GLU123      0.2287
     75  O        -20.4690   -0.4890  -45.2670 O.2   123  GLU123     -0.2864
     76  CB       -22.2410   -2.9610  -46.3950 C.3   123  GLU123      0.0415
     77  CG       -22.9850   -3.4270  -47.6380 C.3   123  GLU123      0.1163
     78  CD       -24.4470   -3.7360  -47.3970 C.2   123  GLU123      0.3649
     79  OE1      -24.7650   -4.4270  -46.4040 O.co2 123  GLU123     -0.2457
     80  OE2      -25.2750   -3.2900  -48.2190 O.co2 123  GLU123     -0.2457
     81  N        -17.6770    0.8280  -46.9120 N.3   126  ALA126     -0.1245
     82  CA       -18.3570    1.9470  -47.5680 C.3   126  ALA126      0.1562
     83  C        -18.9730    2.8680  -46.5340 C.2   126  ALA126      0.2260
     84  O        -19.0070    4.0820  -46.7180 O.2   126  ALA126     -0.2867
     85  CB       -19.4530    1.4440  -48.5150 C.3   126  ALA126      0.0290
@<TRIPOS>BOND
     1    43    41   ar
     2    43    42   ar
     3    41    39   ar
     4    42    40   ar
     5    39    38   ar
     6    39    37   ar
     7    40    37   ar
     8    38    36   ar
     9    37    35   ar
    10    36    35   ar
    11    35    34    1
    12    33    32    2
    13    34    31    1
    14    32    31    1
    15    31    30    1
    16    20    18   ar
    17    20    21   ar
    18    18    17   ar
    19    30    24   am
    20    21    19   ar
    21    15    14    2
    22    14    13    1
    23    17    19   ar
    24    17    16    1
    25    25    24    2
    26    24    23    1
    27    16    13    1
    28    22    23    1
    29    13    12    1
    30    23    26    1
    31    12    10   am
    32     8     9    1
    33    11    10    2
    34    10     9    1
    35     4     3    2
    36     3     2    1
    37    26    28    1
    38    26    27    1
    39    51    50   ar
    40    52    50   ar
    41    50    49    1
    42     2     1    1
    43     2     5    1
    44    27    29    1
    45     1     7    1
    46     5     6    1
    47    71    70    1
    48     7     6    1
    49    49    48    1
    50    68    70   ar
    51    68    66   ar
    52    70    69   ar
    53    48    45    1
    54    66    65   ar
    55    69    67   ar
    56    45    44    1
    57    45    46    1
    58    65    67   ar
    59    65    64    1
    60    58    57    1
    61    47    46    2
    62    64    61    1
    63    53    54    1
    64    57    54    1
    65    57    59    1
    66    54    55    1
    67    61    62    1
    68    61    60    1
    69    85    82    1
    70    80    78   ar
    71    62    63    2
    72    62    72   am
    73    77    78    1
    74    77    76    1
    75    55    56    2
    76    82    81    1
    77    82    83    1
    78    78    79   ar
    79    72    73    1
    80    73    76    1
    81    73    74    1
    82    84    83    2
    83    74    75    2
