@<TRIPOS>MOLECULE
tmp/3wg3A00.pdb
 147 136 0 0 0
SMALL
GASTEIGER

@<TRIPOS>ATOM
      1  N         49.5690  -42.7250  -11.2710 N.3    49  ASN49      -0.1225
      2  CA        49.1330  -42.8900   -9.8930 C.3    49  ASN49       0.1785
      3  C         47.9880  -41.9140   -9.5920 C.2    49  ASN49       0.2598
      4  O         48.0390  -40.7430   -9.9810 O.2    49  ASN49      -0.2718
      5  CB        50.3250  -42.7040   -8.9550 C.3    49  ASN49       0.1169
      6  CG        51.3650  -43.7940   -9.1230 C.2    49  ASN49       0.2627
      7  OD1       51.1010  -44.8230   -9.7480 O.2    49  ASN49      -0.2716
      8  ND2       52.5460  -43.5870   -8.5500 N.am   49  ASN49      -0.0877
      9  N         46.9490  -42.4260   -8.9370 N.am   50  THR50      -0.1939
     10  CA        45.6980  -41.7040   -8.7470 C.3    50  THR50       0.2028
     11  C         45.2830  -41.8160   -7.2900 C.2    50  THR50       0.2642
     12  O         45.2120  -42.9190   -6.7590 O.2    50  THR50      -0.2714
     13  CB        44.5860  -42.3150   -9.6270 C.3    50  THR50       0.1808
     14  OG1       44.9480  -42.2280  -11.0120 O.3    50  THR50      -0.2208
     15  CG2       43.2680  -41.5910   -9.4220 C.3    50  THR50       0.0379
     16  N         45.0220  -40.6820   -6.6450 N.am   51  ALA51      -0.1977
     17  CA        44.6720  -40.6770   -5.2290 C.3    51  ALA51       0.1597
     18  C         43.3400  -40.0050   -4.9390 C.2    51  ALA51       0.2287
     19  O         42.9440  -39.0470   -5.6200 O.2    51  ALA51      -0.2864
     20  CB        45.7770  -40.0380   -4.3950 C.3    51  ALA51       0.0319
     21  N         41.5100  -38.3080   -1.4630 N.3    53  ASN53      -0.1240
     22  CA        41.9810  -37.7420   -0.1990 C.3    53  ASN53       0.1653
     23  C         40.8630  -37.1880    0.6600 C.2    53  ASN53       0.2266
     24  O         39.9170  -36.5740    0.1470 O.2    53  ASN53      -0.2867
     25  CB        42.9450  -36.5930   -0.4760 C.3    53  ASN53       0.1155
     26  CG        44.1500  -37.0310   -1.2680 C.2    53  ASN53       0.2627
     27  OD1       44.9500  -37.8290   -0.7900 O.2    53  ASN53      -0.2716
     28  ND2       44.2860  -36.5120   -2.4770 N.am   53  ASN53      -0.0877
     29  N         44.9750  -40.4560    2.7250 N.3    64  HIS64      -0.1241
     30  CA        45.3810  -40.4130    1.3240 C.3    64  HIS64       0.1621
     31  C         45.3680  -41.8380    0.8440 C.2    64  HIS64       0.2264
     32  O         46.0020  -42.7100    1.4530 O.2    64  HIS64      -0.2867
     33  CB        46.7760  -39.7970    1.2790 C.3    64  HIS64       0.0745
     34  CG        47.5340  -39.9640   -0.0230 C.ar   64  HIS64       0.0817
     35  ND1       47.3220  -39.1800   -1.1070 N.ar   64  HIS64      -0.2268
     36  CD2       48.6130  -40.7860   -0.3430 C.ar   64  HIS64       0.1154
     37  CE1       48.2130  -39.5070   -2.0770 C.ar   64  HIS64       0.1986
     38  NE2       48.9910  -40.4950   -1.6120 N.ar   64  HIS64      -0.2212
     39  N         46.2270  -43.8940   -2.4270 N.3    66  ALA66      -0.1245
     40  CA        46.8950  -43.7970   -3.7270 C.3    66  ALA66       0.1562
     41  C         46.8840  -45.1410   -4.4450 C.2    66  ALA66       0.2260
     42  O         47.4950  -46.1180   -3.9930 O.2    66  ALA66      -0.2867
     43  CB        48.3210  -43.2880   -3.5670 C.3    66  ALA66       0.0290
     44  N         48.2110  -47.1900   -7.3530 N.3    68  ARG68      -0.1245
     45  CA        49.4130  -47.1540   -8.1860 C.3    68  ARG68       0.1563
     46  C         49.4480  -48.3830   -9.0790 C.2    68  ARG68       0.2260
     47  O         49.8810  -49.4580   -8.6610 O.2    68  ARG68      -0.2867
     48  CB        50.6660  -47.0800   -7.3120 C.3    68  ARG68       0.0307
     49  CG        50.6920  -45.8900   -6.3710 C.3    68  ARG68       0.0489
     50  CD        52.0720  -45.7500   -5.7650 C.3    68  ARG68       0.2205
     51  NE        52.1640  -44.6290   -4.8320 N.pl3  68  ARG68      -0.0865
     52  CZ        53.1990  -44.4410   -4.0200 C.cat  68  ARG68       0.5346
     53  NH1       54.2170  -45.2950   -4.0340 N.pl3  68  ARG68       0.1354
     54  NH2       53.2170  -43.4090   -3.1950 N.pl3  68  ARG68       0.1354
     55  N         53.2390  -49.7720  -10.1520 N.3    71  GLU71      -0.1245
     56  CA        53.8650  -50.3560   -8.9720 C.3    71  GLU71       0.1567
     57  C         53.0080  -51.4940   -8.4010 C.2    71  GLU71       0.2260
     58  O         53.4920  -52.3350   -7.6360 O.2    71  GLU71      -0.2867
     59  CB        54.0890  -49.2640   -7.9280 C.3    71  GLU71       0.0388
     60  CG        54.9870  -49.6880   -6.7870 C.3    71  GLU71       0.1160
     61  CD        55.3040  -48.5700   -5.8240 C.2    71  GLU71       0.3649
     62  OE1       55.9790  -48.8620   -4.8240 O.co2  71  GLU71      -0.2457
     63  OE2       54.8880  -47.4120   -6.0520 O.co2  71  GLU71      -0.2457
     64  N         48.4680  -47.4510   -1.7030 N.3    75  VAL75      -0.1245
     65  CA        49.1530  -46.8670   -0.5520 C.3    75  VAL75       0.1561
     66  C         48.1800  -46.0240    0.2620 C.2    75  VAL75       0.2260
     67  O         47.4500  -45.1930   -0.2880 O.2    75  VAL75      -0.2867
     68  CB        50.3410  -45.9830   -1.0130 C.3    75  VAL75       0.0252
     69  CG1       51.0310  -45.3470    0.1830 C.3    75  VAL75       0.0019
     70  CG2       51.3440  -46.7960   -1.8340 C.3    75  VAL75       0.0019
     71  N         48.0470  -43.4010    3.5660 N.3    77  ASN77      -0.1240
     72  CA        48.9350  -42.5900    4.4030 C.3    77  ASN77       0.1653
     73  C         48.2370  -41.3240    4.8800 C.2    77  ASN77       0.2266
     74  O         47.0860  -41.0490    4.5040 O.2    77  ASN77      -0.2867
     75  CB        50.2440  -42.2560    3.6570 C.3    77  ASN77       0.1155
     76  CG        51.4460  -42.1070    4.5890 C.2    77  ASN77       0.2627
     77  OD1       51.3160  -42.0850    5.8200 O.2    77  ASN77      -0.2716
     78  ND2       52.6320  -42.0060    3.9960 N.am   77  ASN77      -0.0877
     79  N         49.4120  -37.0090    6.2570 N.3    79  ARG79      -0.1245
     80  CA        50.4670  -35.9870    6.1970 C.3    79  ARG79       0.1563
     81  C         50.0030  -34.6900    6.8380 C.2    79  ARG79       0.2260
     82  O         48.9600  -34.1540    6.4710 O.2    79  ARG79      -0.2867
     83  CB        50.8660  -35.7110    4.7310 C.3    79  ARG79       0.0307
     84  CG        52.0810  -34.8190    4.5610 C.3    79  ARG79       0.0489
     85  CD        52.5440  -34.8500    3.1220 C.3    79  ARG79       0.2205
     86  NE        51.8210  -33.9410    2.2340 N.pl3  79  ARG79      -0.0865
     87  CZ        52.0510  -32.6280    2.1510 C.cat  79  ARG79       0.5346
     88  NH1       52.9600  -32.0420    2.9270 N.pl3  79  ARG79       0.1354
     89  NH2       51.3670  -31.8890    1.2880 N.pl3  79  ARG79       0.1354
     90  N         55.3960  -37.0370    4.5580 N.3    85  TRP85      -0.1241
     91  CA        54.4420  -38.1330    4.6860 C.3    85  TRP85       0.1605
     92  C         54.7530  -38.9910    5.8840 C.2    85  TRP85       0.2264
     93  O         55.9190  -39.1540    6.2590 O.2    85  TRP85      -0.2867
     94  CB        54.4670  -38.9810    3.4220 C.3    85  TRP85       0.0550
     95  CG        53.7850  -38.2990    2.2740 C.ar   85  TRP85       0.0003
     96  CD1       54.3690  -37.5930    1.2260 C.ar   85  TRP85       0.0946
     97  CD2       52.3420  -38.2120    2.0470 C.ar   85  TRP85       0.0152
     98  NE1       53.4020  -37.0970    0.3820 N.ar   85  TRP85      -0.2442
     99  CE2       52.1640  -37.4350    0.8230 C.ar   85  TRP85       0.0810
    100  CE3       51.2210  -38.6860    2.7170 C.ar   85  TRP85       0.0012
    101  CZ2       50.9050  -37.1540    0.3090 C.ar   85  TRP85       0.0191
    102  CZ3       49.9590  -38.3920    2.1940 C.ar   85  TRP85       0.0001
    103  CH2       49.8100  -37.6420    1.0190 C.ar   85  TRP85       0.0015
    104  N         53.5170  -45.3300    5.6060 N.3    88  GLU88      -0.1245
    105  CA        52.6180  -45.9570    4.6390 C.3    88  GLU88       0.1567
    106  C         52.0990  -47.3080    5.1100 C.2    88  GLU88       0.2260
    107  O         52.8280  -48.0910    5.7330 O.2    88  GLU88      -0.2867
    108  CB        53.3340  -46.1760    3.3130 C.3    88  GLU88       0.0388
    109  CG        53.6930  -44.8880    2.6100 C.3    88  GLU88       0.1160
    110  CD        54.3910  -45.0950    1.2810 C.2    88  GLU88       0.3649
    111  OE1       54.7460  -46.2390    0.9220 O.co2  88  GLU88      -0.2457
    112  OE2       54.5890  -44.0840    0.5880 O.co2  88  GLU88      -0.2457
    113  N         50.2960  -50.5310    2.9780 N.3    90  ARG90      -0.1245
    114  CA        50.1720  -50.9310    1.5790 C.3    90  ARG90       0.1563
    115  C         49.3270  -52.1730    1.4170 C.2    90  ARG90       0.2260
    116  O         49.3720  -53.0780    2.2500 O.2    90  ARG90      -0.2867
    117  CB        51.5530  -51.1690    0.9670 C.3    90  ARG90       0.0307
    118  CG        52.3650  -49.9050    0.8100 C.3    90  ARG90       0.0489
    119  CD        53.7340  -50.1830    0.2220 C.3    90  ARG90       0.2205
    120  NE        54.3570  -48.9190   -0.1640 N.pl3  90  ARG90      -0.0865
    121  CZ        54.9510  -48.6760   -1.3260 C.cat  90  ARG90       0.5346
    122  NH1       55.0730  -49.6280   -2.2480 N.pl3  90  ARG90       0.1354
    123  NH2       55.4370  -47.4660   -1.5560 N.pl3  90  ARG90       0.1354
    124  N         43.5070  -36.6150   -7.0910 N.3   142  ASN142     -0.1240
    125  CA        44.7830  -36.2980   -7.7410 C.3   142  ASN142      0.1653
    126  C         45.1860  -37.4120   -8.6990 C.2   142  ASN142      0.2266
    127  O         45.3780  -38.5480   -8.2890 O.2   142  ASN142     -0.2867
    128  CB        45.8770  -36.0920   -6.6770 C.3   142  ASN142      0.1155
    129  CG        47.1710  -35.5180   -7.2460 C.2   142  ASN142      0.2627
    130  OD1       47.3530  -35.4250   -8.4590 O.2   142  ASN142     -0.2716
    131  ND2       48.0790  -35.1300   -6.3560 N.am  142  ASN142     -0.0877
    132  N         47.9600  -37.1090  -10.7200 N.3   144  THR144     -0.1203
    133  CA        49.3180  -36.6950  -11.1180 C.3   144  THR144      0.1994
    134  C         49.2840  -35.8550  -12.4020 C.2   144  THR144      0.2617
    135  O         50.1310  -36.0010  -13.2830 O.2   144  THR144     -0.2717
    136  CB        50.2980  -37.8910  -11.2650 C.3   144  THR144      0.1784
    137  OG1       50.0950  -38.8290  -10.2050 O.3   144  THR144     -0.2211
    138  CG2       51.7510  -37.4240  -11.1910 C.3   144  THR144      0.0376
    139  N         48.2950  -34.9720  -12.5000 N.am  145  GLU145     -0.1979
    140  CA        48.1760  -34.0290  -13.6230 C.3   145  GLU145      0.1602
    141  C         47.9020  -34.7170  -14.9700 C.2   145  GLU145      0.2287
    142  O         48.0420  -34.0930  -16.0280 O.2   145  GLU145     -0.2864
    143  CB        49.4220  -33.1130  -13.7400 C.3   145  GLU145      0.0415
    144  CG        50.1030  -32.7000  -12.4270 C.3   145  GLU145      0.1163
    145  CD        49.1720  -32.0540  -11.4110 C.2   145  GLU145      0.3649
    146  OE1       49.4840  -32.1040  -10.2020 O.co2 145  GLU145     -0.2457
    147  OE2       48.1320  -31.4910  -11.8060 O.co2 145  GLU145     -0.2457
@<TRIPOS>BOND
     1   142   141    2
     2   141   140    1
     3   143   140    1
     4   143   144    1
     5   140   139    1
     6   135   134    2
     7   139   134   am
     8   144   145    1
     9   134   133    1
    10   147   145   ar
    11   145   146   ar
    12     1     2    1
    13   136   138    1
    14   136   133    1
    15   136   137    1
    16   133   132    1
    17    14    13    1
    18    55    56    1
    19     4     3    2
    20     2     3    1
    21     2     5    1
    22     7     6    2
    23    13    15    1
    24    13    10    1
    25     3     9   am
    26     6     5    1
    27     6     8   am
    28    46    47    2
    29    46    45    1
    30    56    57    1
    31    56    59    1
    32     9    10    1
    33    10    11    1
    34   126   127    2
    35   126   125    1
    36   130   129    2
    37    57    58    2
    38    45    44    1
    39    45    48    1
    40    59    60    1
    41   125   124    1
    42   125   128    1
    43    48    49    1
    44    11    12    2
    45    11    16   am
    46   129   128    1
    47   129   131   am
    48    60    61    1
    49    16    17    1
    50    49    50    1
    51    63    61   ar
    52    61    62   ar
    53    50    51    1
    54    19    18    2
    55    17    18    1
    56    17    20    1
    57    51    52    2
    58    41    42    2
    59    41    40    1
    60    53    52    1
    61    52    54    1
    62    40    43    1
    63    40    39    1
    64    28    26   am
    65   122   121    1
    66    37    38   ar
    67    37    35   ar
    68    70    68    1
    69    64    65    1
    70    38    36   ar
    71   123   121    1
    72    21    22    1
    73   121   120    2
    74    26    27    2
    75    26    25    1
    76    35    34   ar
    77    68    65    1
    78    68    69    1
    79    65    66    1
    80    25    22    1
    81    36    34   ar
    82    67    66    2
    83    22    23    1
    84   120   119    1
    85    34    33    1
    86    24    23    2
    87   119   118    1
    88   101    99   ar
    89   101   103   ar
    90    98    99   ar
    91    98    96   ar
    92   112   110   ar
    93   118   117    1
    94    99    97   ar
    95    31    30    1
    96    31    32    2
    97   111   110   ar
    98   117   114    1
    99   103   102   ar
   100    96    95   ar
   101    33    30    1
   102   110   109    1
   103    89    87    1
   104    30    29    1
   105   115   114    1
   106   115   116    2
   107   114   113    1
   108    97    95   ar
   109    97   100   ar
   110    87    86    2
   111    87    88    1
   112   102   100   ar
   113    86    85    1
   114    95    94    1
   115   109   108    1
   116    85    84    1
   117   108   105    1
   118    94    91    1
   119    71    72    1
   120    75    72    1
   121    75    76    1
   122    78    76   am
   123    72    73    1
   124    74    73    2
   125    90    91    1
   126    84    83    1
   127    76    77    2
   128   105   106    1
   129   105   104    1
   130    91    92    1
   131    83    80    1
   132   106   107    2
   133    92    93    2
   134    80    79    1
   135    80    81    1
   136    82    81    2
