@<TRIPOS>MOLECULE
tmp/3wg5A00.pdb
 186 179 0 0 0
SMALL
GASTEIGER

@<TRIPOS>ATOM
      1  N         29.5450   15.3430   13.0640 N.3    14  GLN14      -0.1245
      2  CA        29.2380   15.9580   14.3390 C.3    14  GLN14       0.1566
      3  C         27.8120   15.6400   14.7410 C.2    14  GLN14       0.2260
      4  O         26.8920   15.7050   13.9180 O.2    14  GLN14      -0.2867
      5  CB        29.4310   17.4750   14.2910 C.3    14  GLN14       0.0367
      6  CG        30.8660   17.9230   14.0310 C.3    14  GLN14       0.0905
      7  CD        31.7880   17.6970   15.2160 C.2    14  GLN14       0.2608
      8  OE1       32.7310   16.9050   15.1380 O.2    14  GLN14      -0.2717
      9  NE2       31.5190   18.3880   16.3240 N.am   14  GLN14      -0.0878
     10  N         21.7740   19.0420   16.4870 N.3    17  SER17      -0.1217
     11  CA        20.3100   19.0460   16.4030 C.3    17  SER17       0.1889
     12  C         19.8330   18.2820   15.1830 C.2    17  SER17       0.2288
     13  O         18.8530   17.5310   15.2480 O.2    17  SER17      -0.2866
     14  CB        19.7720   20.4730   16.3120 C.3    17  SER17       0.2089
     15  OG        20.3610   21.3110   17.2850 O.3    17  SER17      -0.2183
     16  N         33.1880   11.9910   15.3470 N.3    45  PRO45      -0.2102
     17  CA        34.3560   12.4590   16.1020 C.3    45  PRO45       0.1504
     18  C         33.9930   13.3410   17.2870 C.2    45  PRO45       0.2576
     19  O         34.8320   13.5790   18.1540 O.2    45  PRO45      -0.2718
     20  CB        35.1330   13.2890   15.0710 C.3    45  PRO45       0.0282
     21  CG        34.0870   13.8170   14.1630 C.3    45  PRO45       0.0208
     22  CD        32.9910   12.7630   14.1050 C.3    45  PRO45       0.0893
     23  N         32.7650   13.8390   17.3170 N.am   46  GLY46      -0.1943
     24  CA        32.3280   14.7260   18.3910 C.3    46  GLY46       0.2017
     25  C         30.9260   15.2590   18.1730 C.2    46  GLY46       0.2678
     26  O         30.2690   14.9240   17.1800 O.2    46  GLY46      -0.2710
     27  N         30.4650   16.0850   19.1080 N.am   47  GLY47      -0.1716
     28  CA        29.1350   16.6540   19.0290 C.2    47  GLY47       0.1480
     29  C         28.6800   17.3940   20.2620 C.2    47  GLY47       0.2820
     30  O         29.4520   17.6210   21.1940 O.2    47  GLY47      -0.2669
     31  N         27.4080   17.7680   20.2600 N.am   48  ARG48      -0.1929
     32  CA        26.8400   18.5640   21.3420 C.3    48  ARG48       0.1732
     33  C         26.0830   17.7050   22.3710 C.2    48  ARG48       0.2616
     34  O         25.3790   16.7480   22.0140 O.2    48  ARG48      -0.2715
     35  CB        25.9480   19.6610   20.7570 C.3    48  ARG48       0.0348
     36  CG        26.6970   20.6300   19.7930 C.3    48  ARG48       0.0492
     37  CD        27.2530   21.8570   20.5380 C.3    48  ARG48       0.2205
     38  NE        28.2100   22.6420   19.7490 N.pl3  48  ARG48      -0.0865
     39  CZ        28.7890   23.7790   20.1550 C.cat  48  ARG48       0.5346
     40  NH1       29.6460   24.4110   19.3590 N.pl3  48  ARG48       0.1354
     41  NH2       28.5180   24.2900   21.3530 N.pl3  48  ARG48       0.1354
     42  N         26.2480   18.0530   23.6470 N.am   49  ALA49      -0.1963
     43  CA        25.6190   17.3330   24.7510 C.3    49  ALA49       0.1728
     44  C         24.0930   17.2520   24.6330 C.2    49  ALA49       0.2616
     45  O         23.5120   16.1740   24.8280 O.2    49  ALA49      -0.2715
     46  CB        26.0220   17.9510   26.0810 C.3    49  ALA49       0.0334
     47  N         23.4510   18.3700   24.2970 N.am   50  ASP50      -0.1971
     48  CA        21.9850   18.4070   24.2200 C.3    50  ASP50       0.1709
     49  C         21.4040   17.4700   23.1500 C.2    50  ASP50       0.2293
     50  O         20.4440   16.7390   23.4080 O.2    50  ASP50      -0.2864
     51  CB        21.4310   19.8510   24.1120 C.3    50  ASP50       0.1436
     52  CG        21.8130   20.5720   22.8020 C.2    50  ASP50       0.3671
     53  OD1       21.0410   21.4720   22.4000 O.co2  50  ASP50      -0.2456
     54  OD2       22.8550   20.2750   22.1760 O.co2  50  ASP50      -0.2456
     55  N         23.0150   14.8330   21.8290 N.3    52  MET52      -0.1245
     56  CA        23.3900   13.5290   22.3720 C.3    52  MET52       0.1570
     57  C         22.3130   13.0100   23.3360 C.2    52  MET52       0.2261
     58  O         21.8180   11.8940   23.1690 O.2    52  MET52      -0.2867
     59  CB        24.7520   13.6480   23.0680 C.3    52  MET52       0.0387
     60  CG        25.2680   12.4070   23.7410 C.3    52  MET52       0.0595
     61  SD        24.7790   12.3530   25.4780 S.3    52  MET52      -0.1393
     62  CE        25.9070   13.5860   26.1620 C.3    52  MET52       0.0692
     63  N         33.6030   10.9210   21.9120 N.3    79  SER79      -0.1202
     64  CA        32.8590   12.0600   22.4460 C.3    79  SER79       0.2020
     65  C         31.3570   11.6970   22.5730 C.2    79  SER79       0.2618
     66  O         31.0420   10.6800   23.1920 O.2    79  SER79      -0.2717
     67  CB        33.1580   13.2930   21.5790 C.3    79  SER79       0.2103
     68  OG        32.3070   14.3910   21.8340 O.3    79  SER79      -0.2182
     69  N         30.4520   12.4750   21.9730 N.am   80  ALA80      -0.1979
     70  CA        28.9920   12.2520   22.0830 C.3    80  ALA80       0.1597
     71  C         28.5130   10.9030   21.5870 C.2    80  ALA80       0.2287
     72  O         27.5330   10.3630   22.1160 O.2    80  ALA80      -0.2864
     73  CB        28.2000   13.3600   21.3840 C.3    80  ALA80       0.0319
     74  N         28.3310    8.0400   24.3750 N.3    83  TYR83      -0.1241
     75  CA        27.0840    8.1060   25.1440 C.3    83  TYR83       0.1605
     76  C         25.9330    7.4960   24.3720 C.2    83  TYR83       0.2264
     77  O         25.1630    6.7090   24.9150 O.2    83  TYR83      -0.2867
     78  CB        26.7190    9.5510   25.4940 C.3    83  TYR83       0.0534
     79  CG        27.7180   10.2790   26.3760 C.ar   83  TYR83      -0.0201
     80  CD1       28.7900   10.9710   25.8170 C.ar   83  TYR83      -0.0009
     81  CD2       27.5810   10.2910   27.7660 C.ar   83  TYR83      -0.0009
     82  CE1       29.6990   11.6450   26.6050 C.ar   83  TYR83       0.0417
     83  CE2       28.4930   10.9610   28.5730 C.ar   83  TYR83       0.0417
     84  CZ        29.5510   11.6390   27.9830 C.ar   83  TYR83       0.1957
     85  OH        30.4710   12.3200   28.7520 O.3    83  TYR83      -0.2866
     86  N         36.9190    8.6030   24.8350 N.3   101  ALA101     -0.1231
     87  CA        37.3280   10.0210   24.8390 C.3   101  ALA101      0.1694
     88  C         36.1290   10.9650   24.9380 C.2   101  ALA101      0.2592
     89  O         35.7970   11.6540   23.9800 O.2   101  ALA101     -0.2718
     90  CB        38.1990   10.3500   23.6070 C.3   101  ALA101      0.0304
     91  N         35.4970   10.9830   26.1130 N.am  102  CYS102     -0.1956
     92  CA        34.1950   11.6260   26.3220 C.3   102  CYS102      0.1843
     93  C         34.2110   12.8110   27.2660 C.2   102  CYS102      0.2625
     94  O         33.1430   13.2300   27.7300 O.2   102  CYS102     -0.2714
     95  CB        33.2090   10.6170   26.9190 C.3   102  CYS102      0.0997
     96  SG        33.0660    9.1210   26.0300 S.3   102  CYS102     -0.0797
     97  N         35.4010   13.3230   27.5800 N.am  103  ARG103     -0.1964
     98  CA        35.5450   14.4780   28.4590 C.3   103  ARG103      0.1714
     99  C         34.6120   15.5860   27.9930 C.2   103  ARG103      0.2458
    100  O         34.6300   15.9440   26.8240 O.2   103  ARG103     -0.2730
    101  CB        36.9890   14.9910   28.4430 C.3   103  ARG103      0.0347
    102  CG        37.3440   15.9010   29.6050 C.3   103  ARG103      0.0492
    103  CD        38.8380   15.8350   29.9310 C.3   103  ARG103      0.2205
    104  NE        39.0810   15.9020   31.3750 N.pl3 103  ARG103     -0.0865
    105  CZ        39.6650   14.9470   32.0990 C.cat 103  ARG103      0.5346
    106  NH1       40.1050   13.8320   31.5260 N.pl3 103  ARG103      0.1354
    107  NH2       39.8260   15.1180   33.4060 N.pl3 103  ARG103      0.1354
    108  N         33.7660   16.1050   28.8970 N.am  104  PRO104     -0.2716
    109  CA        32.9720   17.2760   28.5410 C.3   104  PRO104      0.1536
    110  C         33.8240   18.5340   28.4800 C.2   104  PRO104      0.2598
    111  O         34.6520   18.7650   29.3680 O.2   104  PRO104     -0.2715
    112  CB        31.9520   17.3790   29.6820 C.3   104  PRO104      0.0310
    113  CG        32.5770   16.6450   30.8160 C.3   104  PRO104      0.0237
    114  CD        33.3680   15.5370   30.1970 C.3   104  PRO104      0.0939
    115  N         33.6300   19.3240   27.4290 N.am  105  ILE105     -0.1964
    116  CA        34.2630   20.6470   27.3170 C.3   105  ILE105      0.1727
    117  C         33.2470   21.7570   27.0460 C.2   105  ILE105      0.2616
    118  O         32.1500   21.5130   26.5190 O.2   105  ILE105     -0.2715
    119  CB        35.3710   20.7060   26.2250 C.3   105  ILE105      0.0290
    120  CG1       34.8030   20.3650   24.8460 C.3   105  ILE105      0.0022
    121  CG2       36.5390   19.7970   26.5940 C.3   105  ILE105      0.0023
    122  CD1       35.7580   20.6320   23.6950 C.3   105  ILE105      0.0001
    123  N         33.6310   22.9750   27.4150 N.am  106  LEU106     -0.1963
    124  CA        32.8800   24.1590   27.0470 C.3   106  LEU106      0.1728
    125  C         33.0690   24.5010   25.5710 C.2   106  LEU106      0.2617
    126  O         32.2690   25.2380   25.0030 O.2   106  LEU106     -0.2715
    127  CB        33.2540   25.3510   27.9400 C.3   106  LEU106      0.0311
    128  CG        32.3800   25.5980   29.1730 C.3   106  LEU106      0.0022
    129  CD1       32.9950   26.6960   30.0260 C.3   106  LEU106      0.0001
    130  CD2       30.9430   25.9630   28.7870 C.3   106  LEU106      0.0001
    131  N         34.1200   23.9650   24.9530 N.am  107  GLY107     -0.1940
    132  CA        34.3240   24.1460   23.5150 C.3   107  GLY107      0.2014
    133  C         35.7230   24.5690   23.1080 C.2   107  GLY107      0.2638
    134  O         36.7120   24.1860   23.7410 O.2   107  GLY107     -0.2714
    135  N         35.7960   25.3670   22.0500 N.am  108  TYR108     -0.1973
    136  CA        37.0730   25.7350   21.4530 C.3   108  TYR108      0.1639
    137  C         37.2920   27.2450   21.3640 C.2   108  TYR108      0.2290
    138  O         36.4280   27.9830   20.8820 O.2   108  TYR108     -0.2864
    139  CB        37.2180   25.0870   20.0650 C.3   108  TYR108      0.0560
    140  CG        37.0260   23.5750   20.0680 C.ar  108  TYR108     -0.0198
    141  CD1       35.8710   22.9970   19.5330 C.ar  108  TYR108     -0.0009
    142  CD2       37.9930   22.7280   20.6120 C.ar  108  TYR108     -0.0009
    143  CE1       35.6870   21.6120   19.5330 C.ar  108  TYR108      0.0417
    144  CE2       37.8180   21.3430   20.6180 C.ar  108  TYR108      0.0417
    145  CZ        36.6630   20.7930   20.0760 C.ar  108  TYR108      0.1957
    146  OH        36.4850   19.4250   20.0820 O.3   108  TYR108     -0.2866
    147  N         41.5930   24.1670   23.8210 N.3   114  ILE114     -0.1245
    148  CA        40.4930   23.5170   24.5010 C.3   114  ILE114      0.1561
    149  C         40.0080   24.4140   25.6420 C.2   114  ILE114      0.2260
    150  O         40.8080   24.8870   26.4530 O.2   114  ILE114     -0.2867
    151  CB        40.9300   22.0960   24.9910 C.3   114  ILE114      0.0252
    152  CG1       39.9310   21.0210   24.5520 C.3   114  ILE114      0.0019
    153  CG2       41.2490   22.0580   26.4940 C.3   114  ILE114      0.0019
    154  CD1       40.2130   20.4690   23.1600 C.3   114  ILE114      0.0001
    155  N         35.6610   22.4670   30.9840 N.3   117  ALA117     -0.1245
    156  CA        34.4790   22.7360   31.7820 C.3   117  ALA117      0.1562
    157  C         34.8780   22.8630   33.2530 C.2   117  ALA117      0.2260
    158  O         35.9380   22.3750   33.6450 O.2   117  ALA117     -0.2867
    159  CB        33.4600   21.6120   31.5920 C.3   117  ALA117      0.0290
    160  N         30.9570   20.0710   36.4660 N.3   121  ILE121     -0.1245
    161  CA        30.2660   19.5810   35.2610 C.3   121  ILE121      0.1561
    162  C         30.9200   18.3220   34.6450 C.2   121  ILE121      0.2260
    163  O         30.2460   17.4980   34.0140 O.2   121  ILE121     -0.2867
    164  CB        29.9600   20.7050   34.2280 C.3   121  ILE121      0.0252
    165  CG1       30.0580   20.1930   32.7900 C.3   121  ILE121      0.0019
    166  CG2       30.8630   21.8860   34.4260 C.3   121  ILE121      0.0019
    167  CD1       29.1020   20.8770   31.8810 C.3   121  ILE121      0.0001
    168  N         28.7390   14.8050   33.9860 N.3   125  PHE125     -0.1241
    169  CA        28.8640   13.8380   32.8880 C.3   125  PHE125      0.1605
    170  C         29.4050   12.4630   33.3000 C.2   125  PHE125      0.2264
    171  O         29.0760   11.4520   32.6760 O.2   125  PHE125     -0.2867
    172  CB        29.6210   14.4410   31.7070 C.3   125  PHE125      0.0534
    173  CG        28.7730   15.3660   30.8840 C.ar  125  PHE125     -0.0203
    174  CD1       28.6930   16.7170   31.1950 C.ar  125  PHE125     -0.0042
    175  CD2       28.0050   14.8730   29.8310 C.ar  125  PHE125     -0.0042
    176  CE1       27.8930   17.5710   30.4490 C.ar  125  PHE125     -0.0003
    177  CE2       27.2090   15.7180   29.0820 C.ar  125  PHE125     -0.0003
    178  CZ        27.1490   17.0700   29.3900 C.ar  125  PHE125     -0.0000
    179  N         40.5050   10.2610   29.5360 N.3   150  ASP150     -0.1239
    180  CA        40.3070   10.4050   28.0870 C.3   150  ASP150      0.1674
    181  C         40.4620    9.0540   27.3790 C.2   150  ASP150      0.2266
    182  O         40.9270    8.9800   26.2440 O.2   150  ASP150     -0.2867
    183  CB        41.2870   11.4330   27.5010 C.3   150  ASP150      0.1410
    184  CG        41.2270   12.7720   28.2110 C.2   150  ASP150      0.3668
    185  OD1       42.0970   13.0350   29.0650 O.co2 150  ASP150     -0.2456
    186  OD2       40.3060   13.5610   27.9240 O.co2 150  ASP150     -0.2456
@<TRIPOS>BOND
     1     1     2    1
     2     4     3    2
     3     6     5    1
     4     6     7    1
     5    22    21    1
     6    22    16    1
     7    21    20    1
     8     5     2    1
     9     2     3    1
    10    20    17    1
    11     8     7    2
    12    12    13    2
    13    12    11    1
    14     7     9   am
    15    16    17    1
    16    17    18    1
    17    14    11    1
    18    14    15    1
    19    11    10    1
    20    26    25    2
    21    18    23   am
    22    18    19    2
    23    23    24    1
    24    25    24    1
    25    25    27    1
    26    28    27    2
    27    28    29    1
    28    40    39    1
    29   143   141   ar
    30   143   145   ar
    31   141   140   ar
    32    38    39    2
    33    38    37    1
    34    36    37    1
    35    36    35    1
    36   139   140    1
    37   139   136    1
    38   140   142   ar
    39   145   146    1
    40   145   144   ar
    41    39    41    1
    42    31    29   am
    43    31    32    1
    44    29    30    2
    45   142   144   ar
    46    35    32    1
    47   138   137    2
    48    32    33    1
    49   137   136    1
    50    73    70    1
    51   136   135    1
    52    67    68    1
    53    67    64    1
    54    71    70    1
    55    71    72    2
    56    55    56    1
    57    63    64    1
    58    69    70    1
    59    69    65   am
    60    34    33    2
    61   135   133   am
    62    54    52   ar
    63    33    42   am
    64    56    59    1
    65    56    57    1
    66    53    52   ar
    67    64    65    1
    68    65    66    2
    69    52    51    1
    70    59    60    1
    71   133   132    1
    72   133   134    2
    73    49    50    2
    74    49    48    1
    75   154   152    1
    76    58    57    2
    77   132   131    1
    78    90    87    1
    79    42    43    1
    80   122   120    1
    81    60    61    1
    82   147   148    1
    83    89    88    2
    84    51    48    1
    85    48    47    1
    86    47    44   am
    87    76    77    2
    88    76    75    1
    89    74    75    1
    90   148   151    1
    91   148   149    1
    92   152   151    1
    93    44    43    1
    94    44    45    2
    95    43    46    1
    96    86    87    1
    97    87    88    1
    98   120   119    1
    99    88    91   am
   100   131   125   am
   101   151   153    1
   102   126   125    2
   103    75    78    1
   104    61    62    1
   105    78    79    1
   106   125   124    1
   107   149   150    2
   108    80    79   ar
   109    80    82   ar
   110    96    95    1
   111    91    92    1
   112   119   121    1
   113   119   116    1
   114   182   181    2
   115    92    95    1
   116    92    93    1
   117    79    81   ar
   118   118   117    2
   119    82    84   ar
   120   100    99    2
   121   117   116    1
   122   117   123   am
   123   124   123    1
   124   124   127    1
   125    93    97   am
   126    93    94    2
   127   116   115    1
   128   181   180    1
   129   115   110   am
   130   183   180    1
   131   183   184    1
   132    97    98    1
   133    81    83   ar
   134   186   184   ar
   135   127   128    1
   136    84    83   ar
   137    84    85    1
   138    99    98    1
   139    99   108   am
   140   180   179    1
   141   184   185   ar
   142   101    98    1
   143   101   102    1
   144   110   109    1
   145   110   111    2
   146   109   108    1
   147   109   112    1
   148   130   128    1
   149   108   114    1
   150   177   178   ar
   151   177   175   ar
   152   128   129    1
   153   178   176   ar
   154   102   103    1
   155   112   113    1
   156   175   173   ar
   157   103   104    1
   158   114   113    1
   159   176   174   ar
   160   173   174   ar
   161   173   172    1
   162   155   156    1
   163   104   105    2
   164   106   105    1
   165   159   156    1
   166   172   169    1
   167   156   157    1
   168   167   165    1
   169   105   107    1
   170   171   170    2
   171   165   164    1
   172   169   170    1
   173   169   168    1
   174   157   158    2
   175   163   162    2
   176   164   166    1
   177   164   161    1
   178   162   161    1
   179   161   160    1
