@<TRIPOS>MOLECULE
tmp/3wg7P00.pdb
 178 174 0 0 0
SMALL
GASTEIGER

@<TRIPOS>ATOM
      1  N        109.2500  301.8430  218.1240 N.3    75  LYS75      -0.1245
      2  CA       109.0610  303.1130  217.3320 C.3    75  LYS75       0.1561
      3  C        110.1140  303.2270  216.1790 C.2    75  LYS75       0.2260
      4  O        109.7960  303.6150  215.0440 O.2    75  LYS75      -0.2867
      5  CB       109.1530  304.3310  218.2880 C.3    75  LYS75       0.0271
      6  CG       108.5340  305.5940  217.7370 C.3    75  LYS75       0.0035
      7  CD       108.6740  306.7460  218.7320 C.3    75  LYS75       0.0206
      8  CE       107.8800  307.9180  218.1950 C.3    75  LYS75       0.1093
      9  NZ       108.4090  308.2630  216.8530 N.3    75  LYS75      -0.1314
     10  N        109.0920  300.8650  213.5370 N.3    78  ARG78      -0.1231
     11  CA       107.9960  301.5050  212.7440 C.3    78  ARG78       0.1694
     12  C        108.5460  302.4120  211.6120 C.2    78  ARG78       0.2592
     13  O        108.2020  302.2400  210.4430 O.2    78  ARG78      -0.2718
     14  CB       107.0450  302.2830  213.6730 C.3    78  ARG78       0.0321
     15  CG       106.1730  301.3570  214.5930 C.3    78  ARG78       0.0489
     16  CD       105.1550  302.1500  215.4770 C.3    78  ARG78       0.2205
     17  NE       104.6610  301.1330  216.4180 N.pl3  78  ARG78      -0.0865
     18  CZ       103.5480  300.4190  216.2450 C.cat  78  ARG78       0.5346
     19  NH1      102.7320  300.7200  215.2140 N.pl3  78  ARG78       0.1354
     20  NH2      103.2200  299.4530  217.1490 N.pl3  78  ARG78       0.1354
     21  N        109.4040  303.3800  211.9740 N.am   79  TYR79      -0.1976
     22  CA       110.0030  304.1800  210.9670 C.3    79  TYR79       0.1639
     23  C        110.6860  303.2910  209.9400 C.2    79  TYR79       0.2290
     24  O        110.5500  303.5740  208.7650 O.2    79  TYR79      -0.2864
     25  CB       111.0420  305.1880  211.5680 C.3    79  TYR79       0.0560
     26  CG       110.4710  306.2940  212.4660 C.ar   79  TYR79      -0.0198
     27  CD1      109.4920  307.1600  211.9790 C.ar   79  TYR79      -0.0009
     28  CD2      110.9310  306.5040  213.8000 C.ar   79  TYR79      -0.0009
     29  CE1      108.9450  308.1800  212.7490 C.ar   79  TYR79       0.0417
     30  CE2      110.3330  307.4820  214.6030 C.ar   79  TYR79       0.0417
     31  CZ       109.3420  308.3100  214.0560 C.ar   79  TYR79       0.1957
     32  OH       108.7700  309.3460  214.7410 O.3    79  TYR79      -0.2866
     33  N        108.2730  301.7830  207.4930 N.3    82  ILE82      -0.1231
     34  CA       107.5870  302.7610  206.6180 C.3    82  ILE82       0.1692
     35  C        108.5830  303.2490  205.5280 C.2    82  ILE82       0.2591
     36  O        108.1930  303.4010  204.3600 O.2    82  ILE82      -0.2718
     37  CB       107.0920  304.0090  207.4520 C.3    82  ILE82       0.0266
     38  CG1      105.9320  303.6370  208.4150 C.3    82  ILE82       0.0019
     39  CG2      106.8470  305.2250  206.5620 C.3    82  ILE82       0.0020
     40  CD1      105.6110  304.7580  209.4410 C.3    82  ILE82       0.0001
     41  N        109.8640  303.5150  205.9180 N.am   83  LEU83      -0.1980
     42  CA       110.8160  304.0570  204.9770 C.3    83  LEU83       0.1596
     43  C        111.0310  302.9450  203.8880 C.2    83  LEU83       0.2287
     44  O        111.2110  303.2330  202.6730 O.2    83  LEU83      -0.2864
     45  CB       112.1780  304.3060  205.7130 C.3    83  LEU83       0.0297
     46  CG       112.0060  305.6200  206.5190 C.3    83  LEU83       0.0022
     47  CD1      113.1210  305.7170  207.5740 C.3    83  LEU83       0.0001
     48  CD2      111.7120  306.9450  205.7350 C.3    83  LEU83       0.0001
     49  N        108.9590  300.6850  202.8190 N.3    85  ILE85      -0.1231
     50  CA       107.8110  300.6750  201.8900 C.3    85  ILE85       0.1692
     51  C        107.8620  301.9130  200.9970 C.2    85  ILE85       0.2591
     52  O        107.5500  301.8940  199.8040 O.2    85  ILE85      -0.2718
     53  CB       106.4820  300.7200  202.7020 C.3    85  ILE85       0.0266
     54  CG1      106.3440  299.3350  203.3850 C.3    85  ILE85       0.0019
     55  CG2      105.2950  300.8770  201.6900 C.3    85  ILE85       0.0020
     56  CD1      105.2480  299.2070  204.5060 C.3    85  ILE85       0.0001
     57  N        108.3220  303.0210  201.5390 N.am   86  ILE86      -0.1980
     58  CA       108.4990  304.1560  200.6240 C.3    86  ILE86       0.1595
     59  C        109.4690  303.8390  199.4970 C.2    86  ILE86       0.2287
     60  O        109.1830  304.1800  198.3280 O.2    86  ILE86      -0.2864
     61  CB       108.8520  305.4430  201.4120 C.3    86  ILE86       0.0276
     62  CG1      107.5580  306.0440  202.0880 C.3    86  ILE86       0.0022
     63  CG2      109.3340  306.4720  200.3990 C.3    86  ILE86       0.0022
     64  CD1      107.9310  307.0800  203.1440 C.3    86  ILE86       0.0001
     65  N        107.7030  301.8620  196.8680 N.3    89  VAL89      -0.1245
     66  CA       106.7920  302.6600  196.0470 C.3    89  VAL89       0.1561
     67  C        107.6000  303.2610  194.8370 C.2    89  VAL89       0.2260
     68  O        107.1020  303.2890  193.6950 O.2    89  VAL89      -0.2867
     69  CB       106.0450  303.7310  196.8970 C.3    89  VAL89       0.0252
     70  CG1      105.2400  304.7370  196.0250 C.3    89  VAL89       0.0019
     71  CG2      105.0540  302.9590  197.8650 C.3    89  VAL89       0.0019
     72  N        108.4130  300.8490  192.0610 N.3    92  PHE92      -0.1227
     73  CA       107.2920  300.6540  191.1710 C.3    92  PHE92       0.1736
     74  C        107.0380  301.8390  190.2820 C.2    92  PHE92       0.2596
     75  O        106.6240  301.6850  189.1460 O.2    92  PHE92      -0.2718
     76  CB       106.0610  300.2550  191.9680 C.3    92  PHE92       0.0547
     77  CG       105.9990  298.7100  192.2090 C.ar   92  PHE92      -0.0202
     78  CD1      106.3060  298.1710  193.4760 C.ar   92  PHE92      -0.0042
     79  CD2      105.6600  297.8460  191.1460 C.ar   92  PHE92      -0.0042
     80  CE1      106.2800  296.7570  193.6750 C.ar   92  PHE92      -0.0003
     81  CE2      105.6370  296.4610  191.3290 C.ar   92  PHE92      -0.0003
     82  CZ       105.9530  295.9350  192.5800 C.ar   92  PHE92      -0.0000
     83  N        107.3140  303.0440  190.8260 N.am   93  THR93      -0.1953
     84  CA       107.0610  304.2850  190.1060 C.3    93  THR93       0.1897
     85  C        107.8450  304.3020  188.7990 C.2    93  THR93       0.2313
     86  O        107.3220  304.7090  187.7560 O.2    93  THR93      -0.2863
     87  CB       107.3510  305.5020  191.0330 C.3    93  THR93       0.1794
     88  OG1      106.3260  305.5650  192.0880 O.3    93  THR93      -0.2208
     89  CG2      107.2940  306.7630  190.2560 C.3    93  THR93       0.0378
     90  N        105.8710  302.1920  186.2690 N.3    96  PHE96      -0.1241
     91  CA       104.7150  302.9830  185.8090 C.3    96  PHE96       0.1605
     92  C        105.1090  304.0950  184.8420 C.2    96  PHE96       0.2264
     93  O        104.4130  304.3210  183.8590 O.2    96  PHE96      -0.2867
     94  CB       103.9870  303.5700  186.9880 C.3    96  PHE96       0.0534
     95  CG       103.0650  302.5590  187.6740 C.ar   96  PHE96      -0.0203
     96  CD1      101.7910  302.3620  187.2180 C.ar   96  PHE96      -0.0042
     97  CD2      103.5150  301.7860  188.7670 C.ar   96  PHE96      -0.0042
     98  CE1      100.9470  301.3610  187.7860 C.ar   96  PHE96      -0.0003
     99  CE2      102.6600  300.8450  189.3960 C.ar   96  PHE96      -0.0003
    100  CZ       101.4060  300.6220  188.8890 C.ar   96  PHE96      -0.0000
    101  N        103.6760  304.5030  181.0900 N.3   100  TYR100     -0.1241
    102  CA       102.9770  305.6840  180.5390 C.3   100  TYR100      0.1605
    103  C        103.7500  306.3120  179.3800 C.2   100  TYR100      0.2264
    104  O        103.1860  306.7780  178.3880 O.2   100  TYR100     -0.2867
    105  CB       102.6260  306.7060  181.6720 C.3   100  TYR100      0.0534
    106  CG       101.3530  306.2600  182.3870 C.ar  100  TYR100     -0.0201
    107  CD1      101.3800  305.6680  183.6340 C.ar  100  TYR100     -0.0009
    108  CD2      100.1270  306.4300  181.7510 C.ar  100  TYR100     -0.0009
    109  CE1      100.2130  305.2500  184.2630 C.ar  100  TYR100      0.0417
    110  CE2       98.9540  306.0200  182.3570 C.ar  100  TYR100      0.0417
    111  CZ        99.0030  305.4470  183.6020 C.ar  100  TYR100      0.1957
    112  OH        97.7740  305.0770  184.0900 O.3   100  TYR100     -0.2866
    113  N        100.9070  296.3810  207.0360 N.3   238  TRP238     -0.1241
    114  CA       101.3320  297.5430  206.2000 C.3   238  TRP238      0.1605
    115  C        101.8610  297.1080  204.8380 C.2   238  TRP238      0.2264
    116  O        101.4790  297.6630  203.8080 O.2   238  TRP238     -0.2867
    117  CB       102.4200  298.4260  206.8830 C.3   238  TRP238      0.0550
    118  CG       102.0210  298.9710  208.2310 C.ar  238  TRP238      0.0003
    119  CD1      100.7350  299.0620  208.7730 C.ar  238  TRP238      0.0946
    120  CD2      102.8780  299.7010  209.1450 C.ar  238  TRP238      0.0152
    121  NE1      100.7870  299.7170  210.0020 N.ar  238  TRP238     -0.2442
    122  CE2      102.0750  300.1340  210.2400 C.ar  238  TRP238      0.0810
    123  CE3      104.2440  299.9500  209.1850 C.ar  238  TRP238      0.0012
    124  CZ2      102.6190  300.7880  211.3820 C.ar  238  TRP238      0.0191
    125  CZ3      104.7610  300.7010  210.3000 C.ar  238  TRP238      0.0001
    126  CH2      103.9620  301.0790  211.3680 C.ar  238  TRP238      0.0015
    127  N         98.9330  295.9870  202.6740 N.3   241  HIS241     -0.1226
    128  CA        98.0740  297.0450  202.0750 C.3   241  HIS241      0.1752
    129  C         98.8490  297.7220  200.9520 C.2   241  HIS241      0.2596
    130  O         98.2490  298.0940  199.9690 O.2   241  HIS241     -0.2718
    131  CB        97.7570  298.1180  203.1510 C.3   241  HIS241      0.0759
    132  CG        96.8420  297.6320  204.2050 C.ar  241  HIS241      0.0818
    133  ND1       95.6140  297.0920  203.8870 N.ar  241  HIS241     -0.2268
    134  CD2       96.9260  297.6170  205.5500 C.ar  241  HIS241      0.1154
    135  CE1       94.9720  296.7430  204.9930 C.ar  241  HIS241      0.1986
    136  NE2       95.7670  297.0190  206.0180 N.ar  241  HIS241     -0.2212
    137  N        100.2150  297.8730  201.0990 N.am  242  PHE242     -0.1976
    138  CA       101.0120  298.4220  199.9960 C.3   242  PHE242      0.1639
    139  C        100.8320  297.5150  198.7290 C.2   242  PHE242      0.2290
    140  O        100.7000  298.0240  197.6330 O.2   242  PHE242     -0.2864
    141  CB       102.5540  298.5860  200.4310 C.3   242  PHE242      0.0560
    142  CG       103.5320  298.3520  199.3200 C.ar  242  PHE242     -0.0200
    143  CD1      104.1860  297.1470  199.1810 C.ar  242  PHE242     -0.0042
    144  CD2      103.8300  299.3680  198.4260 C.ar  242  PHE242     -0.0042
    145  CE1      105.0190  296.9370  198.1100 C.ar  242  PHE242     -0.0003
    146  CE2      104.7240  299.2180  197.4100 C.ar  242  PHE242     -0.0003
    147  CZ       105.3540  298.0060  197.2380 C.ar  242  PHE242     -0.0000
    148  N         97.4870  298.2330  197.1640 N.3   245  VAL245     -0.1231
    149  CA        97.3360  299.5450  196.5070 C.3   245  VAL245      0.1692
    150  C         98.1300  299.5170  195.1990 C.2   245  VAL245      0.2591
    151  O         97.7060  300.1100  194.2030 O.2   245  VAL245     -0.2718
    152  CB        97.8280  300.7100  197.4320 C.3   245  VAL245      0.0266
    153  CG1       97.7250  302.0450  196.7240 C.3   245  VAL245      0.0020
    154  CG2       96.9450  300.7420  198.6590 C.3   245  VAL245      0.0020
    155  N         99.3890  298.9720  195.1990 N.am  246  VAL246     -0.1980
    156  CA       100.0650  298.7540  193.9180 C.3   246  VAL246      0.1595
    157  C         99.1780  297.9980  192.8910 C.2   246  VAL246      0.2287
    158  O         99.1160  298.3830  191.7390 O.2   246  VAL246     -0.2864
    159  CB       101.3710  297.9340  194.1040 C.3   246  VAL246      0.0276
    160  CG1      102.0010  297.6600  192.7280 C.3   246  VAL246      0.0022
    161  CG2      102.3380  298.8590  194.9580 C.3   246  VAL246      0.0022
    162  N         96.5520  300.4400  191.2940 N.3   249  PHE249     -0.1241
    163  CA        97.3340  301.2170  190.2690 C.3   249  PHE249      0.1605
    164  C         97.6080  300.3850  189.0200 C.2   249  PHE249      0.2264
    165  O         97.3440  300.8850  187.9300 O.2   249  PHE249     -0.2867
    166  CB        98.6290  301.8040  190.8900 C.3   249  PHE249      0.0534
    167  CG        98.3800  303.0800  191.6540 C.ar  249  PHE249     -0.0203
    168  CD1       97.9530  303.0500  193.0090 C.ar  249  PHE249     -0.0042
    169  CD2       98.4640  304.3320  190.9930 C.ar  249  PHE249     -0.0042
    170  CE1       97.6800  304.2730  193.7240 C.ar  249  PHE249     -0.0003
    171  CE2       98.1970  305.5350  191.7170 C.ar  249  PHE249     -0.0003
    172  CZ        97.8090  305.4860  193.0710 C.ar  249  PHE249     -0.0000
    173  N         95.7770  301.3200  185.4840 N.3   253  SER253     -0.1217
    174  CA        96.7240  301.8020  184.5050 C.3   253  SER253      0.1889
    175  C         96.9560  300.8400  183.3340 C.2   253  SER253      0.2288
    176  O         96.7360  301.1370  182.1410 O.2   253  SER253     -0.2866
    177  CB        98.1000  302.0380  185.2160 C.3   253  SER253      0.2089
    178  OG        97.9350  303.1750  186.0450 O.3   253  SER253     -0.2183
@<TRIPOS>BOND
     1   104   103    2
     2   103   102    1
     3   102   101    1
     4   102   105    1
     5   105   106    1
     6   108   110   ar
     7   108   106   ar
     8   176   175    2
     9   110   111   ar
    10   106   107   ar
    11   175   174    1
    12   111   112    1
    13   111   109   ar
    14   107   109   ar
    15    93    92    2
    16   174   177    1
    17   174   173    1
    18    92    91    1
    19   177   178    1
    20    91    90    1
    21    91    94    1
    22    94    95    1
    23    96    95   ar
    24    96    98   ar
    25    95    97   ar
    26    86    85    2
    27    98   100   ar
    28   165   164    2
    29    97    99   ar
    30    85    84    1
    31   100    99   ar
    32   164   163    1
    33    75    74    2
    34    84    83    1
    35    84    87    1
    36    89    87    1
    37   163   166    1
    38   163   162    1
    39    74    83   am
    40    74    73    1
    41   166   167    1
    42   169   167   ar
    43   169   171   ar
    44    87    88    1
    45    79    81   ar
    46    79    77   ar
    47    73    76    1
    48    73    72    1
    49    81    82   ar
    50   167   168   ar
    51   171   172   ar
    52   158   157    2
    53    76    77    1
    54    77    78   ar
    55    82    80   ar
    56   160   159    1
    57   157   156    1
    58   168   170   ar
    59   172   170   ar
    60    78    80   ar
    61    68    67    2
    62   156   159    1
    63   156   155    1
    64   159   161    1
    65   151   150    2
    66    67    66    1
    67   155   150   am
    68   150   149    1
    69    70    69    1
    70    66    65    1
    71    66    69    1
    72   149   148    1
    73   149   152    1
    74   153   152    1
    75    69    71    1
    76   147   146   ar
    77   147   145   ar
    78   146   144   ar
    79   152   154    1
    80   140   139    2
    81   145   143   ar
    82    60    59    2
    83   144   142   ar
    84   139   138    1
    85   143   142   ar
    86   142   141    1
    87    59    58    1
    88    52    51    2
    89   130   129    2
    90   138   141    1
    91   138   137    1
    92    63    61    1
    93    58    61    1
    94    58    57    1
    95   129   137   am
    96   129   128    1
    97    51    57   am
    98    51    50    1
    99    61    62    1
   100    55    53    1
   101    50    53    1
   102    50    49    1
   103   128   127    1
   104   128   131    1
   105    62    64    1
   106    44    43    2
   107    53    54    1
   108   131   132    1
   109    54    56    1
   110   116   115    2
   111   133   132   ar
   112   133   135   ar
   113    43    42    1
   114   132   134   ar
   115    36    35    2
   116   115   114    1
   117    42    45    1
   118    42    41    1
   119   135   136   ar
   120    35    41   am
   121    35    34    1
   122   134   136   ar
   123    45    46    1
   124    48    46    1
   125   114   117    1
   126   114   113    1
   127    46    47    1
   128    39    37    1
   129    34    37    1
   130    34    33    1
   131   117   118    1
   132    37    38    1
   133   118   119   ar
   134   118   120   ar
   135    38    40    1
   136    24    23    2
   137   119   121   ar
   138   120   123   ar
   139   120   122   ar
   140   123   125   ar
   141    23    22    1
   142   121   122   ar
   143   122   124   ar
   144   125   126   ar
   145    13    12    2
   146    22    25    1
   147    22    21    1
   148   126   124   ar
   149    25    26    1
   150    12    21   am
   151    12    11    1
   152    27    26   ar
   153    27    29   ar
   154    26    28   ar
   155    11    10    1
   156    11    14    1
   157    29    31   ar
   158    14    15    1
   159    28    30   ar
   160    31    30   ar
   161    31    32    1
   162    15    16    1
   163     4     3    2
   164    19    18    1
   165    16    17    1
   166     3     2    1
   167    18    17    2
   168    18    20    1
   169     9     8    1
   170     2     1    1
   171     2     5    1
   172     6     5    1
   173     6     7    1
   174     8     7    1
