@<TRIPOS>MOLECULE
tmp/3wg7P01.pdb
 212 202 0 0 0
SMALL
GASTEIGER

@<TRIPOS>ATOM
      1  N        118.7250  299.0420  221.8480 N.3     7  HIS7       -0.1241
      2  CA       119.1720  297.6510  221.7360 C.3     7  HIS7        0.1621
      3  C        120.5610  297.6140  221.1380 C.2     7  HIS7        0.2264
      4  O        120.7630  297.9180  219.9380 O.2     7  HIS7       -0.2867
      5  CB       118.1810  296.8550  220.8490 C.3     7  HIS7        0.0745
      6  CG       118.4100  295.3760  220.8300 C.ar    7  HIS7        0.0817
      7  ND1      117.9250  294.5890  219.8090 N.ar    7  HIS7       -0.2268
      8  CD2      119.1670  294.5610  221.6170 C.ar    7  HIS7        0.1154
      9  CE1      118.3430  293.3420  219.9940 C.ar    7  HIS7        0.1986
     10  NE2      119.0740  293.2910  221.0890 N.ar    7  HIS7       -0.2212
     11  N        122.9040  295.1180  219.8180 N.3     9  VAL9       -0.1245
     12  CA       122.7030  293.8030  219.1950 C.3     9  VAL9        0.1561
     13  C        124.0150  292.9670  219.3070 C.2     9  VAL9        0.2260
     14  O        125.1140  293.4630  219.0980 O.2     9  VAL9       -0.2867
     15  CB       122.3000  293.9630  217.7280 C.3     9  VAL9        0.0252
     16  CG1      122.0970  292.6160  217.0270 C.3     9  VAL9        0.0019
     17  CG2      121.0170  294.7990  217.6250 C.3     9  VAL9        0.0019
     18  N        124.5480  287.5220  204.2640 N.3    18  GLY18      -0.1210
     19  CA       123.5250  288.0990  203.3270 C.3    18  GLY18       0.1956
     20  C        124.2690  288.8110  202.1850 C.2    18  GLY18       0.2611
     21  O        123.9810  288.6290  201.0200 O.2    18  GLY18      -0.2717
     22  N        125.2730  289.6080  202.5380 N.am   19  ALA19      -0.1979
     23  CA       126.1120  290.2670  201.5140 C.3    19  ALA19       0.1597
     24  C        126.6550  289.2360  200.5260 C.2    19  ALA19       0.2287
     25  O        126.7400  289.5180  199.3610 O.2    19  ALA19      -0.2864
     26  CB       127.3050  290.9630  202.1740 C.3    19  ALA19       0.0319
     27  N        125.5970  286.2710  199.9770 N.3    21  SER21      -0.1202
     28  CA       124.5420  285.6730  199.2420 C.3    21  SER21       0.2020
     29  C        124.1020  286.6490  198.0470 C.2    21  SER21       0.2618
     30  O        123.7930  286.1490  196.9630 O.2    21  SER21      -0.2717
     31  CB       123.4180  285.2310  200.2060 C.3    21  SER21       0.2103
     32  OG       122.5830  286.3390  200.1040 O.3    21  SER21      -0.2182
     33  N        124.1360  287.9930  198.2110 N.am   22  ALA22      -0.1979
     34  CA       123.8480  288.9190  197.0770 C.3    22  ALA22       0.1597
     35  C        124.9220  288.7510  195.9380 C.2    22  ALA22       0.2287
     36  O        124.6080  288.7970  194.7230 O.2    22  ALA22      -0.2864
     37  CB       123.8130  290.3780  197.5500 C.3    22  ALA22       0.0319
     38  N        124.0260  285.5310  194.2190 N.3    25  MET25      -0.1230
     39  CA       122.8540  285.5470  193.3240 C.3    25  MET25       0.1702
     40  C        123.1810  286.3730  192.0820 C.2    25  MET25       0.2593
     41  O        122.7960  285.9860  190.9810 O.2    25  MET25      -0.2718
     42  CB       121.5700  286.0940  194.0110 C.3    25  MET25       0.0401
     43  CG       121.0420  285.1740  195.1080 C.3    25  MET25       0.0596
     44  SD       119.5940  285.8930  195.9380 S.3    25  MET25      -0.1393
     45  CE       120.3370  287.3060  196.7670 C.3    25  MET25       0.0692
     46  N        123.9370  287.4530  192.2410 N.am   26  THR26      -0.1953
     47  CA       124.2190  288.2710  191.0740 C.3    26  THR26       0.1897
     48  C        125.2280  287.6610  190.1530 C.2    26  THR26       0.2313
     49  O        125.0160  287.6300  188.9480 O.2    26  THR26      -0.2863
     50  CB       124.6430  289.6940  191.4200 C.3    26  THR26       0.1794
     51  OG1      125.7720  289.6610  192.2960 O.3    26  THR26      -0.2208
     52  CG2      123.4130  290.5340  191.9910 C.3    26  THR26       0.0378
     53  N        123.2520  284.8420  188.4340 N.3    29  LEU29      -0.1245
     54  CA       122.4490  285.2790  187.2860 C.3    29  LEU29       0.1561
     55  C        123.2820  285.5060  185.9820 C.2    29  LEU29       0.2260
     56  O        122.8700  285.1080  184.8860 O.2    29  LEU29      -0.2867
     57  CB       121.6550  286.5330  187.6310 C.3    29  LEU29       0.0270
     58  CG       120.3110  286.3740  188.3850 C.3    29  LEU29       0.0019
     59  CD1      119.8480  287.7820  188.8160 C.3    29  LEU29       0.0001
     60  CD2      119.2310  285.5500  187.6560 C.3    29  LEU29       0.0001
     61  N        120.8240  282.8160  200.6680 N.3    48  ASN48      -0.1240
     62  CA       119.9520  284.0000  200.9390 C.3    48  ASN48       0.1653
     63  C        118.7980  283.5970  201.8570 C.2    48  ASN48       0.2266
     64  O        118.5660  284.2520  202.8880 O.2    48  ASN48      -0.2867
     65  CB       119.4470  284.6880  199.6380 C.3    48  ASN48       0.1155
     66  CG       118.6300  285.9740  199.9160 C.2    48  ASN48       0.2627
     67  OD1      119.1800  287.0300  200.2090 O.2    48  ASN48      -0.2716
     68  ND2      117.3540  285.8700  199.8190 N.am   48  ASN48      -0.0877
     69  N        120.0560  282.8860  205.3200 N.3    51  THR51      -0.1203
     70  CA       120.4530  284.0730  206.0340 C.3    51  THR51       0.1994
     71  C        119.1690  284.7860  206.5190 C.2    51  THR51       0.2617
     72  O        119.0830  285.2470  207.6990 O.2    51  THR51      -0.2717
     73  CB       121.1340  285.0390  205.0550 C.3    51  THR51       0.1784
     74  OG1      122.3700  284.4260  204.6360 O.3    51  THR51      -0.2211
     75  CG2      121.3260  286.4470  205.7050 C.3    51  THR51       0.0376
     76  N        118.1750  284.8800  205.6360 N.am   52  MET52      -0.1979
     77  CA       116.9180  285.6040  206.0570 C.3    52  MET52       0.1605
     78  C        116.2670  284.8530  207.2490 C.2    52  MET52       0.2287
     79  O        115.7850  285.4580  208.2230 O.2    52  MET52      -0.2864
     80  CB       115.9180  285.7070  204.8950 C.3    52  MET52       0.0413
     81  CG       116.3680  286.5770  203.7020 C.3    52  MET52       0.0598
     82  SD       114.9730  286.9100  202.5120 S.3    52  MET52      -0.1393
     83  CE       114.6740  285.3670  201.7520 C.3    52  MET52       0.0692
     84  N        118.3360  285.3390  210.4840 N.3    55  TRP55      -0.1227
     85  CA       118.3930  286.7680  210.9100 C.3    55  TRP55       0.1737
     86  C        117.0480  287.1330  211.5560 C.2    55  TRP55       0.2595
     87  O        116.9890  287.6300  212.6840 O.2    55  TRP55      -0.2718
     88  CB       118.7030  287.6770  209.6740 C.3    55  TRP55       0.0564
     89  CG       118.8970  289.1430  209.9220 C.ar   55  TRP55       0.0003
     90  CD1      118.2960  289.9360  210.8800 C.ar   55  TRP55       0.0946
     91  CD2      119.7580  290.0100  209.1520 C.ar   55  TRP55       0.0152
     92  NE1      118.6920  291.2340  210.7080 N.ar   55  TRP55      -0.2442
     93  CE2      119.6180  291.3020  209.6820 C.ar   55  TRP55       0.0810
     94  CE3      120.6470  289.7860  208.0710 C.ar   55  TRP55       0.0012
     95  CZ2      120.3500  292.4310  209.1730 C.ar   55  TRP55       0.0191
     96  CZ3      121.3490  290.8620  207.5600 C.ar   55  TRP55       0.0001
     97  CH2      121.1730  292.1870  208.1210 C.ar   55  TRP55       0.0015
     98  N        115.9520  286.7720  210.9130 N.am   56  TRP56      -0.1976
     99  CA       114.6090  287.1590  211.5280 C.3    56  TRP56       0.1640
    100  C        114.2420  286.2620  212.7150 C.2    56  TRP56       0.2290
    101  O        113.6280  286.6820  213.6970 O.2    56  TRP56      -0.2864
    102  CB       113.5630  287.0880  210.4500 C.3    56  TRP56       0.0576
    103  CG       113.6820  288.3050  209.5620 C.ar   56  TRP56       0.0006
    104  CD1      113.9620  289.6250  209.9730 C.ar   56  TRP56       0.0946
    105  CD2      113.4900  288.3430  208.1390 C.ar   56  TRP56       0.0152
    106  NE1      113.9310  290.4700  208.8370 N.ar   56  TRP56      -0.2442
    107  CE2      113.6710  289.7040  207.7190 C.ar   56  TRP56       0.0810
    108  CE3      113.2260  287.3390  207.1740 C.ar   56  TRP56       0.0012
    109  CZ2      113.5890  290.1100  206.3610 C.ar   56  TRP56       0.0191
    110  CZ3      113.1350  287.7020  205.8230 C.ar   56  TRP56       0.0001
    111  CH2      113.3530  289.1200  205.4320 C.ar   56  TRP56       0.0015
    112  N        115.8220  288.0140  215.4640 N.3    59  VAL59      -0.1245
    113  CA       114.9950  289.1510  215.8730 C.3    59  VAL59       0.1561
    114  C        113.7800  288.7360  216.7970 C.2    59  VAL59       0.2260
    115  O        113.5240  289.3690  217.8600 O.2    59  VAL59      -0.2867
    116  CB       114.4670  289.9070  214.6680 C.3    59  VAL59       0.0252
    117  CG1      113.4540  291.0290  215.1150 C.3    59  VAL59       0.0019
    118  CG2      115.5930  290.5400  213.8060 C.3    59  VAL59       0.0019
    119  N        115.3210  288.0200  220.1340 N.3    62  GLU62      -0.1245
    120  CA       115.7310  289.1680  220.9060 C.3    62  GLU62       0.1567
    121  C        114.5300  289.9110  221.4970 C.2    62  GLU62       0.2260
    122  O        114.6890  290.6780  222.4720 O.2    62  GLU62      -0.2867
    123  CB       116.4460  290.1700  219.9750 C.3    62  GLU62       0.0388
    124  CG       117.6520  289.5040  219.3500 C.3    62  GLU62       0.1160
    125  CD       118.2310  290.3550  218.2020 C.2    62  GLU62       0.3649
    126  OE1      119.4640  290.2150  218.0900 O.co2  62  GLU62      -0.2457
    127  OE2      117.5160  291.0740  217.4140 O.co2  62  GLU62      -0.2457
    128  N        112.7500  294.7010  222.7990 N.3    69  HIS69      -0.1241
    129  CA       111.9280  295.7190  222.1170 C.3    69  HIS69       0.1621
    130  C        111.1110  296.5630  223.1030 C.2    69  HIS69       0.2264
    131  O        109.8730  296.3160  223.3290 O.2    69  HIS69      -0.2867
    132  CB       110.9860  295.0190  221.0790 C.3    69  HIS69       0.0745
    133  CG       111.7650  294.4870  219.9350 C.ar   69  HIS69       0.0817
    134  ND1      111.2500  294.3130  218.6760 N.ar   69  HIS69      -0.2268
    135  CD2      113.0920  294.1180  219.8750 C.ar   69  HIS69       0.1154
    136  CE1      112.2180  293.8590  217.8750 C.ar   69  HIS69       0.1986
    137  NE2      113.3290  293.7330  218.5830 N.ar   69  HIS69      -0.2212
    138  N        112.3950  301.1840  221.0300 N.3    73  VAL73      -0.1245
    139  CA       112.9260  300.3070  219.9890 C.3    73  VAL73       0.1561
    140  C        111.8500  300.0240  218.9090 C.2    73  VAL73       0.2260
    141  O        112.1380  300.0400  217.7250 O.2    73  VAL73      -0.2867
    142  CB       113.5270  298.9580  220.5490 C.3    73  VAL73       0.0252
    143  CG1      113.8950  297.9880  219.4400 C.3    73  VAL73       0.0019
    144  CG2      114.8670  299.2390  221.2850 C.3    73  VAL73       0.0019
    145  N        111.6420  300.6280  214.7080 N.3    77  LEU77      -0.1245
    146  CA       111.2010  299.6150  213.7400 C.3    77  LEU77       0.1561
    147  C        110.0050  300.1400  212.9080 C.2    77  LEU77       0.2260
    148  O        109.9950  299.9450  211.6880 O.2    77  LEU77      -0.2867
    149  CB       110.8460  298.2510  214.4070 C.3    77  LEU77       0.0270
    150  CG       112.1060  297.5210  215.0420 C.3    77  LEU77       0.0019
    151  CD1      111.5490  296.4880  216.0200 C.3    77  LEU77       0.0001
    152  CD2      112.8940  296.8620  213.9450 C.3    77  LEU77       0.0001
    153  N        111.5270  302.3080  210.3560 N.3    80  GLY80      -0.1210
    154  CA       112.2890  301.6320  209.3320 C.3    80  GLY80       0.1956
    155  C        111.2930  301.0220  208.3120 C.2    80  GLY80       0.2611
    156  O        111.5540  301.0230  207.1170 O.2    80  GLY80      -0.2717
    157  N        110.2430  300.3830  208.8040 N.am   81  MET81      -0.1979
    158  CA       109.3250  299.6110  207.9320 C.3    81  MET81       0.1605
    159  C        108.5980  300.6120  206.9970 C.2    81  MET81       0.2287
    160  O        108.5330  300.3750  205.8020 O.2    81  MET81      -0.2864
    161  CB       108.2900  298.8210  208.7400 C.3    81  MET81       0.0413
    162  CG       107.3360  297.9680  207.7680 C.3    81  MET81       0.0598
    163  SD       108.3740  296.5930  207.1150 S.3    81  MET81      -0.1393
    164  CE       107.2180  296.1170  205.8170 C.3    81  MET81       0.0692
    165  N        111.1290  301.7050  204.3350 N.3    84  PHE84      -0.1241
    166  CA       111.3360  300.6050  203.3890 C.3    84  PHE84       0.1605
    167  C        110.1890  300.5790  202.3250 C.2    84  PHE84       0.2264
    168  O        110.3790  300.4680  201.0830 O.2    84  PHE84      -0.2867
    169  CB       111.4080  299.2760  204.1360 C.3    84  PHE84       0.0534
    170  CG       111.4920  298.0810  203.2100 C.ar   84  PHE84      -0.0203
    171  CD1      112.6820  297.8160  202.5180 C.ar   84  PHE84      -0.0042
    172  CD2      110.4150  297.2420  203.0590 C.ar   84  PHE84      -0.0042
    173  CE1      112.7490  296.7680  201.6100 C.ar   84  PHE84      -0.0003
    174  CE2      110.4510  296.2210  202.1400 C.ar   84  PHE84      -0.0003
    175  CZ       111.6390  295.9870  201.4270 C.ar   84  PHE84      -0.0000
    176  N        110.6200  303.1800  199.7900 N.3    87  SER87      -0.1202
    177  CA       111.6270  302.8760  198.7650 C.3    87  SER87       0.2020
    178  C        110.9500  301.9220  197.6730 C.2    87  SER87       0.2618
    179  O        111.2540  301.9760  196.4590 O.2    87  SER87      -0.2717
    180  CB       112.8970  302.2400  199.3970 C.3    87  SER87       0.2103
    181  OG       112.6360  300.8290  199.8080 O.3    87  SER87      -0.2182
    182  N        110.0760  301.0250  198.1210 N.am   88  GLU88      -0.1979
    183  CA       109.3920  300.1270  197.2340 C.3    88  GLU88       0.1602
    184  C        108.3470  300.8190  196.3480 C.2    88  GLU88       0.2287
    185  O        108.2390  300.4510  195.1770 O.2    88  GLU88      -0.2864
    186  CB       108.6660  299.0020  198.0250 C.3    88  GLU88       0.0415
    187  CG       109.6280  298.1160  198.7870 C.3    88  GLU88       0.1163
    188  CD       109.6880  296.7840  198.1200 C.2    88  GLU88       0.3649
    189  OE1      110.2190  296.7140  196.9180 O.co2  88  GLU88      -0.2457
    190  OE2      109.1750  295.8630  198.8130 O.co2  88  GLU88      -0.2457
    191  N        110.3450  302.3130  193.5940 N.3    91  PHE91      -0.1241
    192  CA       110.7640  301.2610  192.6520 C.3    91  PHE91       0.1605
    193  C        109.6660  300.9910  191.6100 C.2    91  PHE91       0.2264
    194  O        109.8940  301.0790  190.4150 O.2    91  PHE91      -0.2867
    195  CB       111.1470  299.9980  193.4290 C.3    91  PHE91       0.0534
    196  CG       111.6310  298.9090  192.5720 C.ar   91  PHE91      -0.0203
    197  CD1      112.7900  299.1010  191.8580 C.ar   91  PHE91      -0.0042
    198  CD2      110.8880  297.7090  192.4230 C.ar   91  PHE91      -0.0042
    199  CE1      113.3870  298.0940  191.1750 C.ar   91  PHE91      -0.0003
    200  CE2      111.4190  296.6640  191.6370 C.ar   91  PHE91      -0.0003
    201  CZ       112.6810  296.8810  191.0350 C.ar   91  PHE91      -0.0000
    202  N        104.4660  293.9850  216.6440 N.3   231  PHE231     -0.1241
    203  CA       104.8700  294.7890  215.5280 C.3   231  PHE231      0.1605
    204  C        105.0900  293.9730  214.2510 C.2   231  PHE231      0.2264
    205  O        104.8840  294.5150  213.1830 O.2   231  PHE231     -0.2867
    206  CB       106.1940  295.6370  215.8300 C.3   231  PHE231      0.0534
    207  CG       106.6140  296.4440  214.6160 C.ar  231  PHE231     -0.0203
    208  CD1      107.7500  296.1120  213.8570 C.ar  231  PHE231     -0.0042
    209  CD2      105.7500  297.4840  214.1410 C.ar  231  PHE231     -0.0042
    210  CE1      108.0020  296.8520  212.6740 C.ar  231  PHE231     -0.0003
    211  CE2      106.0050  298.1720  212.9490 C.ar  231  PHE231     -0.0003
    212  CZ       107.1660  297.8330  212.2340 C.ar  231  PHE231     -0.0000
@<TRIPOS>BOND
     1    56    55    2
     2    55    54    1
     3    54    57    1
     4    54    53    1
     5    57    58    1
     6    60    58    1
     7    58    59    1
     8    49    48    2
     9    48    47    1
    10   194   193    2
    11    41    40    2
    12   201   199   ar
    13   201   200   ar
    14    47    50    1
    15    47    46    1
    16   199   197   ar
    17    50    52    1
    18    50    51    1
    19   193   192    1
    20   200   198   ar
    21   197   196   ar
    22    40    46   am
    23    40    39    1
    24   198   196   ar
    25   196   195    1
    26   192   195    1
    27   192   191    1
    28    39    42    1
    29    39    38    1
    30    42    43    1
    31    36    35    2
    32    43    44    1
    33   185   184    2
    34    44    45    1
    35    35    34    1
    36   184   183    1
    37   179   178    2
    38   189   188   ar
    39    30    29    2
    40    34    37    1
    41    34    33    1
    42   183   186    1
    43   183   182    1
    44   178   182   am
    45   178   177    1
    46   186   187    1
    47    29    33   am
    48    29    28    1
    49   188   187    1
    50   188   190   ar
    51   177   180    1
    52   177   176    1
    53    28    27    1
    54    28    31    1
    55    25    24    2
    56   180   181    1
    57    65    66    1
    58    65    62    1
    59    68    66   am
    60    66    67    2
    61    32    31    1
    62    24    23    1
    63    61    62    1
    64    62    63    1
    65    21    20    2
    66   168   167    2
    67   175   173   ar
    68   175   174   ar
    69    23    26    1
    70    23    22    1
    71   173   171   ar
    72    83    82    1
    73    63    64    2
    74   174   172   ar
    75    20    22   am
    76    20    19    1
    77   167   166    1
    78    82    81    1
    79   171   170   ar
    80   172   170   ar
    81   170   169    1
    82    19    18    1
    83   166   169    1
    84   166   165    1
    85    81    80    1
    86    74    73    1
    87    80    77    1
    88    73    75    1
    89    73    70    1
    90    69    70    1
    91   111   110   ar
    92   111   109   ar
    93    76    77    1
    94    76    71   am
    95   160   159    2
    96   164   163    1
    97   110   108   ar
    98    70    71    1
    99    77    78    1
   100   109   107   ar
   101    71    72    2
   102   159   158    1
   103   163   162    1
   104   156   155    2
   105   108   105   ar
   106    78    79    2
   107    96    94   ar
   108    96    97   ar
   109   107   105   ar
   110   107   106   ar
   111   162   161    1
   112   158   161    1
   113   158   157    1
   114    94    91   ar
   115    97    95   ar
   116   105   103   ar
   117   155   157   am
   118   155   154    1
   119   106   104   ar
   120    91    93   ar
   121    91    89   ar
   122    95    93   ar
   123   154   153    1
   124   103   104   ar
   125   103   102    1
   126    88    89    1
   127    88    85    1
   128    93    92   ar
   129    89    90   ar
   130   102    99    1
   131    84    85    1
   132    92    90   ar
   133    85    86    1
   134    98    99    1
   135    98    86   am
   136    99   100    1
   137    86    87    2
   138   148   147    2
   139   212   210   ar
   140   212   211   ar
   141   210   208   ar
   142   100   101    2
   143   147   146    1
   144   211   209   ar
   145   205   204    2
   146   146   149    1
   147   146   145    1
   148   118   116    1
   149   208   207   ar
   150   152   150    1
   151   209   207   ar
   152   204   203    1
   153   149   150    1
   154   207   206    1
   155   116   117    1
   156   116   113    1
   157   150   151    1
   158   112   113    1
   159   203   206    1
   160   203   202    1
   161   113   114    1
   162   114   115    2
   163    16    15    1
   164   127   125   ar
   165    17    15    1
   166   141   140    2
   167    15    12    1
   168   136   137   ar
   169   136   134   ar
   170   126   125   ar
   171   125   124    1
   172   137   135   ar
   173   134   133   ar
   174   140   139    1
   175    14    13    2
   176    12    13    1
   177    12    11    1
   178   124   123    1
   179   143   142    1
   180     7     9   ar
   181     7     6   ar
   182   135   133   ar
   183   133   132    1
   184     4     3    2
   185   123   120    1
   186   139   142    1
   187   139   138    1
   188     9    10   ar
   189   119   120    1
   190   142   144    1
   191     6     5    1
   192     6     8   ar
   193     5     2    1
   194   120   121    1
   195   132   129    1
   196    10     8   ar
   197     3     2    1
   198   121   122    2
   199     2     1    1
   200   129   128    1
   201   129   130    1
   202   130   131    2
