@<TRIPOS>MOLECULE
tmp/3wg8A00.pdb
 206 197 0 0 0
SMALL
GASTEIGER

@<TRIPOS>ATOM
      1  N        -13.4000   -7.9180    7.4650 N.3    57  LYS57      -0.1245
      2  CA       -12.6490   -7.0950    6.5790 C.3    57  LYS57       0.1561
      3  C        -11.1150   -7.2120    6.7850 C.2    57  LYS57       0.2260
      4  O        -10.5470   -6.8410    7.8210 O.2    57  LYS57      -0.2867
      5  CB       -13.1410   -5.6740    6.6940 C.3    57  LYS57       0.0271
      6  CG       -14.5570   -5.5330    6.1280 C.3    57  LYS57       0.0035
      7  CD       -14.9010   -4.0630    5.9430 C.3    57  LYS57       0.0206
      8  CE       -16.3340   -3.8780    5.4090 C.3    57  LYS57       0.1093
      9  NZ       -16.6550   -2.4120    5.2860 N.3    57  LYS57      -0.1314
     10  N         -8.2940   -5.7760    5.6090 N.3    59  PHE59      -0.1227
     11  CA        -7.3760   -4.7040    5.8470 C.3    59  PHE59       0.1736
     12  C         -7.7650   -3.7410    6.9530 C.2    59  PHE59       0.2595
     13  O         -7.0890   -2.7250    7.0830 O.2    59  PHE59      -0.2718
     14  CB        -7.1720   -3.8930    4.5660 C.3    59  PHE59       0.0547
     15  CG        -6.6360   -4.6900    3.4020 C.ar   59  PHE59      -0.0202
     16  CD1       -7.1710   -4.5240    2.1360 C.ar   59  PHE59      -0.0042
     17  CD2       -5.6070   -5.6030    3.5700 C.ar   59  PHE59      -0.0042
     18  CE1       -6.7000   -5.2500    1.0600 C.ar   59  PHE59      -0.0003
     19  CE2       -5.1310   -6.3370    2.4960 C.ar   59  PHE59      -0.0003
     20  CZ        -5.6760   -6.1610    1.2490 C.ar   59  PHE59      -0.0000
     21  N         -8.8260   -4.0000    7.7340 N.am   60  ILE60      -0.1980
     22  CA        -9.1310   -3.0740    8.8640 C.3    60  ILE60       0.1595
     23  C         -8.2880   -3.4550   10.0830 C.2    60  ILE60       0.2287
     24  O         -8.2450   -4.6260   10.4400 O.2    60  ILE60      -0.2864
     25  CB       -10.6080   -3.0750    9.3290 C.3    60  ILE60       0.0276
     26  CG1      -11.4910   -2.5000    8.2380 C.3    60  ILE60       0.0022
     27  CG2      -10.7500   -2.2050   10.5840 C.3    60  ILE60       0.0022
     28  CD1      -12.9590   -2.5610    8.5450 C.3    60  ILE60       0.0001
     29  N        -12.8910    4.0570   10.7450 N.3    79  VAL79      -0.1245
     30  CA       -12.0990    2.8730   10.4830 C.3    79  VAL79       0.1561
     31  C        -10.6840    3.3210   10.2770 C.2    79  VAL79       0.2260
     32  O        -10.4090    4.3000    9.5690 O.2    79  VAL79      -0.2867
     33  CB       -12.5390    2.1300    9.2050 C.3    79  VAL79       0.0252
     34  CG1      -11.4330    1.1990    8.7270 C.3    79  VAL79       0.0019
     35  CG2      -13.8010    1.3280    9.4740 C.3    79  VAL79       0.0019
     36  N         -7.1610    1.8120    8.8490 N.3    81  VAL81      -0.1245
     37  CA        -6.6620    0.6780    8.0280 C.3    81  VAL81       0.1561
     38  C         -5.2630    0.3100    8.5070 C.2    81  VAL81       0.2260
     39  O         -4.6040    1.1100    9.2070 O.2    81  VAL81      -0.2867
     40  CB        -6.7330    0.9750    6.5080 C.3    81  VAL81       0.0252
     41  CG1       -5.4870    1.6350    5.9650 C.3    81  VAL81       0.0019
     42  CG2       -6.9360   -0.3070    5.7490 C.3    81  VAL81       0.0019
     43  N         -0.6680    0.4200    3.3300 N.3    85  LEU85      -0.1231
     44  CA        -1.6720    0.6530    2.2860 C.3    85  LEU85       0.1678
     45  C         -1.6890    2.0970    1.9290 C.2    85  LEU85       0.2434
     46  O         -1.1700    2.9500    2.6710 O.2    85  LEU85      -0.2733
     47  CB        -3.0560    0.2650    2.7710 C.3    85  LEU85       0.0284
     48  CG        -3.2300   -1.2300    2.9310 C.3    85  LEU85       0.0019
     49  CD1       -4.5330   -1.4370    3.6490 C.3    85  LEU85       0.0001
     50  CD2       -3.2160   -2.0110    1.6290 C.3    85  LEU85       0.0001
     51  N         -2.3270    2.4150    0.8060 N.am   86  PRO86      -0.2718
     52  CA        -2.2910    3.7890    0.3550 C.3    86  PRO86       0.1535
     53  C         -3.4980    4.5740    0.9310 C.2    86  PRO86       0.2598
     54  O         -3.8530    5.6650    0.4640 O.2    86  PRO86      -0.2715
     55  CB        -2.3350    3.6130   -1.1400 C.3    86  PRO86       0.0310
     56  CG        -3.2070    2.4420   -1.3360 C.3    86  PRO86       0.0237
     57  CD        -3.1300    1.5890   -0.1010 C.3    86  PRO86       0.0939
     58  N         -4.0800    4.0260    1.9890 N.am   87  ALA87      -0.1978
     59  CA        -5.1100    4.7130    2.7810 C.3    87  ALA87       0.1597
     60  C         -4.7180    4.5780    4.2480 C.2    87  ALA87       0.2287
     61  O         -3.9680    3.6510    4.6060 O.2    87  ALA87      -0.2864
     62  CB        -6.4650    4.0850    2.5230 C.3    87  ALA87       0.0319
     63  N         -7.3140    6.0020    6.9070 N.3    89  THR89      -0.1203
     64  CA        -8.5710    5.9730    7.6330 C.3    89  THR89       0.1994
     65  C         -9.7830    6.1280    6.7070 C.2    89  THR89       0.2618
     66  O         -9.6780    6.6530    5.5610 O.2    89  THR89      -0.2717
     67  CB        -8.5820    7.1030    8.6990 C.3    89  THR89       0.1784
     68  OG1       -9.7450    6.9860    9.5210 O.3    89  THR89      -0.2211
     69  CG2       -8.5910    8.4480    8.0470 C.3    89  THR89       0.0376
     70  N        -10.9360    5.6990    7.2250 N.am   90  SER90      -0.1951
     71  CA       -12.2030    5.9550    6.5600 C.3    90  SER90       0.1924
     72  C        -13.3320    6.1670    7.5490 C.2    90  SER90       0.2314
     73  O        -13.4660    5.4260    8.5230 O.2    90  SER90      -0.2863
     74  CB       -12.5940    4.7830    5.6750 C.3    90  SER90       0.2116
     75  OG       -13.6210    5.1910    4.7750 O.3    90  SER90      -0.2180
     76  N        -17.5250    6.3910    7.8690 N.3    92  GLU92      -0.1245
     77  CA       -18.6190    5.7150    7.1790 C.3    92  GLU92       0.1567
     78  C        -19.9710    5.8240    7.8910 C.2    92  GLU92       0.2260
     79  O        -20.1280    5.4770    9.0550 O.2    92  GLU92      -0.2867
     80  CB       -18.2170    4.2320    6.9640 C.3    92  GLU92       0.0388
     81  CG       -16.7920    4.2090    6.4210 C.3    92  GLU92       0.1160
     82  CD       -16.1870    2.8930    6.0550 C.2    92  GLU92       0.3649
     83  OE1      -16.5790    1.8200    6.5780 O.co2  92  GLU92      -0.2457
     84  OE2      -15.1840    3.0000    5.3120 O.co2  92  GLU92      -0.2457
     85  N        -23.5760    1.2310    3.1990 N.3   106  PHE106     -0.1241
     86  CA       -22.9480    2.3350    3.8460 C.3   106  PHE106      0.1605
     87  C        -22.2980    3.2560    2.7910 C.2   106  PHE106      0.2264
     88  O        -22.1310    2.8880    1.6310 O.2   106  PHE106     -0.2867
     89  CB       -21.9200    1.7970    4.8590 C.3   106  PHE106      0.0534
     90  CG       -20.6780    1.2080    4.2290 C.ar  106  PHE106     -0.0203
     91  CD1      -19.5770    1.9900    4.0230 C.ar  106  PHE106     -0.0042
     92  CD2      -20.6230   -0.1230    3.8700 C.ar  106  PHE106     -0.0042
     93  CE1      -18.4290    1.4680    3.4420 C.ar  106  PHE106     -0.0003
     94  CE2      -19.4750   -0.6770    3.2810 C.ar  106  PHE106     -0.0003
     95  CZ       -18.3710    0.1190    3.0940 C.ar  106  PHE106     -0.0000
     96  N        -18.9950    6.0020    2.2670 N.3   108  ILE108     -0.1245
     97  CA       -17.7860    6.5830    2.7870 C.3   108  ILE108      0.1561
     98  C        -17.8790    8.0850    2.6030 C.2   108  ILE108      0.2260
     99  O        -17.7370    8.5700    1.4810 O.2   108  ILE108     -0.2867
    100  CB       -16.5550    6.0520    2.0500 C.3   108  ILE108      0.0252
    101  CG1      -16.5080    4.5170    2.1240 C.3   108  ILE108      0.0019
    102  CG2      -15.2920    6.7020    2.6170 C.3   108  ILE108      0.0019
    103  CD1      -15.2900    3.9130    1.4500 C.3   108  ILE108      0.0001
    104  N         -8.0870    8.8030    2.2750 N.3   113  HIS113     -0.1226
    105  CA        -8.0820    7.8930    1.1240 C.3   113  HIS113      0.1752
    106  C         -8.5680    8.7310   -0.0830 C.2   113  HIS113      0.2596
    107  O         -8.7600    9.9510    0.0320 O.2   113  HIS113     -0.2718
    108  CB        -9.0270    6.7220    1.3700 C.3   113  HIS113      0.0759
    109  CG       -10.4500    7.1490    1.5160 C.ar  113  HIS113      0.0818
    110  ND1      -11.0120    7.4940    2.7290 N.ar  113  HIS113     -0.2268
    111  CD2      -11.4110    7.3380    0.5950 C.ar  113  HIS113      0.1154
    112  CE1      -12.2590    7.8660    2.5450 C.ar  113  HIS113      0.1986
    113  NE2      -12.5310    7.7660    1.2580 N.ar  113  HIS113     -0.2212
    114  N         -8.7870    8.0790   -1.2130 N.am  114  ARG114     -0.1966
    115  CA        -9.1300    8.7850   -2.4430 C.3   114  ARG114      0.1729
    116  C        -10.4180    8.2700   -3.0940 C.2   114  ARG114      0.2616
    117  O        -10.6590    8.5570   -4.2390 O.2   114  ARG114     -0.2715
    118  CB        -7.9660    8.6620   -3.4460 C.3   114  ARG114      0.0348
    119  CG        -6.6340    9.2880   -3.0030 C.3   114  ARG114      0.0492
    120  CD        -5.4640    8.3770   -3.3870 C.3   114  ARG114      0.2205
    121  NE        -4.1980    9.0900   -3.5990 N.pl3 114  ARG114     -0.0865
    122  CZ        -3.1430    8.5900   -4.2520 C.cat 114  ARG114      0.5346
    123  NH1       -3.1960    7.3570   -4.7860 N.pl3 114  ARG114      0.1354
    124  NH2       -2.0350    9.3300   -4.3830 N.pl3 114  ARG114      0.1354
    125  N        -11.2060    7.4650   -2.3990 N.am  115  LEU115     -0.1977
    126  CA       -12.5070    7.0540   -2.9280 C.3   115  LEU115      0.1596
    127  C        -13.3080    8.3020   -2.8410 C.2   115  LEU115      0.2287
    128  O        -13.2310    9.0280   -1.8430 O.2   115  LEU115     -0.2864
    129  CB       -13.1570    5.9050   -2.1580 C.3   115  LEU115      0.0297
    130  CG       -12.5900    4.5290   -2.5530 C.3   115  LEU115      0.0022
    131  CD1      -11.0700    4.5020   -2.4690 C.3   115  LEU115      0.0001
    132  CD2      -13.1540    3.3580   -1.7400 C.3   115  LEU115      0.0001
    133  N        -18.0510    6.9650   -2.4940 N.3   118  TYR118     -0.1241
    134  CA       -18.2300    5.5140   -2.4790 C.3   118  TYR118      0.1605
    135  C        -19.4730    5.1860   -1.6670 C.2   118  TYR118      0.2264
    136  O        -19.6480    5.7040   -0.5490 O.2   118  TYR118     -0.2867
    137  CB       -17.0000    4.8150   -1.9110 C.3   118  TYR118      0.0534
    138  CG       -17.0630    3.3190   -1.8580 C.ar  118  TYR118     -0.0201
    139  CD1      -17.6850    2.6690   -0.8080 C.ar  118  TYR118     -0.0009
    140  CD2      -16.4880    2.5420   -2.8390 C.ar  118  TYR118     -0.0009
    141  CE1      -17.7770    1.3010   -0.7610 C.ar  118  TYR118      0.0417
    142  CE2      -16.5560    1.1410   -2.7930 C.ar  118  TYR118      0.0417
    143  CZ       -17.1830    0.5420   -1.7420 C.ar  118  TYR118      0.1957
    144  OH       -17.2550   -0.7980   -1.6810 O.3   118  TYR118     -0.2866
    145  N        -22.5500   -8.0560   -3.2000 N.3   139  GLU139     -0.1245
    146  CA       -22.1360   -6.7180   -2.7960 C.3   139  GLU139      0.1567
    147  C        -21.8230   -5.8570   -3.9960 C.2   139  GLU139      0.2260
    148  O        -20.9820   -6.2270   -4.8410 O.2   139  GLU139     -0.2867
    149  CB       -20.9460   -6.7430   -1.8260 C.3   139  GLU139      0.0388
    150  CG       -20.4290   -5.3460   -1.4370 C.3   139  GLU139      0.1160
    151  CD       -19.4310   -5.3210   -0.2440 C.2   139  GLU139      0.3649
    152  OE1      -18.7480   -4.2870   -0.0550 O.co2 139  GLU139     -0.2457
    153  OE2      -19.3220   -6.3050    0.5070 O.co2 139  GLU139     -0.2457
    154  N         -9.8020   -0.2920   -9.1890 N.3   153  MET153     -0.1230
    155  CA        -9.0120   -1.4590   -8.9340 C.3   153  MET153      0.1702
    156  C         -8.9540   -1.6530   -7.4020 C.2   153  MET153      0.2592
    157  O         -9.1130   -2.7670   -6.9250 O.2   153  MET153     -0.2718
    158  CB        -7.6140   -1.3000   -9.5530 C.3   153  MET153      0.0401
    159  CG        -6.7190   -2.5240   -9.3720 C.3   153  MET153      0.0596
    160  SD        -5.9620   -2.7150   -7.7180 S.3   153  MET153     -0.1393
    161  CE        -4.4810   -1.6830   -7.9290 C.3   153  MET153      0.0692
    162  N         -8.6880   -0.5750   -6.6430 N.am  154  PHE154     -0.1962
    163  CA        -8.6140   -0.6920   -5.1930 C.3   154  PHE154      0.1771
    164  C         -9.9220   -1.2810   -4.6500 C.2   154  PHE154      0.2619
    165  O         -9.8880   -2.2420   -3.9200 O.2   154  PHE154     -0.2715
    166  CB        -8.4040    0.6520   -4.5110 C.3   154  PHE154      0.0574
    167  CG        -7.0310    1.2270   -4.6590 C.ar  154  PHE154     -0.0200
    168  CD1       -6.7750    2.4900   -4.1500 C.ar  154  PHE154     -0.0042
    169  CD2       -6.0140    0.5550   -5.3360 C.ar  154  PHE154     -0.0042
    170  CE1       -5.5170    3.0650   -4.2730 C.ar  154  PHE154     -0.0003
    171  CE2       -4.7710    1.1380   -5.4970 C.ar  154  PHE154     -0.0003
    172  CZ        -4.5140    2.3990   -4.9600 C.ar  154  PHE154     -0.0000
    173  N        -11.0540   -0.7130   -5.0620 N.am  155  ALA155     -0.1977
    174  CA       -12.3720   -1.1180   -4.5740 C.3   155  ALA155      0.1597
    175  C        -12.6600   -2.5870   -4.9050 C.2   155  ALA155      0.2287
    176  O        -13.0770   -3.3690   -4.0440 O.2   155  ALA155     -0.2864
    177  CB       -13.4290   -0.2110   -5.1760 C.3   155  ALA155      0.0319
    178  N        -10.5250   -5.0030   -5.5350 N.3   157  THR157     -0.1203
    179  CA        -9.6380   -5.9240   -4.8720 C.3   157  THR157      0.1994
    180  C        -10.0700   -6.0330   -3.4310 C.2   157  THR157      0.2618
    181  O        -10.1810   -7.1210   -2.8590 O.2   157  THR157     -0.2717
    182  CB        -8.1820   -5.4230   -5.0050 C.3   157  THR157      0.1784
    183  OG1       -7.8980   -5.1550   -6.3850 O.3   157  THR157     -0.2211
    184  CG2       -7.2310   -6.4400   -4.5000 C.3   157  THR157      0.0376
    185  N        -10.3650   -4.9000   -2.8180 N.am  158  VAL158     -0.1965
    186  CA       -10.7810   -4.9450   -1.4070 C.3   158  VAL158      0.1727
    187  C        -12.0810   -5.6980   -1.1370 C.2   158  VAL158      0.2616
    188  O        -12.1040   -6.5900   -0.3190 O.2   158  VAL158     -0.2715
    189  CB       -10.7920   -3.5380   -0.7980 C.3   158  VAL158      0.0290
    190  CG1      -11.4810   -3.5280    0.5740 C.3   158  VAL158      0.0023
    191  CG2       -9.3650   -3.0690   -0.6940 C.3   158  VAL158      0.0023
    192  N        -13.1460   -5.3770   -1.8420 N.am  159  VAL159     -0.1977
    193  CA       -14.4260   -6.1470   -1.7100 C.3   159  VAL159      0.1596
    194  C        -14.2580   -7.6350   -1.9870 C.2   159  VAL159      0.2287
    195  O        -14.8310   -8.5090   -1.2610 O.2   159  VAL159     -0.2864
    196  CB       -15.4520   -5.6200   -2.7170 C.3   159  VAL159      0.0276
    197  CG1      -16.6930   -6.4720   -2.7500 C.3   159  VAL159      0.0022
    198  CG2      -15.7900   -4.1700   -2.4140 C.3   159  VAL159      0.0022
    199  N        -12.5830   -9.2170    1.0590 N.3   162  ASN162     -0.1240
    200  CA       -13.5480   -9.1840    2.1700 C.3   162  ASN162      0.1653
    201  C        -14.5910  -10.2300    2.0100 C.2   162  ASN162      0.2266
    202  O        -14.9990  -10.8680    2.9670 O.2   162  ASN162     -0.2867
    203  CB       -14.2480   -7.8380    2.2290 C.3   162  ASN162      0.1155
    204  CG       -13.3340   -6.7520    2.6570 C.2   162  ASN162      0.2627
    205  OD1      -12.2740   -7.0530    3.1870 O.2   162  ASN162     -0.2716
    206  ND2      -13.7440   -5.4740    2.4800 N.am  162  ASN162     -0.0877
@<TRIPOS>BOND
     1   158   159    1
     2   158   155    1
     3   159   160    1
     4   154   155    1
     5   155   156    1
     6   161   160    1
     7   156   157    2
     8   156   162   am
     9   162   163    1
    10   183   182    1
    11   178   179    1
    12   171   169   ar
    13   171   172   ar
    14   169   167   ar
    15   163   164    1
    16   163   166    1
    17   177   174    1
    18   173   164   am
    19   173   174    1
    20   182   179    1
    21   182   184    1
    22   172   170   ar
    23   175   174    1
    24   175   176    2
    25   179   180    1
    26   148   147    2
    27   123   122    1
    28   167   166    1
    29   167   168   ar
    30   164   165    2
    31   124   122    1
    32   170   168   ar
    33   122   121    2
    34   117   116    2
    35   147   146    1
    36   121   120    1
    37   118   119    1
    38   118   115    1
    39   180   181    2
    40   180   185   am
    41   120   119    1
    42   145   146    1
    43   116   115    1
    44   116   125   am
    45   126   127    1
    46   126   125    1
    47   126   129    1
    48   127   128    2
    49   140   142   ar
    50   140   138   ar
    51   185   186    1
    52   146   149    1
    53   142   143   ar
    54   197   196    1
    55   196   198    1
    56   196   193    1
    57   130   131    1
    58   130   129    1
    59   130   132    1
    60   133   134    1
    61   134   137    1
    62   134   135    1
    63   115   114    1
    64   194   193    1
    65   194   195    2
    66   137   138    1
    67   138   139   ar
    68   192   193    1
    69   192   187   am
    70   149   150    1
    71   143   144    1
    72   143   141   ar
    73   135   136    2
    74   150   151    1
    75   186   187    1
    76   186   189    1
    77    56    55    1
    78    56    57    1
    79   114   106   am
    80    55    52    1
    81   187   188    2
    82   139   141   ar
    83   189   191    1
    84   189   190    1
    85   151   152   ar
    86   151   153   ar
    87    57    51    1
    88   106   107    2
    89   106   105    1
    90    52    51    1
    91    52    53    1
    92    54    53    2
    93   111   113   ar
    94   111   109   ar
    95    51    45   am
    96    53    58   am
    97   199   200    1
    98    18    20   ar
    99    18    16   ar
   100   105   108    1
   101   105   104    1
   102    20    19   ar
   103   113   112   ar
   104   108   109    1
   105   103   101    1
   106    99    98    2
   107   109   110   ar
   108    50    48    1
   109    88    87    2
   110    45    44    1
   111    45    46    2
   112    58    59    1
   113   201   200    1
   114   201   202    2
   115   100   101    1
   116   100   102    1
   117   100    97    1
   118    16    15   ar
   119   200   203    1
   120   203   204    1
   121    96    97    1
   122    44    47    1
   123    44    43    1
   124   206   204   am
   125    19    17   ar
   126    62    59    1
   127   112   110   ar
   128    98    97    1
   129   204   205    2
   130    47    48    1
   131    59    60    1
   132    87    86    1
   133    48    49    1
   134    95    94   ar
   135    95    93   ar
   136    85    86    1
   137    94    92   ar
   138    15    17   ar
   139    15    14    1
   140    93    91   ar
   141    86    89    1
   142    92    90   ar
   143    91    90   ar
   144    90    89    1
   145    60    61    2
   146    14    11    1
   147    75    74    1
   148     9     8    1
   149    84    82   ar
   150     8     7    1
   151    66    65    2
   152    10    11    1
   153    74    71    1
   154    42    40    1
   155    11    12    1
   156     7     6    1
   157    41    40    1
   158    82    81    1
   159    82    83   ar
   160     6     5    1
   161    81    80    1
   162    40    37    1
   163    71    70    1
   164    71    72    1
   165     2     5    1
   166     2     3    1
   167     2     1    1
   168    65    70   am
   169    65    64    1
   170     3     4    2
   171    63    64    1
   172    12    13    2
   173    12    21   am
   174    80    77    1
   175    77    76    1
   176    77    78    1
   177    72    73    2
   178    64    67    1
   179    21    22    1
   180    78    79    2
   181    37    38    1
   182    37    36    1
   183    69    67    1
   184    26    28    1
   185    26    25    1
   186    38    39    2
   187    67    68    1
   188    34    33    1
   189    22    25    1
   190    22    23    1
   191    33    35    1
   192    33    30    1
   193    25    27    1
   194    32    31    2
   195    23    24    2
   196    31    30    1
   197    30    29    1
