@<TRIPOS>MOLECULE
tmp/3wgcB00.pdb
 120 109 0 0 0
SMALL
GASTEIGER

@<TRIPOS>ATOM
      1  N        -18.8030   12.4590   57.8590 N.3     7  SER7       -0.1217
      2  CA       -18.3600   11.1290   57.4560 C.3     7  SER7        0.1889
      3  C        -17.9980   10.2830   58.6680 C.2     7  SER7        0.2288
      4  O        -17.7380   10.8120   59.7490 O.2     7  SER7       -0.2866
      5  CB       -17.1510   11.2250   56.5220 C.3     7  SER7        0.2089
      6  OG       -16.7540    9.9400   56.0690 O.3     7  SER7       -0.2183
      7  N        -15.3360    8.7130   58.6850 N.3     9  THR9       -0.1218
      8  CA       -13.8770    8.7170   58.6340 C.3     9  THR9        0.1862
      9  C        -13.2790    9.5540   59.7600 C.2     9  THR9        0.2287
     10  O        -12.0920    9.4380   60.0650 O.2     9  THR9       -0.2866
     11  CB       -13.3490    9.2630   57.2830 C.3     9  THR9        0.1770
     12  OG1      -13.7720   10.6250   57.1120 O.3     9  THR9       -0.2211
     13  CG2      -13.8570    8.4230   56.1180 C.3     9  THR9        0.0375
     14  N         -4.6560    3.1340   53.0240 N.3    58  SER58      -0.1202
     15  CA        -5.9910    3.6350   52.7130 C.3    58  SER58       0.2020
     16  C         -6.8000    2.6500   51.8780 C.2    58  SER58       0.2619
     17  O         -6.2510    1.7210   51.2880 O.2    58  SER58      -0.2717
     18  CB        -5.9060    4.9800   51.9860 C.3    58  SER58       0.2103
     19  OG        -5.3540    4.8320   50.6940 O.3    58  SER58      -0.2182
     20  N         -8.1120    2.8630   51.8380 N.am   59  GLY59      -0.1942
     21  CA        -8.9980    2.0630   51.0140 C.3    59  GLY59       0.2014
     22  C         -8.7860    2.3250   49.5360 C.2    59  GLY59       0.2639
     23  O         -9.0030    1.4460   48.7060 O.2    59  GLY59      -0.2714
     24  N         -8.3810    3.5480   49.2090 N.am   60  THR60      -0.1950
     25  CA        -8.0590    3.9020   47.8370 C.3    60  THR60       0.1897
     26  C         -6.9130    3.0430   47.3190 C.2    60  THR60       0.2313
     27  O         -6.9720    2.5440   46.1960 O.2    60  THR60      -0.2863
     28  CB        -7.6920    5.3930   47.7010 C.3    60  THR60       0.1794
     29  OG1       -8.8500    6.1920   47.9710 O.3    60  THR60      -0.2208
     30  CG2       -7.1980    5.6980   46.2920 C.3    60  THR60       0.0378
     31  N         -8.1070   -0.6240   46.8200 N.3    63  ASN63      -0.1240
     32  CA        -8.7940   -0.7960   45.5480 C.3    63  ASN63       0.1653
     33  C         -7.8430   -0.6370   44.3700 C.2    63  ASN63       0.2266
     34  O         -7.9040   -1.4030   43.4120 O.2    63  ASN63      -0.2867
     35  CB        -9.9500    0.1970   45.4240 C.3    63  ASN63       0.1155
     36  CG       -11.1290   -0.1710   46.3010 C.2    63  ASN63       0.2627
     37  OD1      -11.3760   -1.3460   46.5650 O.2    63  ASN63      -0.2716
     38  ND2      -11.8650    0.8360   46.7570 N.am   63  ASN63      -0.0877
     39  N        -16.9880    4.1070   43.9810 N.3    84  HIS84      -0.1241
     40  CA       -15.9150    4.9350   44.5140 C.3    84  HIS84       0.1621
     41  C        -14.6440    4.8130   43.6690 C.2    84  HIS84       0.2264
     42  O        -13.9500    5.8020   43.4280 O.2    84  HIS84      -0.2867
     43  CB       -15.6240    4.5510   45.9650 C.3    84  HIS84       0.0745
     44  CG       -14.8280    5.5740   46.7100 C.ar   84  HIS84       0.0817
     45  ND1      -13.4540    5.6480   46.6330 N.ar   84  HIS84      -0.2268
     46  CD2      -15.2130    6.5650   47.5480 C.ar   84  HIS84       0.1154
     47  CE1      -13.0280    6.6480   47.3820 C.ar   84  HIS84       0.1986
     48  NE2      -14.0740    7.2160   47.9540 N.ar   84  HIS84      -0.2212
     49  N        -19.8410   -2.8580   45.1030 N.3   137  GLU137     -0.1245
     50  CA       -19.6920   -1.9770   46.2530 C.3   137  GLU137      0.1567
     51  C        -20.7380   -2.2680   47.3280 C.2   137  GLU137      0.2260
     52  O        -21.9400   -2.1990   47.0730 O.2   137  GLU137     -0.2867
     53  CB       -19.7890   -0.5180   45.8030 C.3   137  GLU137      0.0388
     54  CG       -19.2330    0.4920   46.7860 C.3   137  GLU137      0.1160
     55  CD       -19.3340    1.9120   46.2650 C.2   137  GLU137      0.3649
     56  OE1      -18.4440    2.3300   45.4970 O.co2 137  GLU137     -0.2457
     57  OE2      -20.3060    2.6100   46.6190 O.co2 137  GLU137     -0.2457
     58  N        -21.1350   -1.4520   51.5860 N.3   139  THR139     -0.1218
     59  CA       -22.3470   -0.7810   51.1220 C.3   139  THR139      0.1862
     60  C        -22.0870    0.2590   50.0350 C.2   139  THR139      0.2287
     61  O        -20.9470    0.6540   49.7970 O.2   139  THR139     -0.2866
     62  CB       -23.0580   -0.0760   52.2930 C.3   139  THR139      0.1770
     63  OG1      -22.1810    0.9070   52.8550 O.3   139  THR139     -0.2211
     64  CG2      -23.4420   -1.0720   53.3760 C.3   139  THR139      0.0375
     65  N        -15.6010   -3.7250   46.8020 N.3   167  ASP167     -0.1239
     66  CA       -15.2280   -2.5640   47.5920 C.3   167  ASP167      0.1674
     67  C        -16.0930   -2.5780   48.8460 C.2   167  ASP167      0.2266
     68  O        -17.1930   -2.0250   48.8600 O.2   167  ASP167     -0.2867
     69  CB       -15.4170   -1.2680   46.8000 C.3   167  ASP167      0.1410
     70  CG       -14.7770   -0.0680   47.4800 C.2   167  ASP167      0.3668
     71  OD1      -14.4520   -0.1600   48.6800 O.co2 167  ASP167     -0.2456
     72  OD2      -14.5950    0.9710   46.8110 O.co2 167  ASP167     -0.2456
     73  N        -15.6360   -1.1600   51.7690 N.3   169  ALA169     -0.1231
     74  CA       -15.2150   -0.1090   52.6850 C.3   169  ALA169      0.1694
     75  C        -16.1390   -0.0350   53.8950 C.2   169  ALA169      0.2591
     76  O        -15.6900    0.1970   55.0140 O.2   169  ALA169     -0.2718
     77  CB       -15.1770    1.2200   51.9690 C.3   169  ALA169      0.0304
     78  N        -17.4260   -0.2730   53.6580 N.am  170  ARG170     -0.1980
     79  CA       -18.4260   -0.3090   54.7140 C.3   170  ARG170      0.1597
     80  C        -19.1620   -1.6450   54.6970 C.2   170  ARG170      0.2287
     81  O        -20.3800   -1.7050   54.8710 O.2   170  ARG170     -0.2864
     82  CB       -19.4160    0.8440   54.5590 C.3   170  ARG170      0.0334
     83  CG       -18.7710    2.2100   54.6250 C.3   170  ARG170      0.0492
     84  CD       -19.7980    3.3210   54.7220 C.3   170  ARG170      0.2205
     85  NE       -19.1460    4.6150   54.9050 N.pl3 170  ARG170     -0.0865
     86  CZ       -18.6930    5.3650   53.9050 C.cat 170  ARG170      0.5346
     87  NH1      -18.8190    4.9460   52.6530 N.pl3 170  ARG170      0.1354
     88  NH2      -18.1110    6.5310   54.1530 N.pl3 170  ARG170      0.1354
     89  N        -12.4110   -1.3570   54.8100 N.3   195  CYS195     -0.1235
     90  CA       -11.8340   -0.1880   55.4620 C.3   195  CYS195      0.1677
     91  C        -11.9200   -0.2940   56.9790 C.2   195  CYS195      0.2270
     92  O        -12.9670   -0.6250   57.5340 O.2   195  CYS195     -0.2867
     93  CB       -12.5220    1.0920   54.9850 C.3   195  CYS195      0.0956
     94  SG       -11.9550    1.6660   53.3710 S.3   195  CYS195     -0.0801
     95  N        -10.7420    2.3310   58.8240 N.3   197  SER197     -0.1202
     96  CA       -10.6270    3.7110   59.2770 C.3   197  SER197      0.2020
     97  C        -11.9330    4.4920   59.1890 C.2   197  SER197      0.2618
     98  O        -11.9230    5.7220   59.1400 O.2   197  SER197     -0.2717
     99  CB        -9.5360    4.4320   58.4810 C.3   197  SER197      0.2103
    100  OG        -9.7880    4.3510   57.0910 O.3   197  SER197     -0.2182
    101  N        -13.0540    3.7800   59.1730 N.am  198  LYS198     -0.1979
    102  CA       -14.3600    4.4260   59.2350 C.3   198  LYS198      0.1596
    103  C        -15.1200    4.0250   60.4940 C.2   198  LYS198      0.2287
    104  O        -14.6650    4.2800   61.6100 O.2   198  LYS198     -0.2864
    105  CB       -15.1870    4.0900   57.9990 C.3   198  LYS198      0.0298
    106  CG       -14.7760    4.8810   56.7870 C.3   198  LYS198      0.0038
    107  CD       -15.1670    4.1570   55.5240 C.3   198  LYS198      0.0206
    108  CE       -14.7490    4.9450   54.3130 C.3   198  LYS198      0.1093
    109  NZ       -14.0550    4.0480   53.3530 N.3   198  LYS198     -0.1314
    110  N        -25.6040   14.8620   52.9060 N.3   310  ARG310     -0.1245
    111  CA       -25.3240   13.5420   53.4630 C.3   310  ARG310      0.1563
    112  C        -24.9230   13.6110   54.9340 C.2   310  ARG310      0.2260
    113  O        -23.9970   14.3360   55.2970 O.2   310  ARG310     -0.2867
    114  CB       -24.2230   12.8460   52.6610 C.3   310  ARG310      0.0307
    115  CG       -23.9060   11.4480   53.1590 C.3   310  ARG310      0.0489
    116  CD       -22.7060   10.8460   52.4470 C.3   310  ARG310      0.2205
    117  NE       -21.4380   11.3400   52.9740 N.pl3 310  ARG310     -0.0865
    118  CZ       -20.3000   10.6550   52.9210 C.cat 310  ARG310      0.5346
    119  NH1      -20.2830    9.4470   52.3720 N.pl3 310  ARG310      0.1354
    120  NH2      -19.1850   11.1660   53.4260 N.pl3 310  ARG310      0.1354
@<TRIPOS>BOND
     1    34    33    2
     2    42    41    2
     3    41    40    1
     4    39    40    1
     5    33    32    1
     6    40    43    1
     7    49    50    1
     8    35    32    1
     9    35    36    1
    10    56    55   ar
    11    32    31    1
    12    53    50    1
    13    53    54    1
    14    43    44    1
    15    27    26    2
    16    50    51    1
    17    55    57   ar
    18    55    54    1
    19    30    28    1
    20    36    37    2
    21    36    38   am
    22    45    44   ar
    23    45    47   ar
    24    44    46   ar
    25    69    70    1
    26    69    66    1
    27    65    66    1
    28    72    70   ar
    29    52    51    2
    30    26    25    1
    31    47    48   ar
    32    70    71   ar
    33    46    48   ar
    34    66    67    1
    35    28    25    1
    36    28    29    1
    37    25    24    1
    38    23    22    2
    39    67    68    2
    40    24    22   am
    41    22    21    1
    42    61    60    2
    43    60    59    1
    44    19    18    1
    45    21    20    1
    46    59    58    1
    47    59    62    1
    48    17    16    2
    49    73    74    1
    50    20    16   am
    51    16    15    1
    52    77    74    1
    53    18    15    1
    54    62    63    1
    55    62    64    1
    56   119   118    1
    57   116   117    1
    58   116   115    1
    59    87    86    1
    60   114   115    1
    61   114   111    1
    62    74    75    1
    63    15    14    1
    64   110   111    1
    65   118   117    2
    66   118   120    1
    67   109   108    1
    68    94    93    1
    69   111   112    1
    70    78    75   am
    71    78    79    1
    72    75    76    2
    73    86    88    1
    74    86    85    2
    75   108   107    1
    76    82    83    1
    77    82    79    1
    78    83    84    1
    79    80    79    1
    80    80    81    2
    81    84    85    1
    82    89    90    1
    83   112   113    2
    84    93    90    1
    85    90    91    1
    86   107   106    1
    87     6     5    1
    88    13    11    1
    89     5     2    1
    90   106   105    1
    91    91    92    2
    92   100    99    1
    93    12    11    1
    94    11     8    1
    95     2     1    1
    96     2     3    1
    97   105   102    1
    98    99    96    1
    99     8     7    1
   100     8     9    1
   101     3     4    2
   102    95    96    1
   103    98    97    2
   104   101    97   am
   105   101   102    1
   106    97    96    1
   107   102   103    1
   108     9    10    2
   109   103   104    2
