@<TRIPOS>MOLECULE
tmp/3wgiB01.pdb
 157 152 0 0 0
SMALL
GASTEIGER

@<TRIPOS>ATOM
      1  N         82.8080  -15.6280   -0.2260 N.3    87  ILE87      -0.1231
      2  CA        83.7940  -16.3710    0.5460 C.3    87  ILE87       0.1692
      3  C         83.0950  -17.3620    1.4670 C.2    87  ILE87       0.2593
      4  O         82.2090  -16.9980    2.2380 O.2    87  ILE87      -0.2718
      5  CB        84.6860  -15.4670    1.3900 C.3    87  ILE87       0.0266
      6  CG1       85.4920  -14.5220    0.5130 C.3    87  ILE87       0.0019
      7  CG2       85.6610  -16.2930    2.1390 C.3    87  ILE87       0.0020
      8  CD1       84.7750  -13.2300    0.1850 C.3    87  ILE87       0.0001
      9  N         83.4840  -18.6180    1.3660 N.am   88  GLY88      -0.1942
     10  CA        82.9580  -19.6280    2.2210 C.3    88  GLY88       0.2014
     11  C         81.8780  -20.3030    1.4270 C.2    88  GLY88       0.2639
     12  O         80.7470  -19.8350    1.4130 O.2    88  GLY88      -0.2714
     13  N         82.2250  -21.4160    0.7800 N.am   89  ALA89      -0.1963
     14  CA        81.2480  -22.2780    0.0990 C.3    89  ALA89       0.1728
     15  C         80.5550  -23.3040    0.9990 C.2    89  ALA89       0.2617
     16  O         80.3940  -24.4740    0.6090 O.2    89  ALA89      -0.2715
     17  CB        81.8800  -22.9720   -1.0690 C.3    89  ALA89       0.0334
     18  N         80.1100  -22.8550    2.1750 N.am   90  GLY90      -0.1940
     19  CA        79.3640  -23.7210    3.0840 C.3    90  GLY90       0.2014
     20  C         77.8930  -23.9160    2.7180 C.2    90  GLY90       0.2639
     21  O         77.5030  -23.8510    1.5470 O.2    90  GLY90      -0.2714
     22  N         77.0730  -24.1720    3.7300 N.am   91  ASN91      -0.1958
     23  CA        75.6480  -24.1700    3.5380 C.3    91  ASN91       0.1819
     24  C         75.1410  -22.8420    3.0180 C.2    91  ASN91       0.2621
     25  O         74.7000  -22.7620    1.8800 O.2    91  ASN91      -0.2715
     26  CB        74.9480  -24.5370    4.8230 C.3    91  ASN91       0.1195
     27  CG        75.2550  -25.9490    5.2520 C.2    91  ASN91       0.2630
     28  OD1       75.5030  -26.8590    4.4140 O.2    91  ASN91      -0.2716
     29  ND2       75.2340  -26.1610    6.5800 N.am   91  ASN91      -0.0877
     30  N         75.2310  -21.8050    3.8480 N.am   92  LEU92      -0.1963
     31  CA        74.7960  -20.4590    3.5000 C.3    92  LEU92       0.1728
     32  C         75.4680  -19.9850    2.2250 C.2    92  LEU92       0.2616
     33  O         74.8210  -19.5020    1.2900 O.2    92  LEU92      -0.2715
     34  CB        75.1530  -19.5170    4.6320 C.3    92  LEU92       0.0311
     35  CG        74.5140  -18.1340    4.5660 C.3    92  LEU92       0.0022
     36  CD1       72.9850  -18.1980    4.4090 C.3    92  LEU92       0.0001
     37  CD2       74.8940  -17.3760    5.8380 C.3    92  LEU92       0.0001
     38  N         76.7860  -20.1430    2.2010 N.am   93  GLY93      -0.1955
     39  CA        77.5670  -19.8820    0.9980 C.3    93  GLY93       0.1869
     40  C         76.8470  -20.3280   -0.2490 C.2    93  GLY93       0.2309
     41  O         76.4380  -19.5030   -1.0280 O.2    93  GLY93      -0.2863
     42  N         87.0540  -21.0010   -0.9200 N.3   114  ASP114     -0.1225
     43  CA        87.0530  -21.7400    0.3060 C.3   114  ASP114      0.1805
     44  C         88.4980  -22.0400    0.7250 C.2   114  ASP114      0.2598
     45  O         89.3760  -21.9200   -0.0880 O.2   114  ASP114     -0.2718
     46  CB        86.2010  -22.9930    0.1180 C.3   114  ASP114      0.1424
     47  CG        85.5970  -23.5050    1.4330 C.2   114  ASP114      0.3668
     48  OD1       84.3540  -23.4030    1.6100 O.co2 114  ASP114     -0.2456
     49  OD2       86.3670  -23.9970    2.3000 O.co2 114  ASP114     -0.2456
     50  N         88.7790  -22.3290    1.9900 N.am  115  ILE115     -0.1966
     51  CA        90.1070  -22.8260    2.3210 C.3   115  ILE115      0.1727
     52  C         90.1870  -24.3340    2.1020 C.2   115  ILE115      0.2616
     53  O         91.2680  -24.8770    1.8820 O.2   115  ILE115     -0.2715
     54  CB        90.5020  -22.6150    3.7900 C.3   115  ILE115      0.0290
     55  CG1       89.2820  -22.2860    4.6260 C.3   115  ILE115      0.0022
     56  CG2       91.7050  -21.7180    3.9760 C.3   115  ILE115      0.0023
     57  CD1       88.8110  -23.5120    5.5040 C.3   115  ILE115      0.0001
     58  N         89.0760  -25.0360    2.2400 N.am  116  ASN116     -0.1972
     59  CA        89.1680  -26.4810    2.3450 C.3   116  ASN116      0.1688
     60  C         89.3350  -26.9860    0.9170 C.2   116  ASN116      0.2292
     61  O         88.4550  -26.7450    0.0950 O.2   116  ASN116     -0.2864
     62  CB        87.8970  -27.0150    3.0170 C.3   116  ASN116      0.1181
     63  CG        87.8180  -28.5220    3.0440 C.2   116  ASN116      0.2629
     64  OD1       88.7170  -29.2310    2.5530 O.2   116  ASN116     -0.2716
     65  ND2       86.7080  -29.0290    3.6020 N.am  116  ASN116     -0.0877
     66  N         87.1640  -28.8090   -1.7430 N.3   119  LEU119     -0.1245
     67  CA        86.1050  -28.1170   -2.4970 C.3   119  LEU119      0.1561
     68  C         86.6400  -27.5140   -3.7840 C.2   119  LEU119      0.2260
     69  O         85.8780  -27.1860   -4.7130 O.2   119  LEU119     -0.2867
     70  CB        85.4690  -27.0190   -1.6470 C.3   119  LEU119      0.0270
     71  CG        84.7130  -27.5390   -0.4370 C.3   119  LEU119      0.0019
     72  CD1       84.1840  -26.3950    0.3840 C.3   119  LEU119      0.0001
     73  CD2       83.5720  -28.3710   -0.9080 C.3   119  LEU119      0.0001
     74  N         90.8960  -19.7760   -1.4660 N.3   132  VAL132     -0.1245
     75  CA        90.7620  -18.4150   -0.9790 C.3   132  VAL132      0.1561
     76  C         92.1040  -17.7040   -0.8590 C.2   132  VAL132      0.2260
     77  O         92.1280  -16.5230   -0.5150 O.2   132  VAL132     -0.2867
     78  CB        90.0480  -18.3950    0.3830 C.3   132  VAL132      0.0252
     79  CG1       90.8760  -19.1060    1.4420 C.3   132  VAL132      0.0019
     80  CG2       89.7030  -16.9810    0.7910 C.3   132  VAL132      0.0019
     81  N         80.6390  -15.6190    4.0350 N.3   150  CYS150     -0.1221
     82  CA        79.9100  -16.6950    4.6770 C.3   150  CYS150      0.1808
     83  C         80.8500  -17.7520    5.2180 C.2   150  CYS150      0.2601
     84  O         80.6580  -18.9860    4.9240 O.2   150  CYS150     -0.2717
     85  CB        79.0290  -17.3890    3.6690 C.3   150  CYS150      0.0970
     86  SG        78.1960  -16.2960    2.5850 S.3   150  CYS150     -0.0800
     87  N         81.8740  -17.2790    5.9490 N.am  151  ILE151     -0.1966
     88  CA        82.8650  -18.1460    6.5660 C.3   151  ILE151      0.1712
     89  C         82.5910  -18.1610    8.0560 C.2   151  ILE151      0.2458
     90  O         81.9460  -17.2510    8.5540 O.2   151  ILE151     -0.2730
     91  CB        84.2720  -17.6350    6.2890 C.3   151  ILE151      0.0289
     92  CG1       84.4490  -16.1980    6.7250 C.3   151  ILE151      0.0022
     93  CG2       84.5990  -17.7370    4.8160 C.3   151  ILE151      0.0023
     94  CD1       85.8720  -15.7560    6.6190 C.3   151  ILE151      0.0001
     95  N         83.0400  -19.1870    8.7830 N.am  152  PRO152     -0.2716
     96  CA        82.9280  -19.1000   10.2340 C.3   152  PRO152      0.1536
     97  C         83.5920  -17.8280   10.8560 C.2   152  PRO152      0.2598
     98  O         84.5820  -17.3000   10.3090 O.2   152  PRO152     -0.2715
     99  CB        83.6030  -20.3790   10.7060 C.3   152  PRO152      0.0310
    100  CG        84.3720  -20.8540    9.5750 C.3   152  PRO152      0.0237
    101  CD        83.6830  -20.4250    8.3560 C.3   152  PRO152      0.0939
    102  N         83.0300  -17.3430   11.9700 N.am  153  LYS153     -0.1978
    103  CA        83.3300  -16.0260   12.5210 C.3   153  LYS153      0.1596
    104  C         84.7360  -16.0040   13.0400 C.2   153  LYS153      0.2287
    105  O         85.4200  -14.9860   13.0250 O.2   153  LYS153     -0.2864
    106  CB        82.3710  -15.7040   13.6650 C.3   153  LYS153      0.0298
    107  CG        82.7140  -16.3250   15.0370 C.3   153  LYS153      0.0038
    108  CD        81.4430  -16.6030   15.8880 C.3   153  LYS153      0.0206
    109  CE        81.6060  -16.2380   17.3550 C.3   153  LYS153      0.1093
    110  NZ        82.6440  -17.0960   17.9810 N.3   153  LYS153     -0.1314
    111  N         90.4440  -12.3270    7.2650 N.3   159  THR159     -0.1218
    112  CA        89.9940  -12.5860    5.8980 C.3   159  THR159      0.1862
    113  C         89.3500  -11.3320    5.3530 C.2   159  THR159      0.2287
    114  O         89.5400  -10.9790    4.1870 O.2   159  THR159     -0.2866
    115  CB        88.9740  -13.7360    5.8280 C.3   159  THR159      0.1770
    116  OG1       89.5900  -14.9820    6.1630 O.3   159  THR159     -0.2211
    117  CG2       88.4270  -13.8390    4.4350 C.3   159  THR159      0.0375
    118  N         77.6050  -11.8790    6.6910 N.3   174  PHE174     -0.1227
    119  CA        76.6200  -12.7810    7.2500 C.3   174  PHE174      0.1736
    120  C         77.0610  -13.3690    8.6050 C.2   174  PHE174      0.2595
    121  O         76.3290  -14.1690    9.2020 O.2   174  PHE174     -0.2718
    122  CB        76.2760  -13.8860    6.2420 C.3   174  PHE174      0.0547
    123  CG        75.2850  -13.4740    5.2110 C.ar  174  PHE174     -0.0202
    124  CD1       73.9350  -13.7580    5.3700 C.ar  174  PHE174     -0.0042
    125  CD2       75.6890  -12.7690    4.0850 C.ar  174  PHE174     -0.0042
    126  CE1       72.9950  -13.3520    4.3980 C.ar  174  PHE174     -0.0003
    127  CE2       74.7620  -12.3390    3.0930 C.ar  174  PHE174     -0.0003
    128  CZ        73.4250  -12.6260    3.2450 C.ar  174  PHE174     -0.0000
    129  N         78.2600  -12.9880    9.0660 N.am  175  LEU175     -0.1966
    130  CA        78.8300  -13.5450   10.2960 C.3   175  LEU175      0.1713
    131  C         78.2980  -12.6870   11.3990 C.2   175  LEU175      0.2458
    132  O         78.0800  -11.4830   11.1890 O.2   175  LEU175     -0.2730
    133  CB        80.3430  -13.4160   10.3440 C.3   175  LEU175      0.0310
    134  CG        81.2330  -13.5740    9.1420 C.3   175  LEU175      0.0022
    135  CD1       82.5400  -14.0580    9.6220 C.3   175  LEU175      0.0001
    136  CD2       80.6360  -14.5890    8.2200 C.3   175  LEU175      0.0001
    137  N         78.1140  -13.2890   12.5840 N.am  176  PRO176     -0.2727
    138  CA        77.7100  -12.6200   13.8100 C.3   176  PRO176      0.1402
    139  C         78.8630  -11.8770   14.5000 C.2   176  PRO176      0.2269
    140  O         79.0750  -12.0710   15.6840 O.2   176  PRO176     -0.2865
    141  CB        77.2490  -13.7790   14.6850 C.3   176  PRO176      0.0296
    142  CG        78.0260  -14.9050   14.2460 C.3   176  PRO176      0.0237
    143  CD        78.3490  -14.7230   12.8000 C.3   176  PRO176      0.0939
    144  N         71.5960  -12.4010   11.2940 N.3   192  LEU192     -0.1231
    145  CA        70.3900  -13.1620   11.5680 C.3   192  LEU192      0.1693
    146  C         70.4310  -13.5540   13.0420 C.2   192  LEU192      0.2592
    147  O         69.4280  -13.5480   13.7450 O.2   192  LEU192     -0.2718
    148  CB        70.3710  -14.4140   10.7000 C.3   192  LEU192      0.0284
    149  CG        70.8040  -14.4050    9.2370 C.3   192  LEU192      0.0019
    150  CD1       70.8920  -15.8310    8.7920 C.3   192  LEU192      0.0001
    151  CD2       69.7780  -13.7250    8.4240 C.3   192  LEU192      0.0001
    152  N         71.6450  -13.8340   13.5000 N.am  193  SER193     -0.1952
    153  CA        71.9110  -14.3400   14.8430 C.3   193  SER193      0.1924
    154  C         71.2540  -13.3760   15.8230 C.2   193  SER193      0.2314
    155  O         70.6310  -13.8360   16.7590 O.2   193  SER193     -0.2863
    156  CB        73.4500  -14.5450   15.0590 C.3   193  SER193      0.2116
    157  OG        74.1680  -15.1890   13.9120 O.3   193  SER193     -0.2180
@<TRIPOS>BOND
     1    69    68    2
     2    68    67    1
     3    67    66    1
     4    67    70    1
     5    70    71    1
     6    74    75    1
     7    17    14    1
     8    41    40    2
     9    75    76    1
    10    75    78    1
    11    42    43    1
    12    73    71    1
    13    76    77    2
    14    71    72    1
    15    40    39    1
    16     1     2    1
    17    45    44    2
    18    61    60    2
    19    14    13    1
    20    14    15    1
    21    46    43    1
    22    46    47    1
    23     8     6    1
    24    43    44    1
    25    78    80    1
    26    78    79    1
    27     6     5    1
    28     2     5    1
    29     2     3    1
    30    16    15    2
    31    44    50   am
    32    13    11   am
    33    60    59    1
    34    39    38    1
    35    15    18   am
    36    33    32    2
    37     9     3   am
    38     9    10    1
    39     5     7    1
    40    12    11    2
    41    11    10    1
    42    47    48   ar
    43    47    49   ar
    44     3     4    2
    45    21    20    2
    46    25    24    2
    47    53    52    2
    48    50    51    1
    49    52    58   am
    50    52    51    1
    51    18    19    1
    52    38    32   am
    53    32    31    1
    54    58    59    1
    55    51    54    1
    56    59    62    1
    57    64    63    2
    58    86    85    1
    59    20    19    1
    60    20    22   am
    61    62    63    1
    62    24    23    1
    63    24    30   am
    64    63    65   am
    65   127   128   ar
    66   127   125   ar
    67   128   126   ar
    68    31    30    1
    69    31    34    1
    70    23    22    1
    71    23    26    1
    72    85    82    1
    73    54    56    1
    74    54    55    1
    75    81    82    1
    76   125   123   ar
    77   114   113    2
    78   126   124   ar
    79    36    35    1
    80    28    27    2
    81   117   115    1
    82    35    34    1
    83    35    37    1
    84    55    57    1
    85    82    83    1
    86    93    91    1
    87    26    27    1
    88    84    83    2
    89   123   124   ar
    90   123   122    1
    91    83    87   am
    92    27    29   am
    93   113   112    1
    94   115   112    1
    95   115   116    1
    96   112   111    1
    97    87    88    1
    98   122   119    1
    99    91    88    1
   100    91    92    1
   101    88    89    1
   102    94    92    1
   103   118   119    1
   104   119   120    1
   105    89    90    2
   106    89    95   am
   107   136   134    1
   108   101    95    1
   109   101   100    1
   110   151   149    1
   111   120   129   am
   112   120   121    2
   113    95    96    1
   114   150   149    1
   115   129   130    1
   116   134   135    1
   117   134   133    1
   118   149   148    1
   119   100    99    1
   120    96    99    1
   121    96    97    1
   122   130   133    1
   123   130   131    1
   124    98    97    2
   125   148   145    1
   126    97   102   am
   127   132   131    2
   128   144   145    1
   129   131   137   am
   130   145   146    1
   131   102   103    1
   132   103   104    1
   133   103   106    1
   134   137   143    1
   135   137   138    1
   136   143   142    1
   137   105   104    2
   138   146   152   am
   139   146   147    2
   140   152   153    1
   141   106   107    1
   142   138   139    1
   143   138   141    1
   144   157   156    1
   145   142   141    1
   146   139   140    2
   147   153   156    1
   148   153   154    1
   149   107   108    1
   150   154   155    2
   151   108   109    1
   152   109   110    1
