@<TRIPOS>MOLECULE
tmp/3wgtB01.pdb
 120 112 0 0 0
SMALL
GASTEIGER

@<TRIPOS>ATOM
      1  N         27.1220   48.5070   13.0220 N.3    49  ALA49      -0.1231
      2  CA        26.4340   47.2360   13.1960 C.3    49  ALA49       0.1694
      3  C         27.2410   46.1200   12.5880 C.2    49  ALA49       0.2593
      4  O         27.1960   45.0180   13.0760 O.2    49  ALA49      -0.2718
      5  CB        25.0360   47.2770   12.5980 C.3    49  ALA49       0.0304
      6  N         27.9830   46.3990   11.5150 N.am   50  GLY50      -0.1942
      7  CA        28.8680   45.4150   10.9600 C.3    50  GLY50       0.2014
      8  C         28.2610   44.5920    9.7880 C.2    50  GLY50       0.2638
      9  O         28.6310   43.4250    9.6380 O.2    50  GLY50      -0.2714
     10  N         27.3430   45.1620    8.9850 N.am   51  LEU51      -0.1977
     11  CA        26.7600   44.4790    7.8010 C.3    51  LEU51       0.1596
     12  C         27.0790   45.1610    6.4620 C.2    51  LEU51       0.2287
     13  O         26.9550   46.3770    6.3240 O.2    51  LEU51      -0.2864
     14  CB        25.2220   44.3290    7.9320 C.3    51  LEU51       0.0297
     15  CG        24.5170   43.5510    6.7970 C.3    51  LEU51       0.0022
     16  CD1       24.8660   42.0640    6.8880 C.3    51  LEU51       0.0001
     17  CD2       23.0060   43.7230    6.8860 C.3    51  LEU51       0.0001
     18  N         25.5180   46.2310    3.4400 N.3    53  GLN53      -0.1245
     19  CA        24.2580   46.5070    2.7610 C.3    53  GLN53       0.1566
     20  C         24.1240   48.0080    2.5290 C.2    53  GLN53       0.2260
     21  O         24.0560   48.7630    3.4620 O.2    53  GLN53      -0.2867
     22  CB        23.0370   45.9980    3.5570 C.3    53  GLN53       0.0367
     23  CG        21.7490   46.0800    2.7580 C.3    53  GLN53       0.0905
     24  CD        20.5780   45.4700    3.4800 C.2    53  GLN53       0.2608
     25  OE1       19.6710   46.1790    3.9680 O.2    53  GLN53      -0.2717
     26  NE2       20.6010   44.1840    3.6080 N.am   53  GLN53      -0.0878
     27  N         23.1680   57.4520   15.5830 N.3   200  GLY200     -0.1210
     28  CA        22.7050   56.0860   15.7060 C.3   200  GLY200      0.1956
     29  C         23.0610   55.5640   17.0740 C.2   200  GLY200      0.2612
     30  O         24.2060   55.7190   17.5340 O.2   200  GLY200     -0.2717
     31  N         22.0890   54.9400   17.7330 N.am  201  GLN201     -0.1965
     32  CA        22.3100   54.3210   19.0310 C.3   201  GLN201      0.1733
     33  C         22.0810   52.8290   18.8570 C.2   201  GLN201      0.2616
     34  O         21.1870   52.4100   18.1030 O.2   201  GLN201     -0.2715
     35  CB        21.3240   54.8980   20.0540 C.3   201  GLN201      0.0408
     36  CG        21.7170   54.7120   21.5060 C.3   201  GLN201      0.0908
     37  CD        20.8360   55.5000   22.4640 C.2   201  GLN201      0.2608
     38  OE1       20.7130   56.7280   22.3670 O.2   201  GLN201     -0.2717
     39  NE2       20.2140   54.7900   23.4060 N.am  201  GLN201     -0.0878
     40  N         22.8920   52.0260   19.5220 N.am  202  ILE202     -0.1977
     41  CA        22.7350   50.5860   19.4450 C.3   202  ILE202      0.1596
     42  C         22.8020   49.9570   20.8190 C.2   202  ILE202      0.2287
     43  O         23.4000   50.4990   21.7490 O.2   202  ILE202     -0.2864
     44  CB        23.8170   49.9240   18.5650 C.3   202  ILE202      0.0276
     45  CG1       25.2240   50.2760   19.0710 C.3   202  ILE202      0.0022
     46  CG2       23.6210   50.3140   17.1100 C.3   202  ILE202      0.0022
     47  CD1       26.3380   49.4010   18.5400 C.3   202  ILE202      0.0001
     48  N         16.5320   42.9810    9.1390 N.3   215  ILE215     -0.1245
     49  CA        16.4240   44.4370    9.0260 C.3   215  ILE215      0.1561
     50  C         14.9820   44.7610    8.5790 C.2   215  ILE215      0.2260
     51  O         14.5400   44.3570    7.5000 O.2   215  ILE215     -0.2867
     52  CB        17.4500   44.9940    8.0390 C.3   215  ILE215      0.0252
     53  CG1       18.8720   44.6820    8.5150 C.3   215  ILE215      0.0019
     54  CG2       17.3280   46.5070    7.8730 C.3   215  ILE215      0.0019
     55  CD1       19.8450   44.7080    7.3800 C.3   215  ILE215      0.0001
     56  N         16.8330   52.9940    8.6920 N.3   224  TYR224     -0.1241
     57  CA        17.3140   52.6280   10.0340 C.3   224  TYR224      0.1605
     58  C         16.5960   53.2460   11.2350 C.2   224  TYR224      0.2264
     59  O         17.0720   53.1270   12.3820 O.2   224  TYR224     -0.2867
     60  CB        18.8400   52.7660   10.1530 C.3   224  TYR224      0.0534
     61  CG        19.5370   52.0380    9.0370 C.ar  224  TYR224     -0.0201
     62  CD1       19.2250   50.7160    8.7540 C.ar  224  TYR224     -0.0009
     63  CD2       20.4840   52.6790    8.2320 C.ar  224  TYR224     -0.0009
     64  CE1       19.8250   50.0490    7.6880 C.ar  224  TYR224      0.0417
     65  CE2       21.0840   52.0260    7.1760 C.ar  224  TYR224      0.0417
     66  CZ        20.7690   50.7110    6.9070 C.ar  224  TYR224      0.1957
     67  OH        21.3820   50.0490    5.8450 O.3   224  TYR224     -0.2866
     68  N         16.3370   46.7240   13.8380 N.3   228  LEU228     -0.1245
     69  CA        17.2870   45.9030   13.0990 C.3   228  LEU228      0.1561
     70  C         18.1180   45.0520   14.0510 C.2   228  LEU228      0.2260
     71  O         18.4340   45.4740   15.1690 O.2   228  LEU228     -0.2867
     72  CB        18.2180   46.7590   12.2500 C.3   228  LEU228      0.0270
     73  CG        19.0790   47.7680   13.0140 C.3   228  LEU228      0.0019
     74  CD1       20.4940   47.2480   13.2440 C.3   228  LEU228      0.0001
     75  CD2       19.1540   49.0720   12.2370 C.3   228  LEU228      0.0001
     76  N         21.5420   42.5070   13.9230 N.3   230  ILE230     -0.1245
     77  CA        22.6810   42.0390   13.1300 C.3   230  ILE230      0.1561
     78  C         23.6260   41.2000   13.9840 C.2   230  ILE230      0.2260
     79  O         24.2500   41.6890   14.9020 O.2   230  ILE230     -0.2867
     80  CB        23.4190   43.2170   12.4520 C.3   230  ILE230      0.0252
     81  CG1       22.4460   44.0060   11.5580 C.3   230  ILE230      0.0019
     82  CG2       24.5680   42.6930   11.5990 C.3   230  ILE230      0.0019
     83  CD1       22.9640   45.3510   11.0960 C.3   230  ILE230      0.0001
     84  N         19.4980   47.5700   16.7810 N.3   239  GLY239     -0.1210
     85  CA        19.3890   48.9670   16.3710 C.3   239  GLY239      0.1956
     86  C         17.9780   49.3920   16.0630 C.2   239  GLY239      0.2612
     87  O         17.0270   48.6280   16.2310 O.2   239  GLY239     -0.2717
     88  N         17.8460   50.6300   15.6100 N.am  240  GLY240     -0.1942
     89  CA        16.5660   51.1690   15.2020 C.3   240  GLY240      0.2014
     90  C         16.4480   52.6800   15.3110 C.2   240  GLY240      0.2640
     91  O         15.3470   53.1820   15.2190 O.2   240  GLY240     -0.2714
     92  N         17.5440   53.4210   15.5180 N.am  241  THR241     -0.1936
     93  CA        17.4720   54.8910   15.4020 C.3   241  THR241      0.2028
     94  C         18.6290   55.4080   14.5320 C.2   241  THR241      0.2642
     95  O         19.7490   54.9230   14.6160 O.2   241  THR241     -0.2714
     96  CB        17.5370   55.6400   16.7670 C.3   241  THR241      0.1808
     97  OG1       18.8500   55.5270   17.3330 O.3   241  THR241     -0.2208
     98  CG2       16.5410   55.0930   17.7220 C.3   241  THR241      0.0379
     99  N         18.3250   56.3800   13.6910 N.am  242  PHE242     -0.1973
    100  CA        19.3200   57.0210   12.8350 C.3   242  PHE242      0.1639
    101  C         18.7630   58.4120   12.5290 C.2   242  PHE242      0.2290
    102  O         18.0350   58.6010   11.5450 O.2   242  PHE242     -0.2864
    103  CB        19.4910   56.1860   11.5750 C.3   242  PHE242      0.0560
    104  CG        20.6900   56.5360   10.7580 C.ar  242  PHE242     -0.0200
    105  CD1       20.5950   56.5840    9.3740 C.ar  242  PHE242     -0.0042
    106  CD2       21.9200   56.7900   11.3500 C.ar  242  PHE242     -0.0042
    107  CE1       21.7010   56.8700    8.5980 C.ar  242  PHE242     -0.0003
    108  CE2       23.0240   57.0840   10.5770 C.ar  242  PHE242     -0.0003
    109  CZ        22.9040   57.1450    9.1960 C.ar  242  PHE242     -0.0000
    110  N         25.5220   56.1100    6.6940 N.3   313  GLY313     -0.1225
    111  CA        25.3640   54.7550    7.2540 C.3   313  GLY313      0.1811
    112  C         25.8670   53.5700    6.4240 C.2   313  GLY313      0.2280
    113  O         25.3800   52.4530    6.5780 O.2   313  GLY313     -0.2866
    114  N         30.3430   49.3730    4.0210 N.3   317  THR317     -0.1218
    115  CA        29.7930   48.8420    2.7800 C.3   317  THR317      0.1862
    116  C         30.5300   49.3860    1.5590 C.2   317  THR317      0.2287
    117  O         30.6890   48.6610    0.5800 O.2   317  THR317     -0.2866
    118  CB        28.2790   49.1320    2.6980 C.3   317  THR317      0.1770
    119  OG1       27.5940   48.4550    3.7790 O.3   317  THR317     -0.2211
    120  CG2       27.6920   48.6940    1.3700 C.3   317  THR317      0.0375
@<TRIPOS>BOND
     1   117   116    2
     2   120   118    1
     3   116   115    1
     4    20    19    1
     5    20    21    2
     6   118   115    1
     7   118   119    1
     8    23    24    1
     9    23    22    1
    10    19    18    1
    11    19    22    1
    12   115   114    1
    13    24    26   am
    14    24    25    2
    15    67    66    1
    16    13    12    2
    17   112   113    2
    18   112   111    1
    19    12    11    1
    20   110   111    1
    21    15    17    1
    22    15    16    1
    23    15    14    1
    24    66    65   ar
    25    66    64   ar
    26    65    63   ar
    27    55    53    1
    28    51    50    2
    29    64    62   ar
    30    11    14    1
    31    11    10    1
    32    54    52    1
    33    52    53    1
    34    52    49    1
    35    63    61   ar
    36    50    49    1
    37   107   109   ar
    38   107   105   ar
    39    56    57    1
    40    62    61   ar
    41    10     8   am
    42    49    48    1
    43    61    60    1
    44   109   108   ar
    45   105   104   ar
    46     9     8    2
    47     8     7    1
    48    57    60    1
    49    57    58    1
    50   108   106   ar
    51   104   106   ar
    52   104   103    1
    53     7     6    1
    54    83    81    1
    55    58    59    2
    56     6     3   am
    57   102   101    2
    58    81    80    1
    59   103   100    1
    60    82    80    1
    61    75    73    1
    62    72    73    1
    63    72    69    1
    64    80    77    1
    65   101   100    1
    66     3     4    2
    67     3     2    1
    68     5     2    1
    69   100    99    1
    70    73    74    1
    71     1     2    1
    72    69    68    1
    73    69    70    1
    74    77    76    1
    75    77    78    1
    76    99    94   am
    77    78    79    2
    78    70    71    2
    79    94    95    2
    80    94    93    1
    81    89    90    1
    82    89    88    1
    83    91    90    2
    84    90    92   am
    85    93    92    1
    86    93    96    1
    87    27    28    1
    88    88    86   am
    89    28    29    1
    90    86    87    2
    91    86    85    1
    92    85    84    1
    93    96    97    1
    94    96    98    1
    95    29    30    2
    96    29    31   am
    97    46    44    1
    98    31    32    1
    99    34    33    2
   100    47    45    1
   101    44    45    1
   102    44    41    1
   103    33    32    1
   104    33    40   am
   105    32    35    1
   106    41    40    1
   107    41    42    1
   108    35    36    1
   109    42    43    2
   110    36    37    1
   111    38    37    2
   112    37    39   am
