@<TRIPOS>MOLECULE
tmp/3wgvA06.pdb
 111 104 0 0 0
SMALL
GASTEIGER

@<TRIPOS>ATOM
      1  N         61.5360   48.5020   45.0580 N.3   261  HIS261     -0.1241
      2  CA        60.1800   49.0440   45.1470 C.3   261  HIS261      0.1621
      3  C         59.4070   48.3660   46.2740 C.2   261  HIS261      0.2264
      4  O         58.7330   49.0240   47.0650 O.2   261  HIS261     -0.2867
      5  CB        59.4630   48.8610   43.8020 C.3   261  HIS261      0.0745
      6  CG        57.9660   48.9560   43.8700 C.ar  261  HIS261      0.0817
      7  ND1       57.2970   50.1560   43.9870 N.ar  261  HIS261     -0.2268
      8  CD2       57.0090   47.9980   43.7930 C.ar  261  HIS261      0.1154
      9  CE1       55.9940   49.9330   43.9970 C.ar  261  HIS261      0.1986
     10  NE2       55.7920   48.6310   43.8820 N.ar  261  HIS261     -0.2212
     11  N         58.0160   49.7950   50.2050 N.3   265  ILE265     -0.1245
     12  CA        56.6810   49.7870   50.7690 C.3   265  ILE265      0.1561
     13  C         56.5330   48.7900   51.9180 C.2   265  ILE265      0.2260
     14  O         55.8340   49.0850   52.8860 O.2   265  ILE265     -0.2867
     15  CB        55.6250   49.5010   49.7100 C.3   265  ILE265      0.0252
     16  CG1       56.1880   48.5650   48.6500 C.3   265  ILE265      0.0019
     17  CG2       55.1660   50.8130   49.0620 C.3   265  ILE265      0.0019
     18  CD1       55.2470   48.3600   47.4660 C.3   265  ILE265      0.0001
     19  N         54.8950   49.8420   55.5750 N.3   269  VAL269     -0.1245
     20  CA        53.7930   49.2730   56.3290 C.3   269  VAL269      0.1561
     21  C         54.3210   48.6860   57.6210 C.2   269  VAL269      0.2260
     22  O         53.6450   48.7340   58.6360 O.2   269  VAL269     -0.2867
     23  CB        53.0210   48.1950   55.5330 C.3   269  VAL269      0.0252
     24  CG1       51.9930   48.8420   54.6010 C.3   269  VAL269      0.0019
     25  CG2       53.9810   47.2940   54.7740 C.3   269  VAL269      0.0019
     26  N         54.5450   51.3820   59.9090 N.3   272  PHE272     -0.1227
     27  CA        53.2330   51.9170   60.1870 C.3   272  PHE272      0.1736
     28  C         52.5720   51.1350   61.3000 C.2   272  PHE272      0.2595
     29  O         51.8540   51.6990   62.1170 O.2   272  PHE272     -0.2718
     30  CB        52.3280   51.8940   58.9730 C.3   272  PHE272      0.0547
     31  CG        50.8870   52.1560   59.3160 C.ar  272  PHE272     -0.0202
     32  CD1       50.5250   53.3190   59.9810 C.ar  272  PHE272     -0.0042
     33  CD2       49.8990   51.2450   58.9970 C.ar  272  PHE272     -0.0042
     34  CE1       49.2030   53.5740   60.3170 C.ar  272  PHE272     -0.0003
     35  CE2       48.5680   51.4960   59.3260 C.ar  272  PHE272     -0.0003
     36  CZ        48.2230   52.6620   59.9860 C.ar  272  PHE272     -0.0000
     37  N         52.8060   49.8300   61.3270 N.am  273  LEU273     -0.1980
     38  CA        52.2140   48.9820   62.3570 C.3   273  LEU273      0.1596
     39  C         52.9070   49.2200   63.6870 C.2   273  LEU273      0.2287
     40  O         52.2490   49.4300   64.7090 O.2   273  LEU273     -0.2864
     41  CB        52.3000   47.5020   61.9840 C.3   273  LEU273      0.0297
     42  CG        51.5530   47.0440   60.7290 C.3   273  LEU273      0.0022
     43  CD1       51.0340   45.6320   60.9400 C.3   273  LEU273      0.0001
     44  CD2       50.4110   47.9840   60.3510 C.3   273  LEU273      0.0001
     45  N         51.8820   52.3920   65.2580 N.3   276  SER276     -0.1202
     46  CA        50.4580   52.3830   65.5260 C.3   276  SER276      0.2020
     47  C         50.2050   51.4520   66.7030 C.2   276  SER276      0.2618
     48  O         49.3990   51.7650   67.5750 O.2   276  SER276     -0.2717
     49  CB        49.6590   51.9610   64.2980 C.3   276  SER276      0.2103
     50  OG        50.1260   50.7340   63.7730 O.3   276  SER276     -0.2182
     51  N         50.9150   50.3260   66.7440 N.am  277  PHE277     -0.1975
     52  CA        50.8390   49.4370   67.9000 C.3   277  PHE277      0.1639
     53  C         51.4760   50.1160   69.1000 C.2   277  PHE277      0.2290
     54  O         50.9730   50.0210   70.2150 O.2   277  PHE277     -0.2864
     55  CB        51.5220   48.0920   67.6310 C.3   277  PHE277      0.0560
     56  CG        50.6700   47.1140   66.8720 C.ar  277  PHE277     -0.0200
     57  CD1       49.4380   47.4890   66.3630 C.ar  277  PHE277     -0.0042
     58  CD2       51.1070   45.8140   66.6710 C.ar  277  PHE277     -0.0042
     59  CE1       48.6580   46.5880   65.6590 C.ar  277  PHE277     -0.0003
     60  CE2       50.3330   44.9050   65.9680 C.ar  277  PHE277     -0.0003
     61  CZ        49.1050   45.2920   65.4620 C.ar  277  PHE277     -0.0000
     62  N         51.6580   53.2700   70.0240 N.3   279  ILE279     -0.1231
     63  CA        50.7430   54.2020   70.6680 C.3   279  ILE279      0.1692
     64  C         49.5080   53.4690   71.1930 C.2   279  ILE279      0.2591
     65  O         48.9950   53.7900   72.2680 O.2   279  ILE279     -0.2718
     66  CB        50.3230   55.3440   69.7110 C.3   279  ILE279      0.0266
     67  CG1       49.4930   54.8200   68.5370 C.3   279  ILE279      0.0019
     68  CG2       51.5500   56.0700   69.2030 C.3   279  ILE279      0.0020
     69  CD1       48.8380   55.9020   67.7300 C.3   279  ILE279      0.0001
     70  N         49.0440   52.4750   70.4400 N.am  280  LEU280     -0.1980
     71  CA        47.9680   51.6160   70.9020 C.3   280  LEU280      0.1596
     72  C         48.3560   50.9580   72.2050 C.2   280  LEU280      0.2287
     73  O         47.5630   50.9160   73.1320 O.2   280  LEU280     -0.2864
     74  CB        47.6280   50.5490   69.8670 C.3   280  LEU280      0.0297
     75  CG        46.5340   50.9440   68.8820 C.3   280  LEU280      0.0022
     76  CD1       46.6050   50.0770   67.6300 C.3   280  LEU280      0.0001
     77  CD2       45.1830   50.8240   69.5570 C.3   280  LEU280      0.0001
     78  N         50.7030   39.5280   64.2630 N.3   758  ILE758     -0.1245
     79  CA        50.0310   40.7490   64.6910 C.3   758  ILE758      0.1561
     80  C         48.5630   40.5830   65.0650 C.2   758  ILE758      0.2260
     81  O         48.0060   41.4360   65.7540 O.2   758  ILE758     -0.2867
     82  CB        50.1100   41.8300   63.6090 C.3   758  ILE758      0.0252
     83  CG1       49.2510   41.4430   62.4110 C.3   758  ILE758      0.0019
     84  CG2       51.5480   42.0310   63.1750 C.3   758  ILE758      0.0019
     85  CD1       49.0420   42.5580   61.4340 C.3   758  ILE758      0.0001
     86  N         46.0120   42.5260   68.2250 N.3   762  LEU762     -0.1245
     87  CA        44.7890   43.1470   67.7280 C.3   762  LEU762      0.1561
     88  C         43.5750   42.6090   68.4490 C.2   762  LEU762      0.2260
     89  O         42.6880   43.3590   68.8360 O.2   762  LEU762     -0.2867
     90  CB        44.6290   42.8960   66.2410 C.3   762  LEU762      0.0270
     91  CG        45.7280   43.4780   65.3710 C.3   762  LEU762      0.0019
     92  CD1       45.5670   42.9450   63.9630 C.3   762  LEU762      0.0001
     93  CD2       45.6490   44.9850   65.4100 C.3   762  LEU762      0.0001
     94  N         54.8130   40.8940   38.5960 N.3   814  LYS814     -0.1245
     95  CA        55.7520   41.6090   39.4360 C.3   814  LYS814      0.1561
     96  C         56.2170   40.6570   40.5320 C.2   814  LYS814      0.2260
     97  O         55.4940   39.7200   40.8890 O.2   814  LYS814     -0.2867
     98  CB        55.1080   42.8660   40.0150 C.3   814  LYS814      0.0271
     99  CG        54.5070   43.7520   38.9520 C.3   814  LYS814      0.0035
    100  CD        54.1500   45.0990   39.5130 C.3   814  LYS814      0.0206
    101  CE        53.9750   46.0850   38.3870 C.3   814  LYS814      0.1093
    102  NZ        55.0360   45.8910   37.3660 N.3   814  LYS814     -0.1314
    103  N         49.3070   41.5810   43.8490 N.3   818  GLU818     -0.1245
    104  CA        48.1480   41.4490   44.7360 C.3   818  GLU818      0.1567
    105  C         47.8410   39.9920   45.0030 C.2   818  GLU818      0.2260
    106  O         47.4000   39.6360   46.0930 O.2   818  GLU818     -0.2867
    107  CB        46.9120   42.1650   44.1560 C.3   818  GLU818      0.0388
    108  CG        46.5810   41.8330   42.7060 C.3   818  GLU818      0.1160
    109  CD        45.5940   42.8160   42.0920 C.2   818  GLU818      0.3649
    110  OE1       45.7000   44.0280   42.3780 O.co2 818  GLU818     -0.2457
    111  OE2       44.7120   42.3760   41.3240 O.co2 818  GLU818     -0.2457
@<TRIPOS>BOND
     1   102   101    1
     2   101   100    1
     3    94    95    1
     4    99   100    1
     5    99    98    1
     6    95    98    1
     7    95    96    1
     8    96    97    2
     9   111   109   ar
    10   109   110   ar
    11   109   108    1
    12   108   107    1
    13     8     6   ar
    14     8    10   ar
    15     5     6    1
    16     5     2    1
    17   103   104    1
    18     6     7   ar
    19    10     9   ar
    20     7     9   ar
    21   107   104    1
    22   104   105    1
    23   105   106    2
    24     1     2    1
    25     2     3    1
    26     3     4    2
    27    18    16    1
    28    16    15    1
    29    17    15    1
    30    15    12    1
    31    11    12    1
    32    12    13    1
    33    13    14    2
    34    24    23    1
    35    25    23    1
    36    23    20    1
    37    19    20    1
    38    20    21    1
    39    21    22    2
    40    30    31    1
    41    30    27    1
    42    33    31   ar
    43    33    35   ar
    44    31    32   ar
    45    35    36   ar
    46    26    27    1
    47    32    34   ar
    48    36    34   ar
    49    27    28    1
    50    44    42    1
    51    42    43    1
    52    42    41    1
    53    28    37   am
    54    28    29    2
    55    37    38    1
    56    85    83    1
    57    41    38    1
    58    38    39    1
    59    83    82    1
    60    84    82    1
    61    82    79    1
    62    39    40    2
    63    50    49    1
    64    92    91    1
    65    78    79    1
    66    49    46    1
    67    79    80    1
    68    80    81    2
    69    45    46    1
    70    91    93    1
    71    91    90    1
    72    61    59   ar
    73    61    60   ar
    74    46    47    1
    75    59    57   ar
    76    60    58   ar
    77    90    87    1
    78    57    56   ar
    79    58    56   ar
    80    47    51   am
    81    47    48    2
    82    51    52    1
    83    56    55    1
    84    76    75    1
    85    55    52    1
    86    87    86    1
    87    87    88    1
    88    69    67    1
    89    52    53    1
    90    88    89    2
    91    67    66    1
    92    75    77    1
    93    75    74    1
    94    53    54    2
    95    68    66    1
    96    66    63    1
    97    74    71    1
    98    62    63    1
    99    70    71    1
   100    70    64   am
   101    63    64    1
   102    71    72    1
   103    64    65    2
   104    72    73    2
