@<TRIPOS>MOLECULE
tmp/3wgvD03.pdb
 131 125 0 0 0
SMALL
GASTEIGER

@<TRIPOS>ATOM
      1  N         72.2780  110.6820   49.5270 N.3   800  SER800     -0.1202
      2  CA        73.1710  111.3160   48.5710 C.3   800  SER800      0.2020
      3  C         74.4080  110.4440   48.3950 C.2   800  SER800      0.2618
      4  O         74.9640  110.3320   47.3040 O.2   800  SER800     -0.2717
      5  CB        73.5540  112.7160   49.0370 C.3   800  SER800      0.2103
      6  OG        74.5750  113.2550   48.2170 O.3   800  SER800     -0.2182
      7  N         74.8160  109.8200   49.4960 N.am  801  ASP801     -0.1973
      8  CA        75.9810  108.9430   49.5440 C.3   801  ASP801      0.1709
      9  C         75.7220  107.5510   48.9760 C.2   801  ASP801      0.2293
     10  O         75.7800  106.5790   49.7350 O.2   801  ASP801     -0.2864
     11  CB        76.4580  108.7660   50.9950 C.3   801  ASP801      0.1436
     12  CG        77.1840  109.9750   51.5330 C.2   801  ASP801      0.3671
     13  OD1       76.9800  111.0850   50.9980 O.co2 801  ASP801     -0.2456
     14  OD2       77.9520  109.8110   52.5080 O.co2 801  ASP801     -0.2456
     15  N         73.5930  106.5980   56.8960 N.3   912  ARG912     -0.1231
     16  CA        74.7730  107.4730   56.9940 C.3   912  ARG912      0.1694
     17  C         74.4680  108.9620   57.2570 C.2   912  ARG912      0.2592
     18  O         74.8460  109.4830   58.3050 O.2   912  ARG912     -0.2718
     19  CB        75.6380  107.3430   55.7320 C.3   912  ARG912      0.0321
     20  CG        76.6780  106.2200   55.8200 C.3   912  ARG912      0.0489
     21  CD        77.6050  106.1580   54.6020 C.3   912  ARG912      0.2205
     22  NE        78.3680  107.3890   54.4080 N.pl3 912  ARG912     -0.0865
     23  CZ        79.4820  107.6940   55.0680 C.cat 912  ARG912      0.5346
     24  NH1       79.9680  106.8570   55.9770 N.pl3 912  ARG912      0.1354
     25  NH2       80.1040  108.8400   54.8220 N.pl3 912  ARG912      0.1354
     26  N         73.8080  109.6490   56.3230 N.am  913  ASN913     -0.1960
     27  CA        73.5280  111.0890   56.4800 C.3   913  ASN913      0.1819
     28  C         72.6370  111.4400   57.6760 C.2   913  ASN913      0.2622
     29  O         71.9520  110.5840   58.2310 O.2   913  ASN913     -0.2715
     30  CB        72.8720  111.6500   55.2190 C.3   913  ASN913      0.1195
     31  CG        73.6980  111.4130   53.9780 C.2   913  ASN913      0.2630
     32  OD1       74.9280  111.4490   54.0200 O.2   913  ASN913     -0.2716
     33  ND2       73.0230  111.1610   52.8590 N.am  913  ASN913     -0.0877
     34  N         72.6400  112.7080   58.0740 N.am  914  SER914     -0.1950
     35  CA        71.7120  113.1480   59.1080 C.3   914  SER914      0.1924
     36  C         70.3260  113.2060   58.4860 C.2   914  SER914      0.2314
     37  O         70.1810  113.4780   57.2890 O.2   914  SER914     -0.2863
     38  CB        72.1130  114.5040   59.6890 C.3   914  SER914      0.2116
     39  OG        71.4260  115.5500   59.0340 O.3   914  SER914     -0.2180
     40  N         68.2750  115.3160   58.5750 N.3   916  PHE916     -0.1227
     41  CA        68.0470  116.6490   58.0130 C.3   916  PHE916      0.1736
     42  C         68.5580  116.7730   56.5800 C.2   916  PHE916      0.2595
     43  O         68.0660  117.5940   55.8080 O.2   916  PHE916     -0.2718
     44  CB        68.6980  117.7140   58.8930 C.3   916  PHE916      0.0547
     45  CG        68.2400  117.6720   60.3160 C.ar  916  PHE916     -0.0202
     46  CD1       67.0680  118.3080   60.6960 C.ar  916  PHE916     -0.0042
     47  CD2       68.9660  116.9790   61.2690 C.ar  916  PHE916     -0.0042
     48  CE1       66.6320  118.2690   62.0020 C.ar  916  PHE916     -0.0003
     49  CE2       68.5390  116.9320   62.5790 C.ar  916  PHE916     -0.0003
     50  CZ        67.3690  117.5800   62.9490 C.ar  916  PHE916     -0.0000
     51  N         69.5430  115.9560   56.2250 N.am  917  GLN917     -0.1979
     52  CA        70.0230  115.9240   54.8510 C.3   917  GLN917      0.1601
     53  C         69.0490  115.1270   53.9970 C.2   917  GLN917      0.2287
     54  O         68.7040  115.5320   52.8840 O.2   917  GLN917     -0.2864
     55  CB        71.4250  115.3150   54.7670 C.3   917  GLN917      0.0394
     56  CG        72.4610  116.0500   55.5910 C.3   917  GLN917      0.0908
     57  CD        73.8320  115.4050   55.5320 C.2   917  GLN917      0.2608
     58  OE1       74.3030  114.8290   56.5130 O.2   917  GLN917     -0.2717
     59  NE2       74.4840  115.5070   54.3800 N.am  917  GLN917     -0.0878
     60  N         63.5240  110.5120   72.2240 N.3   967  LEU967     -0.1245
     61  CA        64.4580  111.5430   71.7640 C.3   967  LEU967      0.1561
     62  C         65.9050  111.0720   71.8390 C.2   967  LEU967      0.2260
     63  O         66.6980  111.3490   70.9350 O.2   967  LEU967     -0.2867
     64  CB        64.3140  112.8220   72.5850 C.3   967  LEU967      0.0270
     65  CG        65.2710  113.9540   72.2010 C.3   967  LEU967      0.0019
     66  CD1       64.6970  114.7860   71.0560 C.3   967  LEU967      0.0001
     67  CD2       65.6030  114.8250   73.4110 C.3   967  LEU967      0.0001
     68  N         66.8020  109.0760   68.8120 N.3   970  PHE970     -0.1227
     69  CA        67.0680  109.9760   67.6990 C.3   970  PHE970      0.1736
     70  C         68.4800  110.5310   67.7670 C.2   970  PHE970      0.2595
     71  O         69.2760  110.3680   66.8430 O.2   970  PHE970     -0.2718
     72  CB        66.0610  111.1240   67.7060 C.3   970  PHE970      0.0547
     73  CG        66.2520  112.1090   66.5930 C.ar  970  PHE970     -0.0202
     74  CD1       65.5510  111.9870   65.4160 C.ar  970  PHE970     -0.0042
     75  CD2       67.1230  113.1600   66.7240 C.ar  970  PHE970     -0.0042
     76  CE1       65.7130  112.8920   64.3900 C.ar  970  PHE970     -0.0003
     77  CE2       67.2880  114.0560   65.6940 C.ar  970  PHE970     -0.0003
     78  CZ        66.5730  113.9160   64.5260 C.ar  970  PHE970     -0.0000
     79  N         68.7900  111.1740   68.8850 N.am  971  VAL971     -0.1980
     80  CA        70.0270  111.9350   68.9950 C.3   971  VAL971      0.1595
     81  C         71.2660  111.0370   69.1280 C.2   971  VAL971      0.2287
     82  O         72.3410  111.3860   68.6360 O.2   971  VAL971     -0.2864
     83  CB        69.9630  112.9440   70.1810 C.3   971  VAL971      0.0276
     84  CG1       69.8110  112.2390   71.5150 C.3   971  VAL971      0.0022
     85  CG2       71.1910  113.8420   70.1820 C.3   971  VAL971      0.0022
     86  N         71.7780  110.0370   65.7470 N.3   974  GLU974     -0.1231
     87  CA        72.1670  111.1850   64.9430 C.3   974  GLU974      0.1699
     88  C         73.6490  111.5100   65.1730 C.2   974  GLU974      0.2592
     89  O         74.3870  111.7270   64.2070 O.2   974  GLU974     -0.2718
     90  CB        71.2830  112.4010   65.2340 C.3   974  GLU974      0.0402
     91  CG        70.1790  112.6220   64.1970 C.3   974  GLU974      0.1161
     92  CD        70.7020  112.7050   62.7590 C.2   974  GLU974      0.3649
     93  OE1       71.7530  113.3280   62.5160 O.co2 974  GLU974     -0.2457
     94  OE2       70.0590  112.1360   61.8570 O.co2 974  GLU974     -0.2457
     95  N         74.0970  111.5260   66.4310 N.am  975  VAL975     -0.1980
     96  CA        75.5120  111.7990   66.6890 C.3   975  VAL975      0.1595
     97  C         76.3260  110.6080   66.2290 C.2   975  VAL975      0.2287
     98  O         77.4620  110.7640   65.8050 O.2   975  VAL975     -0.2864
     99  CB        75.8510  112.1040   68.1880 C.3   975  VAL975      0.0276
    100  CG1       74.8890  113.1220   68.7760 C.3   975  VAL975      0.0022
    101  CG2       75.9050  110.8410   69.0330 C.3   975  VAL975      0.0022
    102  N         76.7940  110.9560   62.6220 N.3   978  LEU978     -0.1245
    103  CA        77.6490  112.1310   62.4320 C.3   978  LEU978      0.1561
    104  C         79.1280  111.7840   62.4960 C.2   978  LEU978      0.2260
    105  O         79.8930  112.1480   61.6050 O.2   978  LEU978     -0.2867
    106  CB        77.3420  113.1980   63.4860 C.3   978  LEU978      0.0270
    107  CG        77.5920  114.6900   63.2170 C.3   978  LEU978      0.0019
    108  CD1       77.5640  115.4370   64.5370 C.3   978  LEU978      0.0001
    109  CD2       78.8850  114.9990   62.4650 C.3   978  LEU978      0.0001
    110  N         80.4410  110.1530   59.4420 N.3   981  ARG981     -0.1231
    111  CA        80.5830  111.0700   58.3120 C.3   981  ARG981      0.1694
    112  C         81.8900  111.8370   58.4200 C.2   981  ARG981      0.2591
    113  O         82.4400  112.3020   57.4220 O.2   981  ARG981     -0.2718
    114  CB        79.4020  112.0500   58.2460 C.3   981  ARG981      0.0321
    115  CG        78.0420  111.3750   58.1420 C.3   981  ARG981      0.0489
    116  CD        76.9110  112.3480   57.7880 C.3   981  ARG981      0.2205
    117  NE        76.5500  113.2630   58.8740 N.pl3 981  ARG981     -0.0865
    118  CZ        75.6400  112.9990   59.8120 C.cat 981  ARG981      0.5346
    119  NH1       75.0000  111.8380   59.8190 N.pl3 981  ARG981      0.1354
    120  NH2       75.3750  113.8930   60.7550 N.pl3 981  ARG981      0.1354
    121  N         82.3900  111.9420   59.6450 N.am  982  ARG982     -0.1980
    122  CA        83.5170  112.8050   59.9510 C.3   982  ARG982      0.1597
    123  C         84.7880  112.0400   60.2780 C.2   982  ARG982      0.2287
    124  O         85.8600  112.6240   60.3750 O.2   982  ARG982     -0.2864
    125  CB        83.1590  113.7230   61.1160 C.3   982  ARG982      0.0334
    126  CG        82.3240  114.9190   60.7120 C.3   982  ARG982      0.0492
    127  CD        83.2010  116.1430   60.5190 C.3   982  ARG982      0.2205
    128  NE        82.7580  117.2570   61.3510 N.pl3 982  ARG982     -0.0865
    129  CZ        83.0160  117.3640   62.6520 C.cat 982  ARG982      0.5346
    130  NH1       83.7120  116.4200   63.2770 N.pl3 982  ARG982      0.1354
    131  NH2       82.5740  118.4140   63.3340 N.pl3 982  ARG982      0.1354
@<TRIPOS>BOND
     1     4     3    2
     2     6     5    1
     3     3     2    1
     4     3     7   am
     5     2     5    1
     6     2     1    1
     7     9     8    1
     8     9    10    2
     9     7     8    1
    10     8    11    1
    11    11    12    1
    12    13    12   ar
    13    12    14   ar
    14    33    31   am
    15    54    53    2
    16    31    32    2
    17    31    30    1
    18    53    52    1
    19    59    57   am
    20    22    21    1
    21    22    23    2
    22    21    20    1
    23    55    52    1
    24    55    56    1
    25    25    23    1
    26    52    51    1
    27    23    24    1
    28    30    27    1
    29    57    56    1
    30    57    58    2
    31    19    20    1
    32    19    16    1
    33    43    42    2
    34    51    42   am
    35    26    27    1
    36    26    17   am
    37    27    28    1
    38    42    41    1
    39    15    16    1
    40    16    17    1
    41    17    18    2
    42    37    36    2
    43   113   112    2
    44    28    34   am
    45    28    29    2
    46   116   115    1
    47   116   117    1
    48    41    40    1
    49    41    44    1
    50    34    35    1
    51   115   114    1
    52   114   111    1
    53   111   112    1
    54   111   110    1
    55   112   121   am
    56    36    35    1
    57   117   118    2
    58    44    45    1
    59    39    38    1
    60    35    38    1
    61   121   122    1
    62   118   119    1
    63   118   120    1
    64   122   123    1
    65   122   125    1
    66   123   124    2
    67    45    46   ar
    68    45    47   ar
    69   127   126    1
    70   127   128    1
    71    46    48   ar
    72   126   125    1
    73    47    49   ar
    74   128   129    2
    75   105   104    2
    76    94    92   ar
    77    48    50   ar
    78   103   104    1
    79   103   102    1
    80   103   106    1
    81   109   107    1
    82    93    92   ar
    83    49    50   ar
    84   129   130    1
    85   129   131    1
    86    92    91    1
    87   107   106    1
    88   107   108    1
    89    91    90    1
    90    89    88    2
    91    76    78   ar
    92    76    74   ar
    93    78    77   ar
    94    87    88    1
    95    87    90    1
    96    87    86    1
    97    88    95   am
    98    74    73   ar
    99    77    75   ar
   100    98    97    2
   101    97    96    1
   102    95    96    1
   103    73    75   ar
   104    73    72    1
   105    96    99    1
   106    71    70    2
   107    69    72    1
   108    69    70    1
   109    69    68    1
   110    70    79   am
   111    99   100    1
   112    99   101    1
   113    82    81    2
   114    79    80    1
   115    80    81    1
   116    80    83    1
   117    83    85    1
   118    83    84    1
   119    63    62    2
   120    66    65    1
   121    61    62    1
   122    61    60    1
   123    61    64    1
   124    65    64    1
   125    65    67    1
