@<TRIPOS>MOLECULE
tmp/3wgvD05.pdb
 176 166 0 0 0
SMALL
GASTEIGER

@<TRIPOS>ATOM
      1  N         45.7190   82.5130   47.4200 N.3    64  CYS64      -0.1221
      2  CA        46.0360   81.5440   48.4600 C.3    64  CYS64       0.1808
      3  C         47.5400   81.4210   48.7110 C.2    64  CYS64       0.2601
      4  O         47.9560   81.1350   49.8320 O.2    64  CYS64      -0.2717
      5  CB        45.4500   80.1730   48.1140 C.3    64  CYS64       0.0970
      6  SG        43.9200   79.7690   49.0050 S.3    64  CYS64      -0.0800
      7  N         48.3560   81.6430   47.6840 N.am   65  ARG65      -0.1965
      8  CA        49.8050   81.5730   47.8620 C.3    65  ARG65       0.1729
      9  C         50.2600   82.6190   48.8760 C.2    65  ARG65       0.2616
     10  O         51.1270   82.3490   49.7050 O.2    65  ARG65      -0.2715
     11  CB        50.5490   81.7790   46.5350 C.3    65  ARG65       0.0348
     12  CG        50.1990   80.7910   45.4210 C.3    65  ARG65       0.0492
     13  CD        50.9560   79.4670   45.5070 C.3    65  ARG65       0.2205
     14  NE        52.2290   79.5070   44.7920 N.pl3  65  ARG65      -0.0865
     15  CZ        52.3490   79.4250   43.4700 C.cat  65  ARG65       0.5346
     16  NH1       51.2720   79.3070   42.7050 N.pl3  65  ARG65       0.1354
     17  NH2       53.5490   79.4700   42.9090 N.pl3  65  ARG65       0.1354
     18  N         49.6620   83.8070   48.8100 N.am   66  GLN66      -0.1977
     19  CA        50.0540   84.9210   49.6760 C.3    66  GLN66       0.1601
     20  C         49.4090   84.8030   51.0580 C.2    66  GLN66       0.2287
     21  O         49.9630   85.2740   52.0540 O.2    66  GLN66      -0.2864
     22  CB        49.6820   86.2630   49.0320 C.3    66  GLN66       0.0394
     23  CG        50.0450   86.3890   47.5440 C.3    66  GLN66       0.0908
     24  CD        51.5470   86.4810   47.2830 C.2    66  GLN66       0.2608
     25  OE1       52.2040   87.4370   47.6940 O.2    66  GLN66      -0.2717
     26  NE2       52.0890   85.4890   46.5820 N.am   66  GLN66      -0.0878
     27  N         49.0900   82.0660   52.4970 N.3    68  PHE68      -0.1227
     28  CA        49.8160   80.9790   53.1360 C.3    68  PHE68       0.1736
     29  C         51.3140   81.0850   52.8220 C.2    68  PHE68       0.2596
     30  O         52.0420   80.0970   52.8970 O.2    68  PHE68      -0.2718
     31  CB        49.2530   79.6260   52.6800 C.3    68  PHE68       0.0547
     32  CG        47.7660   79.4630   52.9300 C.ar   68  PHE68      -0.0202
     33  CD1       47.2090   79.7880   54.1570 C.ar   68  PHE68      -0.0042
     34  CD2       46.9270   78.9810   51.9330 C.ar   68  PHE68      -0.0042
     35  CE1       45.8470   79.6410   54.3820 C.ar   68  PHE68      -0.0003
     36  CE2       45.5630   78.8310   52.1550 C.ar   68  PHE68      -0.0003
     37  CZ        45.0260   79.1630   53.3810 C.ar   68  PHE68      -0.0000
     38  N         51.7610   82.2960   52.4870 N.am   69  GLY69      -0.1942
     39  CA        53.1350   82.5490   52.0700 C.3    69  GLY69       0.2014
     40  C         54.1730   82.5310   53.1770 C.2    69  GLY69       0.2639
     41  O         54.5390   83.5740   53.7330 O.2    69  GLY69      -0.2714
     42  N         54.6610   81.3320   53.4780 N.am   70  GLY70      -0.1939
     43  CA        55.6270   81.1290   54.5400 C.3    70  GLY70       0.2014
     44  C         55.1430   81.6150   55.8900 C.2    70  GLY70       0.2638
     45  O         54.5700   80.8570   56.6820 O.2    70  GLY70      -0.2714
     46  N         55.3770   82.8930   56.1550 N.am   71  PHE71      -0.1973
     47  CA        55.0550   83.4550   57.4530 C.3    71  PHE71       0.1639
     48  C         53.5570   83.5560   57.6500 C.2    71  PHE71       0.2290
     49  O         53.0530   83.2650   58.7330 O.2    71  PHE71      -0.2864
     50  CB        55.7130   84.8200   57.6130 C.3    71  PHE71       0.0560
     51  CG        57.1760   84.7370   57.8970 C.ar   71  PHE71      -0.0200
     52  CD1       57.6720   83.7020   58.6720 C.ar   71  PHE71      -0.0042
     53  CD2       58.0580   85.6660   57.3790 C.ar   71  PHE71      -0.0042
     54  CE1       59.0150   83.5980   58.9370 C.ar   71  PHE71      -0.0003
     55  CE2       59.4100   85.5690   57.6420 C.ar   71  PHE71      -0.0003
     56  CZ        59.8870   84.5310   58.4270 C.ar   71  PHE71      -0.0000
     57  N         51.2430   81.6870   56.8040 N.3    73  MET73      -0.1230
     58  CA        50.6980   80.4110   57.2670 C.3    73  MET73       0.1702
     59  C         51.0560   80.1010   58.7270 C.2    73  MET73       0.2592
     60  O         50.2780   79.4760   59.4480 O.2    73  MET73      -0.2718
     61  CB        51.1900   79.2810   56.3650 C.3    73  MET73       0.0401
     62  CG        50.8140   77.8850   56.8370 C.3    73  MET73       0.0596
     63  SD        52.2470   76.7940   56.8930 S.3    73  MET73      -0.1393
     64  CE        53.1020   77.4140   58.3450 C.3    73  MET73       0.0692
     65  N         52.2450   80.5240   59.1490 N.am   74  LEU74      -0.1980
     66  CA        52.6910   80.3310   60.5280 C.3    74  LEU74       0.1596
     67  C         51.8330   81.1640   61.4750 C.2    74  LEU74       0.2287
     68  O         51.7170   80.8620   62.6630 O.2    74  LEU74      -0.2864
     69  CB        54.1720   80.7050   60.6690 C.3    74  LEU74       0.0297
     70  CG        54.9010   80.4300   61.9880 C.3    74  LEU74       0.0022
     71  CD1       55.4990   79.0300   62.0000 C.3    74  LEU74       0.0001
     72  CD2       55.9740   81.4770   62.2150 C.3    74  LEU74       0.0001
     73  N         52.0280   92.1150   43.2880 N.3   122  GLU122     -0.1245
     74  CA        52.5170   91.1460   42.3090 C.3   122  GLU122      0.1567
     75  C         51.7630   91.3180   41.0030 C.2   122  GLU122      0.2260
     76  O         52.2780   91.0070   39.9360 O.2   122  GLU122     -0.2867
     77  CB        52.3710   89.7070   42.8200 C.3   122  GLU122      0.0388
     78  CG        53.2320   89.3600   44.0410 C.3   122  GLU122      0.1160
     79  CD        54.7070   89.1290   43.7140 C.2   122  GLU122      0.3649
     80  OE1       55.4560   88.6970   44.6210 O.co2 122  GLU122     -0.2457
     81  OE2       55.1250   89.3750   42.5620 O.co2 122  GLU122     -0.2457
     82  N         69.0920   81.4300   41.1380 N.3   252  GLN252     -0.1245
     83  CA        68.9030   82.0070   42.4620 C.3   252  GLN252      0.1566
     84  C         69.9470   83.0820   42.7610 C.2   252  GLN252      0.2260
     85  O         71.0890   82.7720   43.0860 O.2   252  GLN252     -0.2867
     86  CB        68.9560   80.9220   43.5360 C.3   252  GLN252      0.0367
     87  CG        68.4260   81.3800   44.8880 C.3   252  GLN252      0.0905
     88  CD        69.3180   80.9640   46.0410 C.2   252  GLN252      0.2608
     89  OE1       68.8660   80.8450   47.1810 O.2   252  GLN252     -0.2717
     90  NE2       70.5980   80.7510   45.7520 N.am  252  GLN252     -0.0878
     91  N         68.6790   86.9850   47.1080 N.3   256  ALA256     -0.1245
     92  CA        67.5860   86.1030   47.5060 C.3   256  ALA256      0.1562
     93  C         68.0960   85.0290   48.4520 C.2   256  ALA256      0.2260
     94  O         67.3510   84.5270   49.2940 O.2   256  ALA256     -0.2867
     95  CB        66.9360   85.4700   46.2950 C.3   256  ALA256      0.0290
     96  N         68.5660   87.0240   51.8580 N.3   259  ILE259     -0.1231
     97  CA        67.2050   87.2110   52.3760 C.3   259  ILE259      0.1692
     98  C         66.6530   85.9280   52.9770 C.2   259  ILE259      0.2591
     99  O         66.3010   85.8890   54.1490 O.2   259  ILE259     -0.2718
    100  CB        66.2350   87.6830   51.2830 C.3   259  ILE259      0.0266
    101  CG1       66.4790   89.1530   50.9380 C.3   259  ILE259      0.0019
    102  CG2       64.7980   87.5030   51.7350 C.3   259  ILE259      0.0020
    103  CD1       65.7540   90.1290   51.8380 C.3   259  ILE259      0.0001
    104  N         66.5890   84.8830   52.1550 N.am  260  GLU260     -0.1979
    105  CA        66.1070   83.5660   52.5760 C.3   260  GLU260      0.1602
    106  C         66.8440   83.0450   53.8150 C.2   260  GLU260      0.2287
    107  O         66.2180   82.7650   54.8370 O.2   260  GLU260     -0.2864
    108  CB        66.2410   82.5540   51.4260 C.3   260  GLU260      0.0415
    109  CG        66.0590   81.0960   51.8510 C.3   260  GLU260      0.1163
    110  CD        66.6050   80.0990   50.8330 C.2   260  GLU260      0.3649
    111  OE1       67.8320   80.0900   50.5820 O.co2 260  GLU260     -0.2457
    112  OE2       65.8050   79.3070   50.2920 O.co2 260  GLU260     -0.2457
    113  N         65.9070   84.6450   56.9590 N.3   263  ILE263     -0.1231
    114  CA        64.5320   84.3080   57.3370 C.3   263  ILE263      0.1692
    115  C         64.4970   83.0110   58.1380 C.2   263  ILE263      0.2592
    116  O         63.7110   82.8850   59.0680 O.2   263  ILE263     -0.2718
    117  CB        63.6120   84.2140   56.0900 C.3   263  ILE263      0.0266
    118  CG1       63.2110   85.6160   55.6240 C.3   263  ILE263      0.0019
    119  CG2       62.3610   83.4260   56.3830 C.3   263  ILE263      0.0020
    120  CD1       62.3230   85.6350   54.3810 C.3   263  ILE263      0.0001
    121  N         65.3990   82.0850   57.8250 N.am  264  HIS264     -0.1976
    122  CA        65.5340   80.8580   58.6010 C.3   264  HIS264      0.1656
    123  C         65.9920   81.1230   60.0340 C.2   264  HIS264      0.2291
    124  O         65.2240   80.9310   60.9770 O.2   264  HIS264     -0.2864
    125  CB        66.5090   79.8990   57.9170 C.3   264  HIS264      0.0771
    126  CG        66.0070   79.3580   56.6160 C.ar  264  HIS264      0.0820
    127  ND1       66.8380   78.8010   55.6680 N.ar  264  HIS264     -0.2267
    128  CD2       64.7550   79.2930   56.1050 C.ar  264  HIS264      0.1154
    129  CE1       66.1200   78.4190   54.6270 C.ar  264  HIS264      0.1986
    130  NE2       64.8520   78.7060   54.8660 N.ar  264  HIS264     -0.2212
    131  N         63.8270   83.1010   62.2550 N.3   267  THR267     -0.1218
    132  CA        62.6750   82.2730   62.5710 C.3   267  THR267      0.1862
    133  C         63.1420   81.2170   63.5400 C.2   267  THR267      0.2287
    134  O         62.4230   80.8310   64.4590 O.2   267  THR267     -0.2866
    135  CB        62.0610   81.6130   61.3230 C.3   267  THR267      0.1770
    136  OG1       61.5130   82.6300   60.4770 O.3   267  THR267     -0.2211
    137  CG2       60.9640   80.6380   61.7050 C.3   267  THR267      0.0375
    138  N         58.7980   89.8910   53.9170 N.3   308  LEU308     -0.1245
    139  CA        58.4030   89.3180   52.6310 C.3   308  LEU308      0.1561
    140  C         57.7210   90.3440   51.7220 C.2   308  LEU308      0.2260
    141  O         58.1140   90.5170   50.5640 O.2   308  LEU308     -0.2867
    142  CB        57.4760   88.1240   52.8490 C.3   308  LEU308      0.0270
    143  CG        58.1190   86.8860   53.4630 C.3   308  LEU308      0.0019
    144  CD1       57.0640   85.8120   53.7430 C.3   308  LEU308      0.0001
    145  CD2       59.2130   86.3710   52.5280 C.3   308  LEU308      0.0001
    146  N         59.9490   93.1390   50.7350 N.3   311  VAL311     -0.1231
    147  CA        60.7130   92.7260   49.5800 C.3   311  VAL311      0.1692
    148  C         59.8830   92.8790   48.3130 C.2   311  VAL311      0.2592
    149  O         60.2980   93.5450   47.3530 O.2   311  VAL311     -0.2718
    150  CB        61.1810   91.2650   49.7270 C.3   311  VAL311      0.0266
    151  CG1       61.6650   90.7280   48.4010 C.3   311  VAL311      0.0020
    152  CG2       62.2720   91.1570   50.7840 C.3   311  VAL311      0.0020
    153  N         58.7060   92.2580   48.3300 N.am  312  THR312     -0.1953
    154  CA        57.7950   92.2640   47.1880 C.3   312  THR312      0.1897
    155  C         57.5720   93.6880   46.7030 C.2   312  THR312      0.2313
    156  O         57.6420   93.9610   45.5080 O.2   312  THR312     -0.2863
    157  CB        56.4240   91.6230   47.5310 C.3   312  THR312      0.1794
    158  OG1       56.6100   90.3330   48.1280 O.3   312  THR312     -0.2208
    159  CG2       55.5740   91.4720   46.2820 C.3   312  THR312      0.0378
    160  N         61.1320   95.2420   45.0950 N.3   315  LEU315     -0.1245
    161  CA        61.3190   94.7990   43.7180 C.3   315  LEU315      0.1561
    162  C         60.3110   95.4320   42.7510 C.2   315  LEU315      0.2260
    163  O         60.6740   95.9150   41.6760 O.2   315  LEU315     -0.2867
    164  CB        61.2020   93.2820   43.6420 C.3   315  LEU315      0.0270
    165  CG        62.3830   92.4050   44.0330 C.3   315  LEU315      0.0019
    166  CD1       62.9400   92.7540   45.4050 C.3   315  LEU315      0.0001
    167  CD2       61.9020   90.9660   43.9990 C.3   315  LEU315      0.0001
    168  N         65.5530   90.6710   41.1350 N.3   333  GLU333     -0.1245
    169  CA        66.5870   90.4380   42.1360 C.3   333  GLU333      0.1567
    170  C         68.0030   90.6680   41.5750 C.2   333  GLU333      0.2260
    171  O         68.9460   90.9500   42.3170 O.2   333  GLU333     -0.2867
    172  CB        66.4650   89.0200   42.6900 C.3   333  GLU333      0.0388
    173  CG        65.0860   88.6540   43.1950 C.3   333  GLU333      0.1160
    174  CD        65.0220   87.2360   43.7260 C.2   333  GLU333      0.3649
    175  OE1       65.5110   86.3080   43.0410 O.co2 333  GLU333     -0.2457
    176  OE2       64.4860   87.0490   44.8400 O.co2 333  GLU333     -0.2457
@<TRIPOS>BOND
     1    76    75    2
     2    75    74    1
     3   168   169    1
     4    82    83    1
     5   170   169    1
     6   170   171    2
     7   163   162    2
     8   169   172    1
     9    74    77    1
    10    74    73    1
    11    83    84    1
    12    83    86    1
    13    81    79   ar
    14   172   173    1
    15    16    15    1
    16   162   161    1
    17    84    85    2
    18    77    78    1
    19    17    15    1
    20   175   174   ar
    21   173   174    1
    22    15    14    2
    23    86    87    1
    24   164   161    1
    25   164   165    1
    26    79    78    1
    27    79    80   ar
    28   161   160    1
    29   174   176   ar
    30   167   165    1
    31   165   166    1
    32    14    13    1
    33    87    88    1
    34    12    13    1
    35    12    11    1
    36   156   155    2
    37    90    88   am
    38    88    89    2
    39   159   157    1
    40    95    92    1
    41    11     8    1
    42    26    24   am
    43   155   154    1
    44    91    92    1
    45   154   157    1
    46   154   153    1
    47    24    23    1
    48    24    25    2
    49   149   148    2
    50     1     2    1
    51    92    93    1
    52   157   158    1
    53    23    22    1
    54     7     8    1
    55     7     3   am
    56     8     9    1
    57     5     2    1
    58     5     6    1
    59   148   153   am
    60   148   147    1
    61   151   150    1
    62    93    94    2
    63     2     3    1
    64     3     4    2
    65    18     9   am
    66    18    19    1
    67     9    10    2
    68    22    19    1
    69   147   150    1
    70   147   146    1
    71    19    20    1
    72   150   152    1
    73   112   110   ar
    74   141   140    2
    75   111   110   ar
    76   110   109    1
    77   101   100    1
    78   101   103    1
    79    20    21    2
    80   100   102    1
    81   100    97    1
    82   108   109    1
    83   108   105    1
    84   140   139    1
    85    96    97    1
    86    34    36   ar
    87    34    32   ar
    88    39    38    1
    89    39    40    1
    90    36    37   ar
    91   104   105    1
    92   104    98   am
    93    97    98    1
    94    38    29   am
    95    27    28    1
    96   145   143    1
    97   105   106    1
    98   139   142    1
    99   139   138    1
   100    31    32    1
   101    31    28    1
   102    29    30    2
   103    29    28    1
   104   142   143    1
   105    32    33   ar
   106    98    99    2
   107    40    42   am
   108    40    41    2
   109    37    35   ar
   110   143   144    1
   111    42    43    1
   112   106   107    2
   113    33    35   ar
   114   120   118    1
   115    43    44    1
   116   129   130   ar
   117   129   127   ar
   118   130   128   ar
   119   118   117    1
   120   127   126   ar
   121    44    46   am
   122    44    45    2
   123   117   119    1
   124   117   114    1
   125   128   126   ar
   126    46    47    1
   127    61    62    1
   128    61    58    1
   129   126   125    1
   130    57    58    1
   131    62    63    1
   132    63    64    1
   133   113   114    1
   134    58    59    1
   135   114   115    1
   136    53    55   ar
   137    53    51   ar
   138    47    50    1
   139    47    48    1
   140    50    51    1
   141    55    56   ar
   142    48    49    2
   143   121   115   am
   144   121   122    1
   145    51    52   ar
   146   125   122    1
   147   115   116    2
   148    56    54   ar
   149   122   123    1
   150    52    54   ar
   151    59    65   am
   152    59    60    2
   153    65    66    1
   154   123   124    2
   155   136   135    1
   156    66    69    1
   157    66    67    1
   158    69    70    1
   159   135   137    1
   160   135   132    1
   161    67    68    2
   162    70    71    1
   163    70    72    1
   164   131   132    1
   165   132   133    1
   166   133   134    2
