@<TRIPOS>MOLECULE
tmp/3wgvD04.pdb
 88 83 0 0 0
SMALL
GASTEIGER

@<TRIPOS>ATOM
      1  N         68.1670   82.9130   53.7040 N.3   261  HIS261     -0.1241
      2  CA        69.0410   82.4440   54.7880 C.3   261  HIS261      0.1621
      3  C         68.7170   83.0900   56.1310 C.2   261  HIS261      0.2264
      4  O         68.5240   82.4060   57.1410 O.2   261  HIS261     -0.2867
      5  CB        70.5090   82.7130   54.4170 C.3   261  HIS261      0.0745
      6  CG        71.4710   82.5920   55.5620 C.ar  261  HIS261      0.0817
      7  ND1       71.8930   81.3760   56.0600 N.ar  261  HIS261     -0.2268
      8  CD2       72.1100   83.5380   56.2900 C.ar  261  HIS261      0.1154
      9  CE1       72.7390   81.5800   57.0540 C.ar  261  HIS261      0.1986
     10  NE2       72.8840   82.8830   57.2160 N.ar  261  HIS261     -0.2212
     11  N         67.2430   81.5560   60.1850 N.3   265  ILE265     -0.1245
     12  CA        67.8580   81.7810   61.5020 C.3   265  ILE265      0.1561
     13  C         67.0180   82.6130   62.4630 C.2   265  ILE265      0.2260
     14  O         66.9100   82.2950   63.6490 O.2   265  ILE265     -0.2867
     15  CB        69.2080   82.5070   61.3880 C.3   265  ILE265      0.0252
     16  CG1       69.9390   82.1250   60.1080 C.3   265  ILE265      0.0019
     17  CG2       70.0580   82.2490   62.6200 C.3   265  ILE265      0.0019
     18  CD1       70.9870   83.1210   59.7480 C.3   265  ILE265      0.0001
     19  N         62.9760   79.2180   69.0840 N.3   272  PHE272     -0.1227
     20  CA        63.8100   78.8330   70.2130 C.3   272  PHE272      0.1736
     21  C         63.3080   79.5820   71.4420 C.2   272  PHE272      0.2595
     22  O         63.0030   78.9750   72.4710 O.2   272  PHE272     -0.2718
     23  CB        65.2890   79.1410   69.9010 C.3   272  PHE272      0.0547
     24  CG        66.2260   79.0610   71.0900 C.ar  272  PHE272     -0.0202
     25  CD1       65.9800   78.2120   72.1570 C.ar  272  PHE272     -0.0042
     26  CD2       67.3760   79.8450   71.1160 C.ar  272  PHE272     -0.0042
     27  CE1       66.8480   78.1640   73.2230 C.ar  272  PHE272     -0.0003
     28  CE2       68.2450   79.7980   72.1770 C.ar  272  PHE272     -0.0003
     29  CZ        67.9820   78.9590   73.2310 C.ar  272  PHE272     -0.0000
     30  N         63.2050   80.9020   71.3240 N.am  273  LEU273     -0.1980
     31  CA        62.7070   81.7130   72.4230 C.3   273  LEU273      0.1596
     32  C         61.2550   81.3900   72.7230 C.2   273  LEU273      0.2287
     33  O         60.7990   81.5760   73.8460 O.2   273  LEU273     -0.2864
     34  CB        62.8570   83.1920   72.1100 C.3   273  LEU273      0.0297
     35  CG        64.3110   83.5700   71.8750 C.3   273  LEU273      0.0022
     36  CD1       64.4280   85.0590   71.6170 C.3   273  LEU273      0.0001
     37  CD2       65.1570   83.1400   73.0700 C.3   273  LEU273      0.0001
     38  N         61.4060   78.2700   74.8000 N.3   276  SER276     -0.1202
     39  CA        62.1320   78.6180   76.0130 C.3   276  SER276      0.2020
     40  C         61.1110   79.1120   77.0000 C.2   276  SER276      0.2618
     41  O         60.9840   78.5990   78.1040 O.2   276  SER276     -0.2717
     42  CB        63.1910   79.6970   75.7720 C.3   276  SER276      0.2103
     43  OG        64.2860   79.2120   75.0170 O.3   276  SER276     -0.2182
     44  N         60.3590   80.1120   76.5700 N.am  277  PHE277     -0.1975
     45  CA        59.3740   80.7370   77.4310 C.3   277  PHE277      0.1639
     46  C         58.2310   79.7940   77.6980 C.2   277  PHE277      0.2290
     47  O         57.5540   79.9080   78.7190 O.2   277  PHE277     -0.2864
     48  CB        58.8510   82.0300   76.8150 C.3   277  PHE277      0.0560
     49  CG        59.8080   83.1680   76.9220 C.ar  277  PHE277     -0.0200
     50  CD1       61.0360   83.0020   77.5610 C.ar  277  PHE277     -0.0042
     51  CD2       59.4840   84.4040   76.4080 C.ar  277  PHE277     -0.0042
     52  CE1       61.9310   84.0470   77.6750 C.ar  277  PHE277     -0.0003
     53  CE2       60.3700   85.4540   76.5160 C.ar  277  PHE277     -0.0003
     54  CZ        61.5990   85.2750   77.1520 C.ar  277  PHE277     -0.0000
     55  N         59.1720   77.7390   80.5690 N.3   280  LEU280     -0.1245
     56  CA        59.2680   78.6720   81.6910 C.3   280  LEU280      0.1561
     57  C         57.8900   79.1080   82.1840 C.2   280  LEU280      0.2260
     58  O         57.6240   79.0690   83.3830 O.2   280  LEU280     -0.2867
     59  CB        60.0810   79.9060   81.3140 C.3   280  LEU280      0.0270
     60  CG        61.5930   79.7630   81.3310 C.3   280  LEU280      0.0019
     61  CD1       62.2290   81.1330   81.3600 C.3   280  LEU280      0.0001
     62  CD2       62.0270   78.9400   82.5260 C.3   280  LEU280      0.0001
     63  N         60.7620   88.0850   80.9650 N.3   762  LEU762     -0.1245
     64  CA        62.0010   87.6450   81.5970 C.3   762  LEU762      0.1561
     65  C         62.1370   88.2030   83.0130 C.2   762  LEU762      0.2260
     66  O         62.3250   87.4590   83.9790 O.2   762  LEU762     -0.2867
     67  CB        63.2030   88.0610   80.7520 C.3   762  LEU762      0.0270
     68  CG        63.8740   86.9520   79.9460 C.3   762  LEU762      0.0019
     69  CD1       64.9260   87.5500   79.0360 C.3   762  LEU762      0.0001
     70  CD2       64.4970   85.9190   80.8720 C.3   762  LEU762      0.0001
     71  N         76.9400   92.1250   54.8390 N.3   814  LYS814     -0.1245
     72  CA        75.8300   91.2010   54.7140 C.3   814  LYS814      0.1561
     73  C         74.5360   91.9450   55.0340 C.2   814  LYS814      0.2260
     74  O         74.5070   92.8270   55.8960 O.2   814  LYS814     -0.2867
     75  CB        76.0100   90.0000   55.6450 C.3   814  LYS814      0.0271
     76  CG        77.2810   89.1930   55.4140 C.3   814  LYS814      0.0035
     77  CD        77.1770   88.3410   54.1550 C.3   814  LYS814      0.0206
     78  CE        78.3430   87.3640   54.0450 C.3   814  LYS814      0.1093
     79  NZ        78.2900   86.5300   52.8090 N.3   814  LYS814     -0.1314
     80  N         76.7040   91.2240   62.1080 N.3   818  GLU818     -0.1245
     81  CA        76.8680   91.4250   63.5570 C.3   818  GLU818      0.1567
     82  C         76.5780   92.8570   63.9900 C.2   818  GLU818      0.2260
     83  O         76.0480   93.0960   65.0750 O.2   818  GLU818     -0.2867
     84  CB        78.2950   91.0360   63.9990 C.3   818  GLU818      0.0388
     85  CG        79.4160   91.9420   63.4390 C.3   818  GLU818      0.1160
     86  CD        80.8190   91.5890   63.9430 C.2   818  GLU818      0.3649
     87  OE1       80.9440   90.6780   64.7940 O.co2 818  GLU818     -0.2457
     88  OE2       81.7940   92.2340   63.4820 O.co2 818  GLU818     -0.2457
@<TRIPOS>BOND
     1    79    78    1
     2     1     2    1
     3    78    77    1
     4    77    76    1
     5     5     2    1
     6     5     6    1
     7    72    71    1
     8    72    73    1
     9    72    75    1
    10     2     3    1
    11    73    74    2
    12    76    75    1
    13     6     7   ar
    14     6     8   ar
    15     7     9   ar
    16     3     4    2
    17     8    10   ar
    18     9    10   ar
    19    18    16    1
    20    16    15    1
    21    11    12    1
    22    15    12    1
    23    15    17    1
    24    12    13    1
    25    80    81    1
    26    13    14    2
    27    85    86    1
    28    85    84    1
    29    88    86   ar
    30    81    82    1
    31    81    84    1
    32    86    87   ar
    33    82    83    2
    34    19    20    1
    35    23    20    1
    36    23    24    1
    37    20    21    1
    38    24    26   ar
    39    24    25   ar
    40    26    28   ar
    41    30    21   am
    42    30    31    1
    43    21    22    2
    44    36    35    1
    45    35    34    1
    46    35    37    1
    47    34    31    1
    48    25    27   ar
    49    28    29   ar
    50    31    32    1
    51    32    33    2
    52    27    29   ar
    53    38    39    1
    54    43    42    1
    55    42    39    1
    56    39    40    1
    57    51    53   ar
    58    51    49   ar
    59    53    54   ar
    60    44    40   am
    61    44    45    1
    62    48    49    1
    63    48    45    1
    64    49    50   ar
    65    40    41    2
    66    54    52   ar
    67    45    46    1
    68    50    52   ar
    69    46    47    2
    70    69    68    1
    71    68    67    1
    72    68    70    1
    73    55    56    1
    74    67    64    1
    75    63    64    1
    76    59    60    1
    77    59    56    1
    78    60    61    1
    79    60    62    1
    80    64    65    1
    81    56    57    1
    82    57    58    2
    83    65    66    2
