@<TRIPOS>MOLECULE
tmp/3wgvD01.pdb
 167 159 0 0 0
SMALL
GASTEIGER

@<TRIPOS>ATOM
      1  N         68.1670   82.9130   53.7040 N.3   261  HIS261     -0.1226
      2  CA        69.0410   82.4440   54.7880 C.3   261  HIS261      0.1752
      3  C         68.7170   83.0900   56.1310 C.2   261  HIS261      0.2596
      4  O         68.5240   82.4060   57.1410 O.2   261  HIS261     -0.2718
      5  CB        70.5090   82.7130   54.4170 C.3   261  HIS261      0.0759
      6  CG        71.4710   82.5920   55.5620 C.ar  261  HIS261      0.0818
      7  ND1       71.8930   81.3760   56.0600 N.ar  261  HIS261     -0.2268
      8  CD2       72.1100   83.5380   56.2900 C.ar  261  HIS261      0.1154
      9  CE1       72.7390   81.5800   57.0540 C.ar  261  HIS261      0.1986
     10  NE2       72.8840   82.8830   57.2160 N.ar  261  HIS261     -0.2212
     11  N         68.6640   84.4160   56.1260 N.am  262  PHE262     -0.1976
     12  CA        68.2450   85.1750   57.2890 C.3   262  PHE262      0.1639
     13  C         66.9220   84.6640   57.8280 C.2   262  PHE262      0.2290
     14  O         66.8380   84.2810   58.9980 O.2   262  PHE262     -0.2864
     15  CB        68.1220   86.6530   56.9390 C.3   262  PHE262      0.0560
     16  CG        67.4500   87.4720   57.9960 C.ar  262  PHE262     -0.0200
     17  CD1       67.9360   87.4810   59.2860 C.ar  262  PHE262     -0.0042
     18  CD2       66.3400   88.2520   57.6950 C.ar  262  PHE262     -0.0042
     19  CE1       67.3230   88.2360   60.2610 C.ar  262  PHE262     -0.0003
     20  CE2       65.7190   89.0130   58.6700 C.ar  262  PHE262     -0.0003
     21  CZ        66.2100   89.0030   59.9530 C.ar  262  PHE262     -0.0000
     22  N         67.2430   81.5560   60.1850 N.3   265  ILE265     -0.1231
     23  CA        67.8580   81.7810   61.5020 C.3   265  ILE265      0.1692
     24  C         67.0180   82.6130   62.4630 C.2   265  ILE265      0.2591
     25  O         66.9100   82.2950   63.6490 O.2   265  ILE265     -0.2718
     26  CB        69.2080   82.5070   61.3880 C.3   265  ILE265      0.0266
     27  CG1       69.9390   82.1250   60.1080 C.3   265  ILE265      0.0019
     28  CG2       70.0580   82.2490   62.6200 C.3   265  ILE265      0.0020
     29  CD1       70.9870   83.1210   59.7480 C.3   265  ILE265      0.0001
     30  N         66.4580   83.7040   61.9580 N.am  266  ILE266     -0.1980
     31  CA        65.6870   84.5740   62.8160 C.3   266  ILE266      0.1595
     32  C         64.3840   83.8690   63.1880 C.2   266  ILE266      0.2287
     33  O         63.9110   83.9940   64.3170 O.2   266  ILE266     -0.2864
     34  CB        65.4250   85.9490   62.1590 C.3   266  ILE266      0.0276
     35  CG1       65.2690   87.0250   63.2380 C.3   266  ILE266      0.0022
     36  CG2       64.2540   85.9100   61.1740 C.3   266  ILE266      0.0022
     37  CD1       66.5230   87.2270   64.0700 C.3   266  ILE266      0.0001
     38  N         65.6110   81.3870   65.9580 N.3   269  VAL269     -0.1245
     39  CA        65.6550   81.8900   67.3200 C.3   269  VAL269      0.1561
     40  C         64.2500   82.2630   67.8010 C.2   269  VAL269      0.2260
     41  O         63.9340   82.1110   68.9850 O.2   269  VAL269     -0.2867
     42  CB        66.6140   83.0980   67.4460 C.3   269  VAL269      0.0252
     43  CG1       68.0730   82.6390   67.2930 C.3   269  VAL269      0.0019
     44  CG2       66.2770   84.1700   66.4300 C.3   269  VAL269      0.0019
     45  N         62.9760   79.2180   69.0840 N.3   272  PHE272     -0.1227
     46  CA        63.8100   78.8330   70.2130 C.3   272  PHE272      0.1736
     47  C         63.3080   79.5820   71.4420 C.2   272  PHE272      0.2595
     48  O         63.0030   78.9750   72.4710 O.2   272  PHE272     -0.2718
     49  CB        65.2890   79.1410   69.9010 C.3   272  PHE272      0.0547
     50  CG        66.2260   79.0610   71.0900 C.ar  272  PHE272     -0.0202
     51  CD1       65.9800   78.2120   72.1570 C.ar  272  PHE272     -0.0042
     52  CD2       67.3760   79.8450   71.1160 C.ar  272  PHE272     -0.0042
     53  CE1       66.8480   78.1640   73.2230 C.ar  272  PHE272     -0.0003
     54  CE2       68.2450   79.7980   72.1770 C.ar  272  PHE272     -0.0003
     55  CZ        67.9820   78.9590   73.2310 C.ar  272  PHE272     -0.0000
     56  N         63.2050   80.9020   71.3240 N.am  273  LEU273     -0.1980
     57  CA        62.7070   81.7130   72.4230 C.3   273  LEU273      0.1596
     58  C         61.2550   81.3900   72.7230 C.2   273  LEU273      0.2287
     59  O         60.7990   81.5760   73.8460 O.2   273  LEU273     -0.2864
     60  CB        62.8570   83.1920   72.1100 C.3   273  LEU273      0.0297
     61  CG        64.3110   83.5700   71.8750 C.3   273  LEU273      0.0022
     62  CD1       64.4280   85.0590   71.6170 C.3   273  LEU273      0.0001
     63  CD2       65.1570   83.1400   73.0700 C.3   273  LEU273      0.0001
     64  N         60.3590   80.1120   76.5700 N.3   277  PHE277     -0.1241
     65  CA        59.3740   80.7370   77.4310 C.3   277  PHE277      0.1605
     66  C         58.2310   79.7940   77.6980 C.2   277  PHE277      0.2264
     67  O         57.5540   79.9080   78.7190 O.2   277  PHE277     -0.2867
     68  CB        58.8510   82.0300   76.8150 C.3   277  PHE277      0.0534
     69  CG        59.8080   83.1680   76.9220 C.ar  277  PHE277     -0.0203
     70  CD1       61.0360   83.0020   77.5610 C.ar  277  PHE277     -0.0042
     71  CD2       59.4840   84.4040   76.4080 C.ar  277  PHE277     -0.0042
     72  CE1       61.9310   84.0470   77.6750 C.ar  277  PHE277     -0.0003
     73  CE2       60.3700   85.4540   76.5160 C.ar  277  PHE277     -0.0003
     74  CZ        61.5990   85.2750   77.1520 C.ar  277  PHE277     -0.0000
     75  N         60.2470   90.5830   74.8820 N.3   758  ILE758     -0.1245
     76  CA        60.5270   89.4280   75.7290 C.3   758  ILE758      0.1561
     77  C         61.1020   89.7710   77.1240 C.2   758  ILE758      0.2260
     78  O         60.8700   89.0270   78.0840 O.2   758  ILE758     -0.2867
     79  CB        61.4820   88.4440   75.0250 C.3   758  ILE758      0.0252
     80  CG1       62.7970   89.1180   74.6510 C.3   758  ILE758      0.0019
     81  CG2       60.8310   87.8760   73.7740 C.3   758  ILE758      0.0019
     82  CD1       63.8170   88.1500   74.0850 C.3   758  ILE758      0.0001
     83  N         60.7620   88.0850   80.9650 N.3   762  LEU762     -0.1245
     84  CA        62.0010   87.6450   81.5970 C.3   762  LEU762      0.1561
     85  C         62.1370   88.2030   83.0130 C.2   762  LEU762      0.2260
     86  O         62.3250   87.4590   83.9790 O.2   762  LEU762     -0.2867
     87  CB        63.2030   88.0610   80.7520 C.3   762  LEU762      0.0270
     88  CG        63.8740   86.9520   79.9460 C.3   762  LEU762      0.0019
     89  CD1       64.9260   87.5500   79.0360 C.3   762  LEU762      0.0001
     90  CD2       64.4970   85.9190   80.8720 C.3   762  LEU762      0.0001
     91  N         62.7280   86.8060   86.8520 N.3   766  ILE766     -0.1245
     92  CA        63.9850   87.0250   87.5640 C.3   766  ILE766      0.1561
     93  C         63.7870   87.7970   88.8650 C.2   766  ILE766      0.2260
     94  O         64.3860   87.4510   89.8820 O.2   766  ILE766     -0.2867
     95  CB        65.0050   87.7790   86.6970 C.3   766  ILE766      0.0252
     96  CG1       65.1610   87.0940   85.3390 C.3   766  ILE766      0.0019
     97  CG2       66.3470   87.8820   87.4110 C.3   766  ILE766      0.0019
     98  CD1       65.5260   85.6430   85.4260 C.3   766  ILE766      0.0001
     99  N         81.4700   89.7260   51.4080 N.3   811  LYS811     -0.1231
    100  CA        81.6680   88.9370   52.6250 C.3   811  LYS811      0.1693
    101  C         81.6970   89.7770   53.9120 C.2   811  LYS811      0.2592
    102  O         82.0040   89.2470   54.9800 O.2   811  LYS811     -0.2718
    103  CB        82.9690   88.1160   52.5240 C.3   811  LYS811      0.0285
    104  CG        82.8590   86.7990   51.7320 C.3   811  LYS811      0.0035
    105  CD        82.7080   87.0590   50.2310 C.3   811  LYS811      0.0206
    106  CE        82.3720   85.8040   49.4240 C.3   811  LYS811      0.1093
    107  NZ        82.0230   86.1280   47.9960 N.3   811  LYS811     -0.1314
    108  N         81.3950   91.0750   53.8180 N.am  812  THR812     -0.1953
    109  CA        81.3080   91.9350   55.0090 C.3   812  THR812      0.1897
    110  C         79.9080   92.5370   55.1650 C.2   812  THR812      0.2313
    111  O         79.1650   92.1770   56.0830 O.2   812  THR812     -0.2863
    112  CB        82.3350   93.0970   54.9800 C.3   812  THR812      0.1794
    113  OG1       83.6490   92.5900   54.7230 O.3   812  THR812     -0.2208
    114  CG2       82.3440   93.8330   56.3110 C.3   812  THR812      0.0378
    115  N         76.9400   92.1250   54.8390 N.3   814  LYS814     -0.1245
    116  CA        75.8300   91.2010   54.7140 C.3   814  LYS814      0.1561
    117  C         74.5360   91.9450   55.0340 C.2   814  LYS814      0.2260
    118  O         74.5070   92.8270   55.8960 O.2   814  LYS814     -0.2867
    119  CB        76.0100   90.0000   55.6450 C.3   814  LYS814      0.0271
    120  CG        77.2810   89.1930   55.4140 C.3   814  LYS814      0.0035
    121  CD        77.1770   88.3410   54.1550 C.3   814  LYS814      0.0206
    122  CE        78.3430   87.3640   54.0450 C.3   814  LYS814      0.1093
    123  NZ        78.2900   86.5300   52.8090 N.3   814  LYS814     -0.1314
    124  N         72.3800   91.1220   56.7100 N.3   816  VAL816     -0.1231
    125  CA        72.2270   90.9440   58.1440 C.3   816  VAL816      0.1692
    126  C         73.5750   90.5410   58.7490 C.2   816  VAL816      0.2592
    127  O         73.9420   89.3650   58.7140 O.2   816  VAL816     -0.2718
    128  CB        71.1680   89.8600   58.4900 C.3   816  VAL816      0.0266
    129  CG1       71.1040   89.6350   59.9830 C.3   816  VAL816      0.0020
    130  CG2       69.7860   90.2400   57.9700 C.3   816  VAL816      0.0020
    131  N         74.3110   91.5130   59.2900 N.am  817  ASN817     -0.1960
    132  CA        75.6020   91.2460   59.9320 C.3   817  ASN817      0.1819
    133  C         75.6130   91.5850   61.4280 C.2   817  ASN817      0.2621
    134  O         74.6610   92.1700   61.9440 O.2   817  ASN817     -0.2715
    135  CB        76.7390   92.0020   59.2090 C.3   817  ASN817      0.1195
    136  CG        76.6680   93.5240   59.3820 C.2   817  ASN817      0.2630
    137  OD1       76.9350   94.0500   60.4590 O.2   817  ASN817     -0.2716
    138  ND2       76.3510   94.2330   58.2980 N.am  817  ASN817     -0.0877
    139  N         76.7040   91.2240   62.1080 N.am  818  GLU818     -0.1977
    140  CA        76.8680   91.4250   63.5570 C.3   818  GLU818      0.1602
    141  C         76.5780   92.8570   63.9900 C.2   818  GLU818      0.2287
    142  O         76.0480   93.0960   65.0750 O.2   818  GLU818     -0.2864
    143  CB        78.2950   91.0360   63.9990 C.3   818  GLU818      0.0415
    144  CG        79.4160   91.9420   63.4390 C.3   818  GLU818      0.1163
    145  CD        80.8190   91.5890   63.9430 C.2   818  GLU818      0.3649
    146  OE1       80.9440   90.6780   64.7940 O.co2 818  GLU818     -0.2457
    147  OE2       81.7940   92.2340   63.4820 O.co2 818  GLU818     -0.2457
    148  N         72.8820   93.3980   64.2480 N.3   821  ILE821     -0.1245
    149  CA        72.4080   92.8330   65.5030 C.3   821  ILE821      0.1561
    150  C         72.8090   93.7480   66.6630 C.2   821  ILE821      0.2260
    151  O         72.0050   94.0370   67.5530 O.2   821  ILE821     -0.2867
    152  CB        72.9650   91.4210   65.7290 C.3   821  ILE821      0.0252
    153  CG1       72.6130   90.5260   64.5420 C.3   821  ILE821      0.0019
    154  CG2       72.4430   90.8350   67.0330 C.3   821  ILE821      0.0019
    155  CD1       71.2090   90.7380   64.0060 C.3   821  ILE821      0.0001
    156  N         69.5980   94.7580   68.5840 N.3   825  TYR825     -0.1241
    157  CA        69.4930   94.0080   69.8360 C.3   825  TYR825      0.1605
    158  C         70.2520   94.6420   71.0080 C.2   825  TYR825      0.2264
    159  O         69.7530   94.6910   72.1350 O.2   825  TYR825     -0.2867
    160  CB        69.9780   92.5650   69.6250 C.3   825  TYR825      0.0534
    161  CG        68.9150   91.6280   69.0780 C.ar  825  TYR825     -0.0201
    162  CD1       68.4800   91.7180   67.7570 C.ar  825  TYR825     -0.0009
    163  CD2       68.3510   90.6480   69.8800 C.ar  825  TYR825     -0.0009
    164  CE1       67.5030   90.8600   67.2590 C.ar  825  TYR825      0.0417
    165  CE2       67.3750   89.7900   69.3880 C.ar  825  TYR825      0.0417
    166  CZ        66.9550   89.9000   68.0810 C.ar  825  TYR825      0.1957
    167  OH        65.9880   89.0400   67.6080 O.3   825  TYR825     -0.2866
@<TRIPOS>BOND
     1   107   106    1
     2   106   105    1
     3   105   104    1
     4    99   100    1
     5   104   103    1
     6   103   100    1
     7   100   101    1
     8   123   122    1
     9     1     2    1
    10   108   101   am
    11   108   109    1
    12   101   102    2
    13   122   121    1
    14   121   120    1
    15     5     2    1
    16     5     6    1
    17   116   115    1
    18   116   117    1
    19   116   119    1
    20   113   112    1
    21     2     3    1
    22   112   109    1
    23   112   114    1
    24   109   110    1
    25   117   118    2
    26   110   111    2
    27   120   119    1
    28     6     7   ar
    29     6     8   ar
    30     7     9   ar
    31    11     3   am
    32    11    12    1
    33     3     4    2
    34     8    10   ar
    35   124   125    1
    36    15    12    1
    37    15    16    1
    38     9    10   ar
    39    12    13    1
    40    18    16   ar
    41    18    20   ar
    42    13    14    2
    43   130   128    1
    44    16    17   ar
    45   125   128    1
    46   125   126    1
    47   138   136   am
    48   128   129    1
    49    20    21   ar
    50   127   126    2
    51   126   131   am
    52   135   136    1
    53   135   132    1
    54    17    19   ar
    55   131   132    1
    56   136   137    2
    57    29    27    1
    58   132   133    1
    59    21    19   ar
    60    27    26    1
    61    22    23    1
    62    36    34    1
    63    26    23    1
    64    26    28    1
    65   133   134    2
    66   133   139   am
    67    23    24    1
    68    30    24   am
    69    30    31    1
    70   139   140    1
    71    34    31    1
    72    34    35    1
    73    24    25    2
    74    31    32    1
    75    32    33    2
    76    35    37    1
    77   144   145    1
    78   144   143    1
    79   147   145   ar
    80   140   141    1
    81   140   143    1
    82   145   146   ar
    83   141   142    2
    84   155   153    1
    85   148   149    1
    86   153   152    1
    87   149   152    1
    88   149   150    1
    89   152   154    1
    90    38    39    1
    91    44    42    1
    92   150   151    2
    93   164   162   ar
    94   164   166   ar
    95    43    42    1
    96    39    42    1
    97    39    40    1
    98   167   166    1
    99   162   161   ar
   100    40    41    2
   101   166   165   ar
   102   156   157    1
   103   161   160    1
   104   161   163   ar
   105    45    46    1
   106   165   163   ar
   107   160   157    1
   108   157   158    1
   109    49    46    1
   110    49    50    1
   111    46    47    1
   112   158   159    2
   113    50    52   ar
   114    50    51   ar
   115    52    54   ar
   116    56    47   am
   117    56    57    1
   118    47    48    2
   119    62    61    1
   120    61    60    1
   121    61    63    1
   122    60    57    1
   123    51    53   ar
   124    54    55   ar
   125    57    58    1
   126    58    59    2
   127    53    55   ar
   128    81    79    1
   129    82    80    1
   130    80    79    1
   131    75    76    1
   132    79    76    1
   133    76    77    1
   134    71    73   ar
   135    71    69   ar
   136    73    74   ar
   137    64    65    1
   138    68    69    1
   139    68    65    1
   140    69    70   ar
   141    77    78    2
   142    74    72   ar
   143    65    66    1
   144    70    72   ar
   145    66    67    2
   146    89    88    1
   147    88    87    1
   148    88    90    1
   149    87    84    1
   150    83    84    1
   151    84    85    1
   152    85    86    2
   153    96    98    1
   154    96    95    1
   155    95    97    1
   156    95    92    1
   157    91    92    1
   158    92    93    1
   159    93    94    2
