@<TRIPOS>MOLECULE
tmp/3wgvD00.pdb
 183 172 0 0 0
SMALL
GASTEIGER

@<TRIPOS>ATOM
      1  N         82.3460   95.5000   25.8960 N.3   347  ASP347     -0.1239
      2  CA        82.7580   95.4300   24.4960 C.3   347  ASP347      0.1674
      3  C         82.8020   96.8360   23.8820 C.2   347  ASP347      0.2266
      4  O         82.2070   97.7760   24.4170 O.2   347  ASP347     -0.2867
      5  CB        81.8050   94.5230   23.7110 C.3   347  ASP347      0.1410
      6  CG        82.1620   94.4250   22.2370 C.2   347  ASP347      0.3668
      7  OD1       83.3610   94.4790   21.8980 O.co2 347  ASP347     -0.2456
      8  OD2       81.2440   94.3010   21.4020 O.co2 347  ASP347     -0.2456
      9  N         82.6400   97.8910   19.9850 N.3   349  THR349     -0.1218
     10  CA        81.6820   98.1870   18.9250 C.3   349  THR349      0.1862
     11  C         80.2870   97.7420   19.3110 C.2   349  THR349      0.2287
     12  O         80.1070   96.6400   19.8330 O.2   349  THR349     -0.2866
     13  CB        82.0450   97.5060   17.6090 C.3   349  THR349      0.1770
     14  OG1       83.4420   97.2100   17.5950 O.3   349  THR349     -0.2211
     15  CG2       81.6960   98.4010   16.4430 C.3   349  THR349      0.0375
     16  N         76.2910   93.0560    8.6710 N.3   421  ASP421     -0.1239
     17  CA        77.2490   93.6330    9.6110 C.3   421  ASP421      0.1674
     18  C         77.2030   95.1490    9.5540 C.2   421  ASP421      0.2266
     19  O         76.9080   95.7230    8.5090 O.2   421  ASP421     -0.2867
     20  CB        78.6770   93.1500    9.3110 C.3   421  ASP421      0.1410
     21  CG        78.7590   91.6460    9.0990 C.2   421  ASP421      0.3668
     22  OD1       78.0140   91.1050    8.2480 O.co2 421  ASP421     -0.2456
     23  OD2       79.5800   91.0040    9.7850 O.co2 421  ASP421     -0.2456
     24  N         79.8230   97.0080    9.7350 N.3   423  SER423     -0.1202
     25  CA        80.9440   97.2630    8.8360 C.3   423  SER423      0.2020
     26  C         80.5530   97.0620    7.3880 C.2   423  SER423      0.2618
     27  O         80.7030   97.9690    6.5670 O.2   423  SER423     -0.2717
     28  CB        82.1110   96.3510    9.1840 C.3   423  SER423      0.2103
     29  OG        82.2680   96.2640   10.5870 O.3   423  SER423     -0.2182
     30  N         80.0350   95.8750    7.0840 N.am  424  GLU424     -0.1979
     31  CA        79.6190   95.5540    5.7220 C.3   424  GLU424      0.1602
     32  C         78.5350   96.5050    5.1840 C.2   424  GLU424      0.2287
     33  O         78.4870   96.7450    3.9770 O.2   424  GLU424     -0.2864
     34  CB        79.1350   94.1030    5.6370 C.3   424  GLU424      0.0415
     35  CG        80.2420   93.0660    5.7880 C.3   424  GLU424      0.1163
     36  CD        79.7990   91.6390    5.4590 C.2   424  GLU424      0.3649
     37  OE1       78.6030   91.4250    5.1740 O.co2 424  GLU424     -0.2457
     38  OE2       80.6540   90.7260    5.4820 O.co2 424  GLU424     -0.2457
     39  N         82.3770   85.5220    7.8280 N.3   453  PHE453     -0.1241
     40  CA        83.0360   86.0980    8.9800 C.3   453  PHE453      0.1605
     41  C         82.4410   85.5750   10.2740 C.2   453  PHE453      0.2264
     42  O         81.2250   85.4400   10.4010 O.2   453  PHE453     -0.2867
     43  CB        82.9350   87.6220    8.9350 C.3   453  PHE453      0.0534
     44  CG        83.1660   88.2800   10.2550 C.ar  453  PHE453     -0.0203
     45  CD1       84.2940   88.0020   10.9910 C.ar  453  PHE453     -0.0042
     46  CD2       82.2550   89.1800   10.7530 C.ar  453  PHE453     -0.0042
     47  CE1       84.5000   88.5910   12.1940 C.ar  453  PHE453     -0.0003
     48  CE2       82.4590   89.7870   11.9640 C.ar  453  PHE453     -0.0003
     49  CZ        83.5820   89.4960   12.6850 C.ar  453  PHE453     -0.0000
     50  N         83.4510   86.1550   14.6020 N.3   455  SER455     -0.1217
     51  CA        84.3160   86.9500   15.4660 C.3   455  SER455      0.1889
     52  C         85.5880   86.2260   15.9300 C.2   455  SER455      0.2288
     53  O         86.5370   86.8680   16.3980 O.2   455  SER455     -0.2866
     54  CB        83.5070   87.4440   16.6720 C.3   455  SER455      0.2089
     55  OG        82.4830   88.3420   16.2630 O.3   455  SER455     -0.2183
     56  N         87.9780   86.3680   12.5880 N.3   458  LYS458     -0.1231
     57  CA        88.3000   87.7650   12.3170 C.3   458  LYS458      0.1693
     58  C         88.5550   88.0520   10.8360 C.2   458  LYS458      0.2592
     59  O         89.2840   88.9730   10.5070 O.2   458  LYS458     -0.2718
     60  CB        89.4910   88.2260   13.1730 C.3   458  LYS458      0.0285
     61  CG        89.1420   88.3270   14.6480 C.3   458  LYS458      0.0035
     62  CD        90.3100   88.6880   15.5280 C.3   458  LYS458      0.0206
     63  CE        89.8330   89.2630   16.8610 C.3   458  LYS458      0.1093
     64  NZ        88.8580   88.4160   17.6090 N.3   458  LYS458     -0.1314
     65  N         87.9080   87.3020    9.9460 N.am  459  TYR459     -0.1962
     66  CA        87.9620   87.5940    8.5030 C.3   459  TYR459      0.1771
     67  C         86.8580   86.8880    7.7320 C.2   459  TYR459      0.2619
     68  O         86.4690   85.7820    8.0920 O.2   459  TYR459     -0.2715
     69  CB        89.3180   87.1790    7.9050 C.3   459  TYR459      0.0574
     70  CG        89.5820   85.6800    7.9680 C.ar  459  TYR459     -0.0198
     71  CD1       89.3000   84.8440    6.8870 C.ar  459  TYR459     -0.0009
     72  CD2       90.0940   85.1050    9.1190 C.ar  459  TYR459     -0.0009
     73  CE1       89.5250   83.4840    6.9650 C.ar  459  TYR459      0.0417
     74  CE2       90.3220   83.7620    9.1970 C.ar  459  TYR459      0.0417
     75  CZ        90.0360   82.9560    8.1280 C.ar  459  TYR459      0.1957
     76  OH        90.2850   81.6130    8.2610 O.3   459  TYR459     -0.2866
     77  N         86.3910   87.4950    6.6480 N.am  460  GLN460     -0.1977
     78  CA        85.4770   86.8040    5.7490 C.3   460  GLN460      0.1601
     79  C         86.1790   86.4390    4.4500 C.2   460  GLN460      0.2287
     80  O         87.1650   87.0560    4.1090 O.2   460  GLN460     -0.2864
     81  CB        84.2500   87.6630    5.4600 C.3   460  GLN460      0.0394
     82  CG        83.0710   86.8700    4.9130 C.3   460  GLN460      0.0908
     83  CD        81.7510   87.5170    5.2310 C.2   460  GLN460      0.2608
     84  OE1       81.1520   87.2440    6.2660 O.2   460  GLN460     -0.2717
     85  NE2       81.2950   88.3930    4.3470 N.am  460  GLN460     -0.0878
     86  N         88.3870   89.8320    3.2360 N.3   479  LYS479     -0.1231
     87  CA        88.7150   91.0190    3.9830 C.3   479  LYS479      0.1696
     88  C         88.8680   90.5530    5.4080 C.2   479  LYS479      0.2632
     89  O         88.6570   89.3800    5.6970 O.2   479  LYS479     -0.2714
     90  CB        87.6340   92.0770    3.8600 C.3   479  LYS479      0.0285
     91  CG        86.3890   91.7060    4.6190 C.3   479  LYS479      0.0035
     92  CD        85.2100   92.5810    4.2430 C.3   479  LYS479      0.0206
     93  CE        83.9040   91.9650    4.7230 C.3   479  LYS479      0.1093
     94  NZ        82.8070   92.1130    3.7370 N.3   479  LYS479     -0.1314
     95  N         89.2460   91.4510    6.3050 N.am  480  GLY480     -0.1718
     96  CA        89.3880   91.0640    7.6930 C.2   480  GLY480      0.1480
     97  C         90.1010   92.0400    8.6010 C.2   480  GLY480      0.2820
     98  O         90.2330   93.2300    8.3030 O.2   480  GLY480     -0.2669
     99  N         90.5360   91.5260    9.7450 N.am  481  ALA481     -0.1943
    100  CA        91.3840   92.2900   10.6370 C.3   481  ALA481      0.1600
    101  C         92.6770   92.5540    9.8880 C.2   481  ALA481      0.2287
    102  O         93.3560   91.6010    9.4760 O.2   481  ALA481     -0.2864
    103  CB        91.6360   91.5410   11.9240 C.3   481  ALA481      0.0319
    104  N         87.6210  102.6350   12.6950 N.3   522  ARG522     -0.1231
    105  CA        87.7090  101.1850   12.6320 C.3   522  ARG522      0.1694
    106  C         88.2170  100.7600   11.2690 C.2   522  ARG522      0.2592
    107  O         87.6320  101.1110   10.2380 O.2   522  ARG522     -0.2718
    108  CB        86.3380  100.5650   12.9210 C.3   522  ARG522      0.0321
    109  CG        86.3510   99.0820   13.2140 C.3   522  ARG522      0.0489
    110  CD        84.9450   98.5450   13.4960 C.3   522  ARG522      0.2205
    111  NE        85.0100   97.1590   13.9470 N.pl3 522  ARG522     -0.0865
    112  CZ        84.2110   96.1930   13.5210 C.cat 522  ARG522      0.5346
    113  NH1       83.2640   96.4610   12.6370 N.pl3 522  ARG522      0.1354
    114  NH2       84.3590   94.9610   13.9790 N.pl3 522  ARG522      0.1354
    115  N         89.3040  100.0010   11.2610 N.am  523  VAL523     -0.1966
    116  CA        89.9410   99.6350   10.0030 C.3   523  VAL523      0.1727
    117  C         89.6860   98.1750    9.6480 C.2   523  VAL523      0.2616
    118  O         89.6120   97.3060   10.5180 O.2   523  VAL523     -0.2715
    119  CB        91.4620   99.9070   10.0570 C.3   523  VAL523      0.0290
    120  CG1       92.1490   99.5120    8.7710 C.3   523  VAL523      0.0023
    121  CG2       91.7120  101.3670   10.3270 C.3   523  VAL523      0.0023
    122  N         89.5310   97.9270    8.3560 N.am  524  LEU524     -0.1977
    123  CA        89.4290   96.5890    7.8160 C.3   524  LEU524      0.1596
    124  C         90.4900   96.4080    6.7590 C.2   524  LEU524      0.2287
    125  O         90.6570   97.2690    5.9130 O.2   524  LEU524     -0.2864
    126  CB        88.0520   96.3600    7.2060 C.3   524  LEU524      0.0297
    127  CG        86.8860   95.9850    8.1140 C.3   524  LEU524      0.0022
    128  CD1       85.6070   96.1560    7.3340 C.3   524  LEU524      0.0001
    129  CD2       87.0330   94.5470    8.5900 C.3   524  LEU524      0.0001
    130  N         87.6310   94.1220   23.7980 N.3   588  THR588     -0.1203
    131  CA        87.1730   94.1910   22.4270 C.3   588  THR588      0.1994
    132  C         87.9560   93.2410   21.5430 C.2   588  THR588      0.2618
    133  O         88.9830   92.7080   21.9420 O.2   588  THR588     -0.2717
    134  CB        87.3080   95.6190   21.8820 C.3   588  THR588      0.1784
    135  OG1       86.7910   95.6930   20.5460 O.3   588  THR588     -0.2211
    136  CG2       88.7700   96.0500   21.8890 C.3   588  THR588      0.0376
    137  N         87.4680   93.0380   20.3310 N.am  589  GLY589     -0.1942
    138  CA        88.1470   92.1920   19.3780 C.3   589  GLY589      0.2014
    139  C         88.7690   93.0750   18.3290 C.2   589  GLY589      0.2638
    140  O         89.1950   92.6110   17.2820 O.2   589  GLY589     -0.2714
    141  N         88.8180   94.3670   18.6160 N.am  590  ASP590     -0.1971
    142  CA        89.3560   95.3240   17.6610 C.3   590  ASP590      0.1709
    143  C         90.8170   95.6120   17.9300 C.2   590  ASP590      0.2293
    144  O         91.2840   95.4530   19.0510 O.2   590  ASP590     -0.2864
    145  CB        88.5720   96.6340   17.6930 C.3   590  ASP590      0.1436
    146  CG        88.4230   97.2580   16.3190 C.2   590  ASP590      0.3671
    147  OD1       89.4210   97.3870   15.5700 O.co2 590  ASP590     -0.2456
    148  OD2       87.2790   97.6140   15.9860 O.co2 590  ASP590     -0.2456
    149  N         91.6990   92.9340   20.2970 N.3   663  ARG663     -0.1231
    150  CA        91.7500   91.7610   19.4180 C.3   663  ARG663      0.1694
    151  C         91.5730   90.4670   20.1920 C.2   663  ARG663      0.2592
    152  O         92.3870   89.5600   20.0730 O.2   663  ARG663     -0.2718
    153  CB        93.0690   91.7270   18.6290 C.3   663  ARG663      0.0321
    154  CG        93.1150   92.7030   17.4610 C.3   663  ARG663      0.0489
    155  CD        92.4990   92.1130   16.2000 C.3   663  ARG663      0.2205
    156  NE        91.4830   92.9770   15.5950 N.pl3 663  ARG663     -0.0865
    157  CZ        91.6720   93.7270   14.5120 C.cat 663  ARG663      0.5346
    158  NH1       92.8400   93.7350   13.8990 N.pl3 663  ARG663      0.1354
    159  NH2       90.6900   94.4740   14.0320 N.pl3 663  ARG663      0.1354
    160  N         90.5250   90.4010   21.0090 N.am  664  THR664     -0.1953
    161  CA        90.2690   89.2130   21.8190 C.3   664  THR664      0.1897
    162  C         89.3260   88.2440   21.1240 C.2   664  THR664      0.2313
    163  O         88.4420   88.6460   20.3620 O.2   664  THR664     -0.2863
    164  CB        89.6660   89.5550   23.1960 C.3   664  THR664      0.1794
    165  OG1       88.3920   90.1830   23.0230 O.3   664  THR664     -0.2208
    166  CG2       90.5840   90.4840   23.9540 C.3   664  THR664      0.0378
    167  N         87.2880   86.7560   26.2220 N.3   669  LYS669     -0.1245
    168  CA        86.3500   87.6450   26.8870 C.3   669  LYS669      0.1561
    169  C         85.8100   86.9480   28.1120 C.2   669  LYS669      0.2260
    170  O         85.6650   87.5570   29.1600 O.2   669  LYS669     -0.2867
    171  CB        85.2270   88.0470   25.9380 C.3   669  LYS669      0.0271
    172  CG        85.7160   88.9050   24.7930 C.3   669  LYS669      0.0035
    173  CD        84.6000   89.7270   24.1900 C.3   669  LYS669      0.0206
    174  CE        85.1770   90.9130   23.4440 C.3   669  LYS669      0.1093
    175  NZ        84.1540   91.7560   22.7660 N.3   669  LYS669     -0.1314
    176  N         79.6930   87.1420   19.9810 N.3   691  ASN691     -0.1240
    177  CA        80.9290   86.7190   20.6290 C.3   691  ASN691      0.1653
    178  C         80.9880   87.1590   22.0890 C.2   691  ASN691      0.2266
    179  O         81.9580   86.8800   22.7970 O.2   691  ASN691     -0.2867
    180  CB        82.1370   87.2530   19.8660 C.3   691  ASN691      0.1155
    181  CG        82.1280   88.7540   19.7400 C.2   691  ASN691      0.2627
    182  OD1       81.0980   89.3970   19.8840 O.2   691  ASN691     -0.2716
    183  ND2       83.2870   89.3210   19.4630 N.am  691  ASN691     -0.0877
@<TRIPOS>BOND
     1    86    87    1
     2    94    93    1
     3    90    87    1
     4    90    91    1
     5    33    32    2
     6    87    88    1
     7    80    79    2
     8    92    91    1
     9    92    93    1
    10    85    83   am
    11    79    78    1
    12    82    83    1
    13    82    81    1
    14    37    36   ar
    15    32    31    1
    16    83    84    2
    17    88    89    2
    18    88    95    1
    19    36    38   ar
    20    36    35    1
    21    81    78    1
    22    34    31    1
    23    34    35    1
    24    31    30    1
    25    78    77    1
    26   125   124    2
    27    95    96    2
    28    27    26    2
    29    77    67   am
    30   124   123    1
    31    71    73   ar
    32    71    70   ar
    33    73    75   ar
    34    30    26   am
    35   126   123    1
    36   126   127    1
    37   128   127    1
    38    26    25    1
    39    96    97    1
    40    67    68    2
    41    67    66    1
    42   123   122    1
    43    39    40    1
    44    69    70    1
    45    69    66    1
    46    70    72   ar
    47   127   129    1
    48    75    76    1
    49    75    74   ar
    50    22    21   ar
    51    98    97    2
    52   122   117   am
    53    66    65    1
    54    19    18    2
    55    97    99   am
    56    16    17    1
    57   120   119    1
    58    25    28    1
    59    25    24    1
    60    43    40    1
    61    43    44    1
    62    40    41    1
    63    21    20    1
    64    21    23   ar
    65    72    74   ar
    66    28    29    1
    67    20    17    1
    68   102   101    2
    69    18    17    1
    70   117   116    1
    71   117   118    2
    72    99   100    1
    73   101   100    1
    74    65    58   am
    75   116   119    1
    76   116   115    1
    77   119   121    1
    78   107   106    2
    79    44    46   ar
    80    44    45   ar
    81    41    42    2
    82    59    58    2
    83   100   103    1
    84    46    48   ar
    85    58    57    1
    86    45    47   ar
    87   115   106   am
    88   106   105    1
    89    48    49   ar
    90    47    49   ar
    91    57    56    1
    92    57    60    1
    93   105   104    1
    94   105   108    1
    95   113   112    1
    96   108   109    1
    97    60    61    1
    98   109   110    1
    99   110   111    1
   100   112   111    2
   101   112   114    1
   102   158   157    1
   103   159   157    1
   104   157   156    2
   105    50    51    1
   106    61    62    1
   107    51    52    1
   108    51    54    1
   109    62    63    1
   110   147   146   ar
   111   156   155    1
   112    52    53    2
   113   148   146   ar
   114   155   154    1
   115    55    54    1
   116   146   145    1
   117    15    13    1
   118    63    64    1
   119   140   139    2
   120   154   153    1
   121    14    13    1
   122    13    10    1
   123   142   145    1
   124   142   143    1
   125   142   141    1
   126   143   144    2
   127   139   141   am
   128   139   138    1
   129   153   150    1
   130    10    11    1
   131    10     9    1
   132    11    12    2
   133   138   137    1
   134   150   151    1
   135   150   149    1
   136   183   181   am
   137   181   180    1
   138   181   182    2
   139   180   177    1
   140   176   177    1
   141   152   151    2
   142   151   160   am
   143   137   132   am
   144   163   162    2
   145   135   134    1
   146   177   178    1
   147   160   161    1
   148   162   161    1
   149     8     6   ar
   150   132   133    2
   151   132   131    1
   152   161   164    1
   153   134   136    1
   154   134   131    1
   155     7     6   ar
   156   178   179    2
   157     6     5    1
   158   131   130    1
   159   175   174    1
   160   165   164    1
   161   164   166    1
   162   174   173    1
   163     5     2    1
   164     3     4    2
   165     3     2    1
   166   173   172    1
   167     2     1    1
   168   172   171    1
   169   171   168    1
   170   167   168    1
   171   168   169    1
   172   169   170    2
