@<TRIPOS>MOLECULE
tmp/3wh0A01.pdb
 105 98 0 0 0
SMALL
GASTEIGER

@<TRIPOS>ATOM
      1  N        -31.5740   20.2820   18.3220 N.3    41  HIS41      -0.1241
      2  CA       -31.8860   21.0380   17.0830 C.3    41  HIS41       0.1621
      3  C        -32.6030   22.3360   17.2860 C.2    41  HIS41       0.2264
      4  O        -33.2520   22.6290   18.3330 O.2    41  HIS41      -0.2867
      5  CB       -32.5410   20.1160   16.0470 C.3    41  HIS41       0.0745
      6  CG       -33.9930   19.9250   16.2670 C.ar   41  HIS41       0.0817
      7  ND1      -34.8720   19.8580   15.1870 N.ar   41  HIS41      -0.2268
      8  CD2      -34.7300   19.7520   17.3880 C.ar   41  HIS41       0.1154
      9  CE1      -36.1020   19.7490   15.6550 C.ar   41  HIS41       0.1986
     10  NE2      -36.0540   19.6380   16.9890 N.ar   41  HIS41      -0.2212
     11  N        -35.4120   24.1570   14.9540 N.3    43  LEU43      -0.1245
     12  CA       -36.2480   24.0420   13.7110 C.3    43  LEU43       0.1561
     13  C        -36.9130   25.2910   13.4050 C.2    43  LEU43       0.2260
     14  O        -37.4500   26.0520   14.2270 O.2    43  LEU43      -0.2867
     15  CB       -37.3660   22.9700   14.0770 C.3    43  LEU43       0.0270
     16  CG       -38.4290   22.7450   12.9780 C.3    43  LEU43       0.0019
     17  CD1      -37.8590   22.1090   11.7080 C.3    43  LEU43       0.0001
     18  CD2      -39.4990   21.8250   13.5820 C.3    43  LEU43       0.0001
     19  N        -39.9460   26.3960   10.8710 N.3    45  LYS45      -0.1245
     20  CA       -40.9280   25.7750   10.0230 C.3    45  LYS45       0.1561
     21  C        -41.3070   26.8010    8.9520 C.2    45  LYS45       0.2260
     22  O        -40.9790   27.9720    9.0390 O.2    45  LYS45      -0.2867
     23  CB       -42.1300   25.3360   10.9250 C.3    45  LYS45       0.0271
     24  CG       -42.0140   23.9030   11.4470 C.3    45  LYS45       0.0035
     25  CD       -43.2870   23.6400   12.3070 C.3    45  LYS45       0.0206
     26  CE       -43.1780   22.2930   12.9190 C.3    45  LYS45       0.1093
     27  NZ       -44.5950   21.8130   13.2960 N.3    45  LYS45      -0.1314
     28  N        -44.8840   19.8140    6.9680 N.3    50  ARG50      -0.1245
     29  CA       -45.9890   18.8760    7.2260 C.3    50  ARG50       0.1563
     30  C        -47.0130   19.4410    8.2100 C.2    50  ARG50       0.2260
     31  O        -48.2380   19.3430    7.9610 O.2    50  ARG50      -0.2867
     32  CB       -45.5090   17.4530    7.4760 C.3    50  ARG50       0.0307
     33  CG       -44.6530   17.1410    8.6730 C.3    50  ARG50       0.0489
     34  CD       -44.9860   15.7040    9.0070 C.3    50  ARG50       0.2205
     35  NE       -43.8880   14.9050    9.5240 N.pl3  50  ARG50      -0.0865
     36  CZ       -43.5590   14.8410   10.8060 C.cat  50  ARG50       0.5346
     37  NH1      -42.5650   14.0560   11.2130 N.pl3  50  ARG50       0.1354
     38  NH2      -44.2250   15.5690   11.6880 N.pl3  50  ARG50       0.1354
     39  N        -39.9530   23.7580   17.5170 N.3    95  CYS95      -0.1235
     40  CA       -40.2060   22.4270   18.0310 C.3    95  CYS95       0.1677
     41  C        -40.3860   22.5640   19.5380 C.2    95  CYS95       0.2270
     42  O        -39.8350   23.4750   20.1530 O.2    95  CYS95      -0.2867
     43  CB       -38.9570   21.5520   17.8350 C.3    95  CYS95       0.0956
     44  SG       -39.0480   19.9140   18.3190 S.3    95  CYS95      -0.0801
     45  N        -33.0220   16.6310   21.9330 N.3   104  LEU104     -0.1245
     46  CA       -33.8310   15.4740   21.5240 C.3   104  LEU104      0.1561
     47  C        -33.5540   14.2340   22.3100 C.2   104  LEU104      0.2260
     48  O        -34.1920   13.1830   22.0360 O.2   104  LEU104     -0.2867
     49  CB       -33.6920   15.2030   20.0160 C.3   104  LEU104      0.0270
     50  CG       -34.2970   16.4020   19.2730 C.3   104  LEU104      0.0019
     51  CD1      -33.9010   16.2100   17.8080 C.3   104  LEU104      0.0001
     52  CD2      -35.7930   16.6650   19.3870 C.3   104  LEU104      0.0001
     53  N        -35.0980    5.8020   13.8230 N.3   111  GLN111     -0.1231
     54  CA       -36.0950    6.5350   14.6170 C.3   111  GLN111      0.1698
     55  C        -36.5190    7.8940   14.0430 C.2   111  GLN111      0.2592
     56  O        -37.6850    8.2280   14.0470 O.2   111  GLN111     -0.2718
     57  CB       -35.5680    6.7600   16.0840 C.3   111  GLN111      0.0381
     58  CG       -35.1490    5.5300   16.8920 C.3   111  GLN111      0.0905
     59  CD       -34.6550    5.8580   18.3290 C.2   111  GLN111      0.2608
     60  OE1      -33.6340    5.3470   18.7970 O.2   111  GLN111     -0.2717
     61  NE2      -35.3420    6.7850   18.9890 N.am  111  GLN111     -0.0878
     62  N        -35.5620    8.7040   13.5300 N.am  112  MET112     -0.1965
     63  CA       -35.8580   10.0610   13.0420 C.3   112  MET112      0.1736
     64  C        -36.0450   10.1060   11.4990 C.2   112  MET112      0.2616
     65  O        -35.5130    9.2090   10.8620 O.2   112  MET112     -0.2715
     66  CB       -34.5850   10.9380   13.4020 C.3   112  MET112      0.0427
     67  CG       -34.2780   11.0020   14.8990 C.3   112  MET112      0.0599
     68  SD       -35.5910   11.7350   15.8690 S.3   112  MET112     -0.1393
     69  CE       -34.9250   11.8430   17.5380 C.3   112  MET112      0.0692
     70  N        -36.6410   11.1700   10.9660 N.am  113  GLN113     -0.1977
     71  CA       -36.7040   11.4400    9.4770 C.3   113  GLN113      0.1601
     72  C        -35.3020   11.2570    8.8530 C.2   113  GLN113      0.2287
     73  O        -34.2580   11.5210    9.4600 O.2   113  GLN113     -0.2864
     74  CB       -37.2930   12.7990    9.1870 C.3   113  GLN113      0.0394
     75  CG       -38.7630   12.9870    9.6050 C.3   113  GLN113      0.0908
     76  CD       -39.2470   14.4270    9.4480 C.2   113  GLN113      0.2608
     77  OE1      -38.9170   15.2970   10.2510 O.2   113  GLN113     -0.2717
     78  NE2      -39.9590   14.6900    8.3820 N.am  113  GLN113     -0.0878
     79  N        -32.5890   13.9870    8.6400 N.3   116  PHE116     -0.1241
     80  CA       -32.1280   14.3940   10.0370 C.3   116  PHE116      0.1605
     81  C        -31.2260   13.3430   10.6120 C.2   116  PHE116      0.2264
     82  O        -30.1260   13.5740   11.1780 O.2   116  PHE116     -0.2867
     83  CB       -33.3690   14.6220   10.9080 C.3   116  PHE116      0.0534
     84  CG       -33.0450   15.2320   12.2620 C.ar  116  PHE116     -0.0203
     85  CD1      -33.2580   16.6010   12.4480 C.ar  116  PHE116     -0.0042
     86  CD2      -32.5350   14.4390   13.3140 C.ar  116  PHE116     -0.0042
     87  CE1      -32.9750   17.2570   13.6730 C.ar  116  PHE116     -0.0003
     88  CE2      -32.2630   15.0890   14.5390 C.ar  116  PHE116     -0.0003
     89  CZ       -32.4860   16.4340   14.6800 C.ar  116  PHE116     -0.0000
     90  N        -40.4670   18.3980    8.1360 N.3   136  SER136     -0.1217
     91  CA       -40.9300   19.3210    9.1430 C.3   136  SER136      0.1889
     92  C        -40.5580   20.7940    8.9650 C.2   136  SER136      0.2288
     93  O        -41.2240   21.6360    9.4790 O.2   136  SER136     -0.2866
     94  CB       -40.3270   18.9160   10.5060 C.3   136  SER136      0.2089
     95  OG       -40.6880   17.6240   10.9250 O.3   136  SER136     -0.2183
     96  N        -33.7190   22.4920    9.6970 N.3   139  HIS139     -0.1241
     97  CA       -33.0940   22.3020   11.0940 C.3   139  HIS139      0.1621
     98  C        -31.5930   22.8480   11.0230 C.2   139  HIS139      0.2264
     99  O        -30.8870   22.7060   10.0000 O.2   139  HIS139     -0.2867
    100  CB       -33.0190   20.8970   11.4000 C.3   139  HIS139      0.0745
    101  CG       -34.3490   20.1760   11.2530 C.ar  139  HIS139      0.0817
    102  ND1      -35.0450   19.6990   12.3520 N.ar  139  HIS139     -0.2268
    103  CD2      -35.0640   19.8210   10.1330 C.ar  139  HIS139      0.1154
    104  CE1      -36.1670   19.0990   11.9020 C.ar  139  HIS139      0.1986
    105  NE2      -36.1940   19.1540   10.5720 N.ar  139  HIS139     -0.2212
@<TRIPOS>BOND
     1    28    29    1
     2    29    32    1
     3    29    30    1
     4    32    33    1
     5    31    30    2
     6    90    91    1
     7    78    76   am
     8    79    80    1
     9    33    34    1
    10    72    73    2
    11    72    71    1
    12    21    22    2
    13    21    20    1
    14    92    91    1
    15    92    93    2
    16    34    35    1
    17    91    94    1
    18    74    71    1
    19    74    75    1
    20    76    75    1
    21    76    77    2
    22    71    70    1
    23    35    36    2
    24    96    97    1
    25    99    98    2
    26    20    19    1
    27    20    23    1
    28    80    81    1
    29    80    83    1
    30   103   105   ar
    31   103   101   ar
    32    94    95    1
    33   105   104   ar
    34    81    82    2
    35    36    37    1
    36    36    38    1
    37    65    64    2
    38    83    84    1
    39    23    24    1
    40    70    64   am
    41    98    97    1
    42    97   100    1
    43   101   100    1
    44   101   102   ar
    45    24    25    1
    46    64    63    1
    47    17    16    1
    48   104   102   ar
    49    84    85   ar
    50    84    86   ar
    51    25    26    1
    52    85    87   ar
    53    26    27    1
    54    16    18    1
    55    16    15    1
    56    63    66    1
    57    63    62    1
    58    86    88   ar
    59    66    67    1
    60    13    12    1
    61    13    14    2
    62    62    55   am
    63    87    89   ar
    64    12    15    1
    65    12    11    1
    66    53    54    1
    67    55    56    2
    68    55    54    1
    69    88    89   ar
    70    54    57    1
    71    67    68    1
    72     7     9   ar
    73     7     6   ar
    74     9    10   ar
    75    68    69    1
    76     5     6    1
    77     5     2    1
    78    57    58    1
    79     6     8   ar
    80    58    59    1
    81    10     8   ar
    82     2     3    1
    83     2     1    1
    84     3     4    2
    85    39    40    1
    86    51    50    1
    87    43    40    1
    88    43    44    1
    89    40    41    1
    90    59    60    2
    91    59    61   am
    92    50    52    1
    93    50    49    1
    94    41    42    2
    95    49    46    1
    96    46    45    1
    97    46    47    1
    98    48    47    2
