@<TRIPOS>MOLECULE
tmp/3wh6A03.pdb
 85 83 0 0 0
SMALL
GASTEIGER

@<TRIPOS>ATOM
      1  N        -34.9210   21.1650    9.1330 N.3   323  ALA323     -0.1245
      2  CA       -35.4020   21.7350   10.3530 C.3   323  ALA323      0.1562
      3  C        -34.3100   22.4990   11.0610 C.2   323  ALA323      0.2260
      4  O        -34.6220   23.3410   11.9130 O.2   323  ALA323     -0.2867
      5  CB       -36.0000   20.7410   11.2540 C.3   323  ALA323      0.0290
      6  N        -36.3100   16.8810   10.1900 N.3   357  LEU357     -0.1231
      7  CA       -37.4080   17.5170    9.4750 C.3   357  LEU357      0.1693
      8  C        -38.5390   17.6130   10.4750 C.2   357  LEU357      0.2592
      9  O        -38.5990   16.9470   11.5000 O.2   357  LEU357     -0.2718
     10  CB       -37.9120   16.6920    8.2750 C.3   357  LEU357      0.0284
     11  CG       -36.9300   16.5420    7.1520 C.3   357  LEU357      0.0019
     12  CD1      -37.4070   15.5440    6.1390 C.3   357  LEU357      0.0001
     13  CD2      -36.5850   17.8600    6.4710 C.3   357  LEU357      0.0001
     14  N        -39.6020   18.3410   10.0850 N.am  358  HIS358     -0.1962
     15  CA       -40.7320   18.4000   10.9770 C.3   358  HIS358      0.1787
     16  C        -41.6630   17.2450   10.6130 C.2   358  HIS358      0.2620
     17  O        -42.7400   17.4130   10.0310 O.2   358  HIS358     -0.2715
     18  CB       -41.4390   19.7620   10.7450 C.3   358  HIS358      0.0785
     19  CG       -40.5590   20.9080   11.0550 C.ar  358  HIS358      0.0821
     20  ND1      -40.0070   21.0930   12.3190 N.ar  358  HIS358     -0.2267
     21  CD2      -40.0870   21.9060   10.2910 C.ar  358  HIS358      0.1154
     22  CE1      -39.2120   22.1380   12.3030 C.ar  358  HIS358      0.1986
     23  NE2      -39.2690   22.6780   11.0900 N.ar  358  HIS358     -0.2212
     24  N        -41.2580   16.0220   10.9070 N.am  359  ASP359     -0.1957
     25  CA       -41.9410   14.8520   10.3930 C.3   359  ASP359      0.1840
     26  C        -43.2330   14.6450   11.1500 C.2   359  ASP359      0.2621
     27  O        -43.3590   14.8610   12.3580 O.2   359  ASP359     -0.2715
     28  CB       -41.0450   13.5840   10.6180 C.3   359  ASP359      0.1450
     29  CG       -39.8240   13.6150    9.9100 C.2   359  ASP359      0.3671
     30  OD1      -39.7820   13.6370    8.6530 O.co2 359  ASP359     -0.2456
     31  OD2      -38.7360   13.5710   10.6330 O.co2 359  ASP359     -0.2456
     32  N        -44.2640   14.2810   10.4090 N.am  360  GLU360     -0.1977
     33  CA       -45.5690   13.9950   10.9990 C.3   360  GLU360      0.1602
     34  C        -46.1080   12.8050   10.2940 C.2   360  GLU360      0.2287
     35  O        -45.8300   12.5760    9.0880 O.2   360  GLU360     -0.2864
     36  CB       -46.6300   15.1420   10.7430 C.3   360  GLU360      0.0415
     37  CG       -46.3810   15.8960    9.4600 C.3   360  GLU360      0.1163
     38  CD       -47.0340   17.3190    9.3370 C.2   360  GLU360      0.3649
     39  OE1      -47.8610   17.6370   10.2330 O.co2 360  GLU360     -0.2457
     40  OE2      -46.6090   18.0880    8.4020 O.co2 360  GLU360     -0.2457
     41  N        -36.2700   15.6390   22.5420 N.3   411  LEU411     -0.1231
     42  CA       -37.0540   14.7760   21.6370 C.3   411  LEU411      0.1693
     43  C        -37.6770   15.5500   20.5450 C.2   411  LEU411      0.2593
     44  O        -38.2380   14.9390   19.6110 O.2   411  LEU411     -0.2718
     45  CB       -38.1280   14.0990   22.5160 C.3   411  LEU411      0.0284
     46  CG       -37.6430   13.1790   23.6290 C.3   411  LEU411      0.0019
     47  CD1      -38.8330   12.6520   24.4460 C.3   411  LEU411      0.0001
     48  CD2      -36.8660   12.0360   23.1490 C.3   411  LEU411      0.0001
     49  N        -37.6170   16.8690   20.5620 N.am  412  SER412     -0.1938
     50  CA       -38.2100   17.7270   19.5260 C.3   412  SER412      0.2055
     51  C        -37.6000   17.7580   18.1470 C.2   412  SER412      0.2643
     52  O        -38.2380   18.2520   17.2140 O.2   412  SER412     -0.2714
     53  CB       -38.2980   19.1270   20.0590 C.3   412  SER412      0.2130
     54  OG       -39.3260   19.0490   21.1030 O.3   412  SER412     -0.2179
     55  N        -36.3770   17.2270   17.9250 N.am  413  MET413     -0.1962
     56  CA       -35.7490   17.3540   16.7050 C.3   413  MET413      0.1736
     57  C        -35.5020   15.9710   16.0730 C.2   413  MET413      0.2616
     58  O        -34.6030   15.1910   16.5800 O.2   413  MET413     -0.2715
     59  CB       -34.3930   18.0660   16.8700 C.3   413  MET413      0.0427
     60  CG       -33.6740   18.4350   15.6070 C.3   413  MET413      0.0599
     61  SD       -34.5480   19.7100   14.6310 S.3   413  MET413     -0.1393
     62  CE       -34.1270   21.1310   15.6470 C.3   413  MET413      0.0692
     63  N        -36.3360   15.6130   15.0910 N.am  414  ARG414     -0.1977
     64  CA       -36.4490   14.2490   14.5710 C.3   414  ARG414      0.1597
     65  C        -35.5030   13.9730   13.3770 C.2   414  ARG414      0.2287
     66  O        -35.6620   14.4990   12.2600 O.2   414  ARG414     -0.2864
     67  CB       -37.9520   14.0440   14.1240 C.3   414  ARG414      0.0334
     68  CG       -38.8720   14.0120   15.2670 C.3   414  ARG414      0.0492
     69  CD       -40.2820   13.7980   14.7680 C.3   414  ARG414      0.2205
     70  NE       -41.2580   13.7990   15.8280 N.pl3 414  ARG414     -0.0865
     71  CZ       -41.5350   12.7710   16.6350 C.cat 414  ARG414      0.5346
     72  NH1      -40.9380   11.5930   16.4870 N.pl3 414  ARG414      0.1354
     73  NH2      -42.3660   12.8630   17.6750 N.pl3 414  ARG414      0.1354
     74  N        -39.9370    6.8370   12.3810 N.3   419  TYR419     -0.1241
     75  CA       -40.5580    7.7140   13.3080 C.3   419  TYR419      0.1605
     76  C        -40.7560    7.0410   14.6110 C.2   419  TYR419      0.2264
     77  O        -41.1600    5.8990   14.6580 O.2   419  TYR419     -0.2867
     78  CB       -41.9360    8.1350   12.7340 C.3   419  TYR419      0.0534
     79  CG       -42.7050    9.1500   13.4910 C.ar  419  TYR419     -0.0201
     80  CD1      -42.6640   10.4140   13.1300 C.ar  419  TYR419     -0.0009
     81  CD2      -43.5670    8.7630   14.4820 C.ar  419  TYR419     -0.0009
     82  CE1      -43.3440   11.3450   13.8650 C.ar  419  TYR419      0.0417
     83  CE2      -44.3280    9.6990   15.1950 C.ar  419  TYR419      0.0417
     84  CZ       -44.1780   10.9710   14.8560 C.ar  419  TYR419      0.1957
     85  OH       -44.8940   11.9850   15.4450 O.3   419  TYR419     -0.2866
@<TRIPOS>BOND
     1    12    11    1
     2    13    11    1
     3    11    10    1
     4    10     7    1
     5    40    38   ar
     6    30    29   ar
     7    35    34    2
     8     1     2    1
     9    38    37    1
    10    38    39   ar
    11    37    36    1
    12     7     6    1
    13     7     8    1
    14    29    28    1
    15    29    31   ar
    16    17    16    2
    17    14     8   am
    18    14    15    1
    19    21    19   ar
    20    21    23   ar
    21    34    33    1
    22     2     3    1
    23     2     5    1
    24    25    28    1
    25    25    24    1
    26    25    26    1
    27    32    33    1
    28    32    26   am
    29     8     9    2
    30    16    24   am
    31    16    15    1
    32    36    33    1
    33    18    15    1
    34    18    19    1
    35    19    20   ar
    36     3     4    2
    37    23    22   ar
    38    26    27    2
    39    66    65    2
    40    22    20   ar
    41    74    75    1
    42    78    75    1
    43    78    79    1
    44    80    79   ar
    45    80    82   ar
    46    75    76    1
    47    65    64    1
    48    79    81   ar
    49    82    84   ar
    50    67    64    1
    51    67    68    1
    52    81    83   ar
    53    64    63    1
    54    76    77    2
    55    61    60    1
    56    61    62    1
    57    69    68    1
    58    69    70    1
    59    84    83   ar
    60    84    85    1
    61    63    57   am
    62    60    59    1
    63    70    71    2
    64    57    58    2
    65    57    56    1
    66    72    71    1
    67    71    73    1
    68    56    59    1
    69    56    55    1
    70    52    51    2
    71    55    51   am
    72    51    50    1
    73    50    53    1
    74    50    49    1
    75    44    43    2
    76    53    54    1
    77    43    49   am
    78    43    42    1
    79    42    45    1
    80    42    41    1
    81    45    46    1
    82    48    46    1
    83    46    47    1
