@<TRIPOS>MOLECULE
tmp/3wh6A00.pdb
 137 136 0 0 0
SMALL
GASTEIGER

@<TRIPOS>ATOM
      1  N        -29.0110    8.6260   23.5540 N.3    20  GLN20      -0.1245
      2  CA       -30.0680    9.1510   22.7230 C.3    20  GLN20       0.1566
      3  C        -31.2770    8.1820   22.6440 C.2    20  GLN20       0.2260
      4  O        -32.3900    8.6510   22.3830 O.2    20  GLN20      -0.2867
      5  CB       -29.5900    9.5370   21.3650 C.3    20  GLN20       0.0367
      6  CG       -28.4370   10.4950   21.4210 C.3    20  GLN20       0.0905
      7  CD       -28.0760   11.0490   20.0770 C.2    20  GLN20       0.2608
      8  OE1      -27.0460   10.6290   19.4890 O.2    20  GLN20      -0.2717
      9  NE2      -28.8170   12.0200   19.5420 N.am   20  GLN20      -0.0878
     10  N        -19.7430    7.7190   23.0460 N.3   121  HIS121     -0.1226
     11  CA       -20.6510    8.6680   22.3730 C.3   121  HIS121      0.1752
     12  C        -21.2150    9.5720   23.4200 C.2   121  HIS121      0.2596
     13  O        -22.4600    9.7400   23.5110 O.2   121  HIS121     -0.2718
     14  CB       -21.6370    7.9210   21.4900 C.3   121  HIS121      0.0759
     15  CG       -22.2270    8.7180   20.4000 C.ar  121  HIS121      0.0818
     16  ND1      -22.3120    8.2320   19.1390 N.ar  121  HIS121     -0.2268
     17  CD2      -22.7590    9.9710   20.3450 C.ar  121  HIS121      0.1154
     18  CE1      -22.9370    9.1040   18.3610 C.ar  121  HIS121      0.1986
     19  NE2      -23.2180   10.1650   19.0810 N.ar  121  HIS121     -0.2212
     20  N        -20.3260   10.2060   24.1920 N.am  122  TRP122     -0.1976
     21  CA       -20.5820   11.4120   24.9540 C.3   122  TRP122      0.1640
     22  C        -21.0000   11.2420   26.3990 C.2   122  TRP122      0.2290
     23  O        -21.1220   12.2510   27.1440 O.2   122  TRP122     -0.2864
     24  CB       -21.4960   12.4220   24.2510 C.3   122  TRP122      0.0576
     25  CG       -21.0770   12.7940   22.8380 C.ar  122  TRP122      0.0006
     26  CD1      -19.9180   12.4510   22.1530 C.ar  122  TRP122      0.0946
     27  CD2      -21.7720   13.6170   21.9500 C.ar  122  TRP122      0.0152
     28  NE1      -19.8950   12.9830   20.9120 N.ar  122  TRP122     -0.2442
     29  CE2      -21.0280   13.7310   20.7610 C.ar  122  TRP122      0.0810
     30  CE3      -22.9550   14.3480   22.0410 C.ar  122  TRP122      0.0012
     31  CZ2      -21.4340   14.5140   19.7000 C.ar  122  TRP122      0.0191
     32  CZ3      -23.3480   15.0670   20.9940 C.ar  122  TRP122      0.0001
     33  CH2      -22.6440   15.1810   19.8350 C.ar  122  TRP122      0.0015
     34  N        -16.6960    9.0950   19.2710 N.3   165  ASN165     -0.1225
     35  CA       -17.4860    9.8170   18.3520 C.3   165  ASN165      0.1785
     36  C        -17.3350   11.3030   18.5430 C.2   165  ASN165      0.2597
     37  O        -17.7020   11.8280   19.6020 O.2   165  ASN165     -0.2718
     38  CB       -19.0060    9.4260   18.5570 C.3   165  ASN165      0.1169
     39  CG       -19.9390   10.1960   17.6120 C.2   165  ASN165      0.2627
     40  OD1      -20.0470    9.8190   16.4490 O.2   165  ASN165     -0.2716
     41  ND2      -20.5550   11.3080   18.0590 N.am  165  ASN165     -0.0877
     42  N        -16.8260   11.9970   17.4930 N.am  166  GLU166     -0.1979
     43  CA       -16.8900   13.4970   17.4340 C.3   166  GLU166      0.1602
     44  C        -16.2760   14.1690   18.6700 C.2   166  GLU166      0.2287
     45  O        -16.9210   14.8940   19.3980 O.2   166  GLU166     -0.2864
     46  CB       -18.2920   13.9670   17.2370 C.3   166  GLU166      0.0415
     47  CG       -18.8870   13.4620   15.9740 C.3   166  GLU166      0.1163
     48  CD       -20.1820   14.1300   15.5900 C.2   166  GLU166      0.3649
     49  OE1      -20.6520   14.8900   16.4410 O.co2 166  GLU166     -0.2457
     50  OE2      -20.6460   13.9820   14.4330 O.co2 166  GLU166     -0.2457
     51  N        -17.0030   17.7850   19.2770 N.3   169  CYS169     -0.1235
     52  CA       -18.1950   18.1540   20.0210 C.3   169  CYS169      0.1677
     53  C        -17.9750   18.0360   21.5330 C.2   169  CYS169      0.2270
     54  O        -18.2770   18.9040   22.3140 O.2   169  CYS169     -0.2867
     55  CB       -19.4170   17.2620   19.6040 C.3   169  CYS169      0.0956
     56  SG       -19.9990   17.7210   17.9260 S.3   169  CYS169     -0.0801
     57  N        -22.6370   16.3810    7.7940 N.3   295  TYR295     -0.1241
     58  CA       -23.9030   17.0080    7.7080 C.3   295  TYR295      0.1605
     59  C        -23.9660   18.2860    6.8800 C.2   295  TYR295      0.2264
     60  O        -24.9160   18.5180    6.1900 O.2   295  TYR295     -0.2867
     61  CB       -24.4590   17.3430    9.1030 C.3   295  TYR295      0.0534
     62  CG       -24.7590   16.1240    9.9090 C.ar  295  TYR295     -0.0201
     63  CD1      -26.0520   15.6060    9.9010 C.ar  295  TYR295     -0.0009
     64  CD2      -23.8400   15.5470   10.7770 C.ar  295  TYR295     -0.0009
     65  CE1      -26.3520   14.4610   10.6290 C.ar  295  TYR295      0.0417
     66  CE2      -24.1490   14.3400   11.4840 C.ar  295  TYR295      0.0417
     67  CZ       -25.3750   13.8530   11.4270 C.ar  295  TYR295      0.1957
     68  OH       -25.6450   12.7180   12.1800 O.3   295  TYR295     -0.2866
     69  N        -30.5580   22.6220    9.6010 N.3   325  ARG325     -0.1245
     70  CA       -29.2610   22.8020    8.8730 C.3   325  ARG325      0.1563
     71  C        -29.4410   23.1480    7.4030 C.2   325  ARG325      0.2260
     72  O        -30.5190   22.9520    6.8500 O.2   325  ARG325     -0.2867
     73  CB       -28.4480   21.4830    8.8870 C.3   325  ARG325      0.0307
     74  CG       -28.0910   20.9910   10.2540 C.3   325  ARG325      0.0489
     75  CD       -27.2140   19.7950   10.1850 C.3   325  ARG325      0.2205
     76  NE       -27.2010   19.0770   11.4660 N.pl3 325  ARG325     -0.0865
     77  CZ       -26.1970   19.0890   12.3060 C.cat 325  ARG325      0.5346
     78  NH1      -25.1420   19.8200   12.0540 N.pl3 325  ARG325      0.1354
     79  NH2      -26.2380   18.3680   13.4160 N.pl3 325  ARG325      0.1354
     80  N        -22.0770    8.7050    9.8820 N.3   352  GLU352     -0.1196
     81  CA       -23.3670    9.3740   10.0110 C.3   352  GLU352      0.1783
     82  C        -23.5990   10.3230    8.8410 C.2   352  GLU352      0.2306
     83  O        -22.7230   11.0640    8.4550 O.2   352  GLU352     -0.2863
     84  CB       -23.3900   10.2580   11.3020 C.2   352  GLU352      0.0071
     85  CG       -23.2440    9.5630   12.6060 C.2   352  GLU352      0.0834
     86  CD       -23.3770   10.4180   13.8660 C.2   352  GLU352      0.3877
     87  OE1      -23.9200   11.5520   13.7880 O.co2 352  GLU352     -0.2406
     88  OE2      -22.9740    9.8840   14.8920 O.co2 352  GLU352     -0.2406
     89  N        -27.8330    8.4990    9.7250 N.3   399  TRP399     -0.1241
     90  CA       -28.1620    8.9580   11.0700 C.3   399  TRP399      0.1605
     91  C        -29.6160    9.4330   10.9290 C.2   399  TRP399      0.2264
     92  O        -29.8550   10.3240   10.1000 O.2   399  TRP399     -0.2867
     93  CB       -27.3090   10.1080   11.5600 C.3   399  TRP399      0.0550
     94  CG       -27.7810   10.4970   12.9750 C.ar  399  TRP399      0.0003
     95  CD1      -28.7400   11.4410   13.3140 C.ar  399  TRP399      0.0946
     96  CD2      -27.4180    9.8500   14.1760 C.ar  399  TRP399      0.0152
     97  NE1      -28.9800   11.4160   14.6860 N.ar  399  TRP399     -0.2442
     98  CE2      -28.1700   10.4310   15.2320 C.ar  399  TRP399      0.0810
     99  CE3      -26.4580    8.8520   14.4840 C.ar  399  TRP399      0.0012
    100  CZ2      -27.9910   10.0720   16.5770 C.ar  399  TRP399      0.0191
    101  CZ3      -26.3110    8.5000   15.7900 C.ar  399  TRP399      0.0001
    102  CH2      -27.0700    9.0810   16.8120 C.ar  399  TRP399      0.0015
    103  N        -32.2350   14.1640   20.8710 N.3   406  GLU406     -0.1231
    104  CA       -31.3000   14.9340   20.0810 C.3   406  GLU406      0.1699
    105  C        -30.6370   15.9820   20.9790 C.2   406  GLU406      0.2592
    106  O        -30.7010   17.2190   20.7570 O.2   406  GLU406     -0.2718
    107  CB       -32.0300   15.5920   18.8620 C.3   406  GLU406      0.0402
    108  CG       -31.2260   16.4510   17.9020 C.3   406  GLU406      0.1161
    109  CD       -29.8950   15.8700   17.4930 C.2   406  GLU406      0.3649
    110  OE1      -29.7480   14.6390   17.3430 O.co2 406  GLU406     -0.2457
    111  OE2      -28.9020   16.6590   17.2680 O.co2 406  GLU406     -0.2457
    112  N        -29.9300   15.4640   21.9870 N.am  407  TRP407     -0.1976
    113  CA       -29.0730   16.2700   22.8350 C.3   407  TRP407      0.1640
    114  C        -29.7520   17.5530   23.3140 C.2   407  TRP407      0.2290
    115  O        -30.7740   17.4240   23.9030 O.2   407  TRP407     -0.2864
    116  CB       -27.7610   16.5200   22.0660 C.3   407  TRP407      0.0576
    117  CG       -27.1030   15.1860   21.6250 C.ar  407  TRP407      0.0006
    118  CD1      -26.8410   14.8090   20.3400 C.ar  407  TRP407      0.0946
    119  CD2      -26.6030   14.1060   22.4670 C.ar  407  TRP407      0.0152
    120  NE1      -26.1770   13.6110   20.3090 N.ar  407  TRP407     -0.2442
    121  CE2      -26.0790   13.1350   21.5740 C.ar  407  TRP407      0.0810
    122  CE3      -26.6230   13.8420   23.8530 C.ar  407  TRP407      0.0012
    123  CZ2      -25.4950   11.9450   22.0650 C.ar  407  TRP407      0.0191
    124  CZ3      -26.0410   12.6660   24.3160 C.ar  407  TRP407      0.0001
    125  CH2      -25.4870   11.7630   23.4060 C.ar  407  TRP407      0.0015
    126  N        -34.5220   13.0560   13.6060 N.3   415  TYR415     -0.1241
    127  CA       -33.5820   12.6830   12.5960 C.3   415  TYR415      0.1605
    128  C        -33.8020   11.2630   12.0730 C.2   415  TYR415      0.2264
    129  O        -32.9740   10.8020   11.2800 O.2   415  TYR415     -0.2867
    130  CB       -32.1370   12.7380   13.2270 C.3   415  TYR415      0.0534
    131  CG       -31.4230   14.0690   13.0940 C.ar  415  TYR415     -0.0201
    132  CD1      -31.5150   15.0270   14.0720 C.ar  415  TYR415     -0.0009
    133  CD2      -30.6720   14.3540   11.9900 C.ar  415  TYR415     -0.0009
    134  CE1      -30.8100   16.2330   13.9340 C.ar  415  TYR415      0.0417
    135  CE2      -29.9780   15.5200   11.8500 C.ar  415  TYR415      0.0417
    136  CZ       -30.0260   16.4600   12.8130 C.ar  415  TYR415      0.1957
    137  OH       -29.4120   17.7390   12.6910 O.3   415  TYR415     -0.2866
@<TRIPOS>BOND
     1    60    59    2
     2    72    71    2
     3    59    58    1
     4    71    70    1
     5    58    57    1
     6    58    61    1
     7    83    82    2
     8    82    81    1
     9    70    73    1
    10    70    69    1
    11    73    74    1
    12    61    62    1
    13    89    90    1
    14    80    81    1
    15    63    62   ar
    16    63    65   ar
    17    62    64   ar
    18    81    84    1
    19    92    91    2
    20    75    74    1
    21    75    76    1
    22    65    67   ar
    23    64    66   ar
    24    91    90    1
    25    90    93    1
    26   129   128    2
    27    84    85    2
    28    67    66   ar
    29    67    68    1
    30    76    77    2
    31    93    94    1
    32   135   133   ar
    33   135   136   ar
    34   133   131   ar
    35    78    77    1
    36   128   127    1
    37    77    79    1
    38   127   130    1
    39   127   126    1
    40    85    86    1
    41   137   136    1
    42   136   134   ar
    43    94    95   ar
    44    94    96   ar
    45   131   130    1
    46   131   132   ar
    47    95    97   ar
    48    87    86   ar
    49    86    88   ar
    50   134   132   ar
    51    96    99   ar
    52    96    98   ar
    53    50    48   ar
    54    99   101   ar
    55    97    98   ar
    56    98   100   ar
    57    48    47    1
    58    48    49   ar
    59   101   102   ar
    60    47    46    1
    61    40    39    2
    62   100   102   ar
    63    46    43    1
    64   111   109   ar
    65   110   109   ar
    66    43    42    1
    67    43    44    1
    68   109   108    1
    69    42    36   am
    70    39    41   am
    71    39    38    1
    72   108   107    1
    73    56    55    1
    74    35    36    1
    75    35    38    1
    76    35    34    1
    77    18    19   ar
    78    18    16   ar
    79    36    37    2
    80    44    45    2
    81   107   104    1
    82    19    17   ar
    83    16    15   ar
    84    51    52    1
    85     8     7    2
    86     9     7   am
    87    55    52    1
    88    31    33   ar
    89    31    29   ar
    90    33    32   ar
    91    52    53    1
    92     7     6    1
    93   104   103    1
    94   104   105    1
    95   120   118   ar
    96   120   121   ar
    97   118   117   ar
    98    17    15   ar
    99    15    14    1
   100   106   105    2
   101    29    28   ar
   102    29    27   ar
   103    28    26   ar
   104   105   112   am
   105    32    30   ar
   106     5     6    1
   107     5     2    1
   108    14    11    1
   109    53    54    2
   110   121   123   ar
   111   121   119   ar
   112   117   116    1
   113   117   119   ar
   114    27    30   ar
   115    27    25   ar
   116   112   113    1
   117   123   125   ar
   118   116   113    1
   119    26    25   ar
   120    11    10    1
   121    11    12    1
   122     4     3    2
   123   119   122   ar
   124     3     2    1
   125     2     1    1
   126   113   114    1
   127    25    24    1
   128   114   115    2
   129   125   124   ar
   130    12    13    2
   131    12    20   am
   132   122   124   ar
   133    20    21    1
   134    24    21    1
   135    21    22    1
   136    22    23    2
