@<TRIPOS>MOLECULE
tmp/3wh6A01.pdb
 68 66 0 0 0
SMALL
GASTEIGER

@<TRIPOS>ATOM
      1  N        -29.1240   16.8870   31.3900 N.3    39  SER39      -0.1202
      2  CA       -30.5820   16.8520   30.9840 C.3    39  SER39       0.2020
      3  C        -31.4620   17.2100   32.1450 C.2    39  SER39       0.2619
      4  O        -32.5600   17.7750   31.9160 O.2    39  SER39      -0.2717
      5  CB       -30.9600   15.4390   30.5060 C.3    39  SER39       0.2103
      6  OG       -30.2740   15.2790   29.2890 O.3    39  SER39      -0.2182
      7  N        -31.0800   16.9440   33.3870 N.am   40  HIS40      -0.1961
      8  CA       -31.8820   17.2260   34.5870 C.3    40  HIS40       0.1787
      9  C        -31.5080   18.5850   35.1540 C.2    40  HIS40       0.2621
     10  O        -31.9510   18.9020   36.2410 O.2    40  HIS40      -0.2715
     11  CB       -31.7170   16.1440   35.6220 C.3    40  HIS40       0.0785
     12  CG       -32.4500   14.9020   35.2700 C.ar   40  HIS40       0.0821
     13  ND1      -33.7390   14.6150   35.7130 N.ar   40  HIS40      -0.2267
     14  CD2      -32.1090   13.8900   34.4290 C.ar   40  HIS40       0.1154
     15  CE1      -34.1200   13.4620   35.1740 C.ar   40  HIS40       0.1986
     16  NE2      -33.1550   13.0000   34.3990 N.ar   40  HIS40      -0.2212
     17  N        -30.7490   19.3900   34.4180 N.am   41  THR41      -0.1937
     18  CA       -30.4260   20.7580   34.8230 C.3    41  THR41       0.2013
     19  C        -31.4370   21.6990   34.0880 C.2    41  THR41       0.2484
     20  O        -31.4760   21.7240   32.8870 O.2    41  THR41      -0.2729
     21  CB       -29.0200   21.1560   34.4630 C.3    41  THR41       0.1807
     22  OG1      -28.0990   20.2610   35.1340 O.3    41  THR41      -0.2208
     23  CG2      -28.6750   22.5360   34.8880 C.3    41  THR41       0.0379
     24  N        -32.1790   22.5210   34.8630 N.am   42  PRO42      -0.2715
     25  CA       -33.1540   23.3980   34.2160 C.3    42  PRO42       0.1536
     26  C        -32.5990   24.2690   33.1020 C.2    42  PRO42       0.2599
     27  O        -31.4990   24.9000   33.2680 O.2    42  PRO42      -0.2715
     28  CB       -33.6120   24.2940   35.3750 C.3    42  PRO42       0.0310
     29  CG       -33.5810   23.3850   36.5500 C.3    42  PRO42       0.0237
     30  CD       -32.2720   22.5960   36.3260 C.3    42  PRO42       0.0939
     31  N        -33.2720   24.2230   31.9510 N.am   43  GLY43      -0.1955
     32  CA       -32.9820   25.0360   30.8110 C.3    43  GLY43       0.1869
     33  C        -31.8600   24.5420   29.8580 C.2    43  GLY43       0.2309
     34  O        -31.6320   25.1690   28.8050 O.2    43  GLY43      -0.2863
     35  N        -31.9210   21.6940   28.1420 N.3    45  ILE45      -0.1245
     36  CA       -32.5250   21.0120   27.0260 C.3    45  ILE45       0.1561
     37  C        -33.7490   21.8790   26.5590 C.2    45  ILE45       0.2260
     38  O        -34.4280   22.4600   27.3840 O.2    45  ILE45      -0.2867
     39  CB       -33.0190   19.6000   27.4010 C.3    45  ILE45       0.0252
     40  CG1      -31.9210   18.7880   28.1030 C.3    45  ILE45       0.0019
     41  CG2      -33.4880   18.7940   26.1740 C.3    45  ILE45       0.0019
     42  CD1      -30.6550   18.6520   27.3490 C.3    45  ILE45       0.0001
     43  N        -37.6530   20.4970   27.7800 N.3    48  GLY48      -0.1210
     44  CA       -38.0290   19.8320   28.9990 C.3    48  GLY48       0.1956
     45  C        -37.9150   18.3310   29.0400 C.2    48  GLY48       0.2613
     46  O        -38.3610   17.6840   30.0090 O.2    48  GLY48      -0.2717
     47  N        -37.2630   17.7570   28.0260 N.am   49  THR49      -0.1938
     48  CA       -37.1790   16.3110   27.9930 C.3    49  THR49       0.2028
     49  C        -35.7980   15.8800   28.4570 C.2    49  THR49       0.2642
     50  O        -34.8930   16.6910   28.5810 O.2    49  THR49      -0.2714
     51  CB       -37.4570   15.7650   26.5580 C.3    49  THR49       0.1808
     52  OG1      -36.4990   16.2110   25.5770 O.3    49  THR49      -0.2208
     53  CG2      -38.8550   16.1490   26.0780 C.3    49  THR49       0.0379
     54  N        -35.7220   14.5660   28.6870 N.am   50  THR50      -0.1950
     55  CA       -34.4470   13.9820   29.1260 C.3    50  THR50       0.1897
     56  C        -34.3220   12.6840   28.3800 C.2    50  THR50       0.2313
     57  O        -35.2060   12.2220   27.6880 O.2    50  THR50      -0.2863
     58  CB       -34.3880   13.6680   30.6120 C.3    50  THR50       0.1794
     59  OG1      -35.3030   12.5880   30.9460 O.3    50  THR50      -0.2208
     60  CG2      -34.8110   14.8930   31.4370 C.3    50  THR50       0.0378
     61  N        -34.3120    9.9020   30.0270 N.3    52  ASP52      -0.1239
     62  CA       -34.6550    8.8950   30.9800 C.3    52  ASP52       0.1674
     63  C        -35.3730    7.7030   30.3660 C.2    52  ASP52       0.2266
     64  O        -35.1380    6.5840   30.8520 O.2    52  ASP52      -0.2867
     65  CB       -35.5580    9.4560   32.1090 C.3    52  ASP52       0.1410
     66  CG       -34.8330   10.2710   33.0910 C.2    52  ASP52       0.3668
     67  OD1      -33.5900   10.5270   33.0430 O.co2  52  ASP52      -0.2456
     68  OD2      -35.5310   10.6710   34.0930 O.co2  52  ASP52      -0.2456
@<TRIPOS>BOND
     1    52    51    1
     2    53    51    1
     3    41    39    1
     4    51    48    1
     5    37    36    1
     6    37    38    2
     7    36    39    1
     8    36    35    1
     9    42    40    1
    10    39    40    1
    11    57    56    2
    12    43    44    1
    13    48    47    1
    14    48    49    1
    15    47    45   am
    16    56    55    1
    17    49    50    2
    18    49    54   am
    19    54    55    1
    20    34    33    2
    21    44    45    1
    22    45    46    2
    23    55    58    1
    24     6     5    1
    25    33    32    1
    26    61    62    1
    27    63    64    2
    28    63    62    1
    29     5     2    1
    30    58    59    1
    31    58    60    1
    32    32    31    1
    33    62    65    1
    34     2     1    1
    35     2     3    1
    36     4     3    2
    37    31    26   am
    38    65    66    1
    39     3     7   am
    40    20    19    2
    41    67    66   ar
    42    66    68   ar
    43    26    27    2
    44    26    25    1
    45     7     8    1
    46    19    18    1
    47    19    24   am
    48    25    24    1
    49    25    28    1
    50    16    14   ar
    51    16    15   ar
    52    17    18    1
    53    17     9   am
    54    14    12   ar
    55    21    18    1
    56    21    23    1
    57    21    22    1
    58     8     9    1
    59     8    11    1
    60    24    30    1
    61     9    10    2
    62    15    13   ar
    63    12    11    1
    64    12    13   ar
    65    28    29    1
    66    30    29    1
