@<TRIPOS>MOLECULE
tmp/3wh6A04.pdb
 91 88 0 0 0
SMALL
GASTEIGER

@<TRIPOS>ATOM
      1  N        -16.6170   20.7610    5.7230 N.3   226  PRO226     -0.2102
      2  CA       -15.7920   21.4180    4.6580 C.3   226  PRO226      0.1504
      3  C        -16.1810   22.9060    4.7300 C.2   226  PRO226      0.2576
      4  O        -17.3330   23.2780    4.8520 O.2   226  PRO226     -0.2718
      5  CB       -16.2650   20.7610    3.3650 C.3   226  PRO226      0.0282
      6  CG       -17.6170   20.2810    3.6360 C.3   226  PRO226      0.0208
      7  CD       -17.6220   19.8460    5.1140 C.3   226  PRO226      0.0893
      8  N        -15.1290   23.6970    4.6790 N.am  227  THR227     -0.1939
      9  CA       -15.2250   25.1510    4.8950 C.3   227  THR227      0.2028
     10  C        -14.8010   25.9110    3.6030 C.2   227  THR227      0.2642
     11  O        -13.8320   25.5310    2.9900 O.2   227  THR227     -0.2714
     12  CB       -14.3410   25.4910    6.0680 C.3   227  THR227      0.1808
     13  OG1      -14.8330   24.7510    7.2250 O.3   227  THR227     -0.2208
     14  CG2      -14.3730   26.9370    6.4000 C.3   227  THR227      0.0379
     15  N        -15.5620   26.9380    3.2680 N.am  228  TYR228     -0.1960
     16  CA       -15.3060   27.6710    2.0390 C.3   228  TYR228      0.1756
     17  C        -15.3800   29.1620    2.3320 C.2   228  TYR228      0.2461
     18  O        -16.3200   29.6600    2.9900 O.2   228  TYR228     -0.2730
     19  CB       -16.3450   27.3340    1.0220 C.3   228  TYR228      0.0574
     20  CG       -16.5760   25.8580    0.7610 C.ar  228  TYR228     -0.0198
     21  CD1      -15.9790   25.1860   -0.3470 C.ar  228  TYR228     -0.0009
     22  CD2      -17.3490   25.1110    1.6150 C.ar  228  TYR228     -0.0009
     23  CE1      -16.2110   23.8390   -0.5620 C.ar  228  TYR228      0.0417
     24  CE2      -17.6070   23.7660    1.3760 C.ar  228  TYR228      0.0417
     25  CZ       -16.9770   23.1360    0.3530 C.ar  228  TYR228      0.1957
     26  OH       -17.2660   21.7920    0.0770 O.3   228  TYR228     -0.2866
     27  N        -14.3490   29.9030    1.8670 N.am  229  PRO229     -0.2727
     28  CA       -14.4820   31.3550    2.1400 C.3   229  PRO229      0.1402
     29  C        -15.5530   32.0510    1.3740 C.2   229  PRO229      0.2269
     30  O        -15.7530   31.7400    0.2240 O.2   229  PRO229     -0.2865
     31  CB       -13.1530   31.8580    1.6860 C.3   229  PRO229      0.0296
     32  CG       -12.7120   30.8760    0.6320 C.3   229  PRO229      0.0237
     33  CD       -13.1470   29.5400    1.0990 C.3   229  PRO229      0.0939
     34  N        -10.6360   34.3520    3.4200 N.3   237  VAL237     -0.1245
     35  CA        -9.8170   33.1240    3.3040 C.3   237  VAL237      0.1561
     36  C         -9.1900   32.7390    4.6240 C.2   237  VAL237      0.2260
     37  O         -9.1810   31.5740    4.9980 O.2   237  VAL237     -0.2867
     38  CB        -8.7670   33.2260    2.1510 C.3   237  VAL237      0.0252
     39  CG1       -8.0280   31.9290    2.0210 C.3   237  VAL237      0.0019
     40  CG2       -9.4860   33.5450    0.8130 C.3   237  VAL237      0.0019
     41  N        -11.8330   31.3040    6.8370 N.3   240  ALA240     -0.1231
     42  CA       -12.0990   29.8830    6.4250 C.3   240  ALA240      0.1694
     43  C        -11.0360   28.9680    6.9770 C.2   240  ALA240      0.2591
     44  O        -11.2740   27.8370    7.5060 O.2   240  ALA240     -0.2718
     45  CB       -12.3110   29.7920    4.9530 C.3   240  ALA240      0.0304
     46  N         -9.7550   29.3520    6.8510 N.am  241  ARG241     -0.1980
     47  CA        -8.7260   28.5340    7.3830 C.3   241  ARG241      0.1597
     48  C         -8.7780   28.3000    8.8700 C.2   241  ARG241      0.2287
     49  O         -8.4690   27.2290    9.3240 O.2   241  ARG241     -0.2864
     50  CB        -7.3290   28.9890    7.0030 C.3   241  ARG241      0.0334
     51  CG        -7.0700   28.9530    5.5390 C.3   241  ARG241      0.0492
     52  CD        -5.6170   29.2880    5.2650 C.3   241  ARG241      0.2205
     53  NE        -5.3700   29.5340    3.8320 N.pl3 241  ARG241     -0.0865
     54  CZ        -5.1610   30.7390    3.2830 C.cat 241  ARG241      0.5346
     55  NH1       -5.0870   31.8280    4.0460 N.pl3 241  ARG241      0.1354
     56  NH2       -5.0180   30.8320    1.9420 N.pl3 241  ARG241      0.1354
     57  N        -11.7100   25.9820    9.5420 N.3   244  ASP244     -0.1239
     58  CA       -11.2040   24.6560    9.1600 C.3   244  ASP244      0.1674
     59  C        -10.2330   24.0520   10.1740 C.2   244  ASP244      0.2266
     60  O        -10.2670   22.8400   10.4070 O.2   244  ASP244     -0.2867
     61  CB       -10.6240   24.7270    7.7590 C.3   244  ASP244      0.1410
     62  CG       -10.0080   23.3940    7.2950 C.2   244  ASP244      0.3668
     63  OD1      -10.8500   22.4810    7.0100 O.co2 244  ASP244     -0.2456
     64  OD2       -8.8020   23.2210    7.1730 O.co2 244  ASP244     -0.2456
     65  N        -16.3510   16.8620   -1.5590 N.3   334  ASP334     -0.1225
     66  CA       -15.1060   17.6470   -1.3420 C.3   334  ASP334      0.1805
     67  C        -14.3250   17.0970   -0.1970 C.2   334  ASP334      0.2597
     68  O        -13.0890   16.9510   -0.2480 O.2   334  ASP334     -0.2718
     69  CB       -15.3680   19.1580   -1.1350 C.3   334  ASP334      0.1424
     70  CG       -15.9120   19.8840   -2.3810 C.2   334  ASP334      0.3668
     71  OD1      -15.7510   19.3760   -3.5480 O.co2 334  ASP334     -0.2456
     72  OD2      -16.4870   20.9910   -2.2200 O.co2 334  ASP334     -0.2456
     73  N        -14.9890   16.7890    0.9540 N.am  335  ILE335     -0.1980
     74  CA       -14.2890   16.3700    2.1210 C.3   335  ILE335      0.1595
     75  C        -13.6330   15.0050    1.9280 C.2   335  ILE335      0.2287
     76  O        -12.5690   14.7470    2.4140 O.2   335  ILE335     -0.2864
     77  CB       -15.1720   16.4950    3.4100 C.3   335  ILE335      0.0276
     78  CG1      -14.2510   16.5950    4.5840 C.3   335  ILE335      0.0022
     79  CG2      -16.1300   15.3240    3.5140 C.3   335  ILE335      0.0022
     80  CD1      -13.6360   17.9870    4.7800 C.3   335  ILE335      0.0001
     81  N        -10.5700   15.4090   -0.2520 N.3   338  ARG338     -0.1245
     82  CA        -9.5000   15.9040    0.6230 C.3   338  ARG338      0.1563
     83  C         -8.9130   14.8500    1.4540 C.2   338  ARG338      0.2260
     84  O         -7.7350   14.6470    1.5750 O.2   338  ARG338     -0.2867
     85  CB       -10.0710   17.0260    1.5170 C.3   338  ARG338      0.0307
     86  CG        -9.1050   17.5590    2.4960 C.3   338  ARG338      0.0489
     87  CD        -9.6620   18.6080    3.3350 C.3   338  ARG338      0.2205
     88  NE        -8.6840   19.2500    4.1940 N.pl3 338  ARG338     -0.0865
     89  CZ        -9.0890   20.1020    5.1490 C.cat 338  ARG338      0.5346
     90  NH1      -10.3730   20.3400    5.3320 N.pl3 338  ARG338      0.1354
     91  NH2       -8.1930   20.6510    5.9310 N.pl3 338  ARG338      0.1354
@<TRIPOS>BOND
     1    71    70   ar
     2    70    72   ar
     3    70    69    1
     4    65    66    1
     5    66    69    1
     6    66    67    1
     7    23    21   ar
     8    23    25   ar
     9    21    20   ar
    10    81    82    1
    11    68    67    2
    12    67    73   am
    13    26    25    1
    14    30    29    2
    15    25    24   ar
    16    82    83    1
    17    82    85    1
    18    32    33    1
    19    32    31    1
    20    20    19    1
    21    20    22   ar
    22    40    38    1
    23    73    74    1
    24    19    16    1
    25    33    27    1
    26    29    28    1
    27    24    22   ar
    28    83    84    2
    29    85    86    1
    30    31    28    1
    31    27    28    1
    32    27    17   am
    33    75    74    1
    34    75    76    2
    35    56    54    1
    36    39    38    1
    37    16    17    1
    38    16    15    1
    39    74    77    1
    40    38    35    1
    41    17    18    2
    42    86    87    1
    43    11    10    2
    44    15    10   am
    45    54    53    2
    46    54    55    1
    47    35    34    1
    48    35    36    1
    49    87    88    1
    50     5     6    1
    51     5     2    1
    52    77    79    1
    53    77    78    1
    54    10     9    1
    55     6     7    1
    56    53    52    1
    57    88    89    2
    58    78    80    1
    59    36    37    2
    60     2     3    1
    61     2     1    1
    62     8     3   am
    63     8     9    1
    64     3     4    2
    65     9    12    1
    66    45    42    1
    67     7     1    1
    68    89    90    1
    69    89    91    1
    70    52    51    1
    71    51    50    1
    72    12    14    1
    73    12    13    1
    74    42    41    1
    75    42    43    1
    76    46    43   am
    77    46    47    1
    78    43    44    2
    79    50    47    1
    80    63    62   ar
    81    64    62   ar
    82    62    61    1
    83    47    48    1
    84    61    58    1
    85    48    49    2
    86    58    57    1
    87    58    59    1
    88    59    60    2
