@<TRIPOS>MOLECULE
tmp/3wh8A01.pdb
 131 131 0 0 0
SMALL
GASTEIGER

@<TRIPOS>ATOM
      1  N         42.5180   46.7510    0.4330 N.3    16  GLN16      -0.1245
      2  CA        42.0050   47.8080    1.3070 C.3    16  GLN16       0.1566
      3  C         42.9460   49.0140    1.3980 C.2    16  GLN16       0.2260
      4  O         42.4900   50.1010    1.6620 O.2    16  GLN16      -0.2867
      5  CB        41.6200   47.2860    2.6530 C.3    16  GLN16       0.0367
      6  CG        40.6740   46.1610    2.5450 C.3    16  GLN16       0.0905
      7  CD        40.1090   45.7300    3.8950 C.2    16  GLN16       0.2608
      8  OE1       40.5850   44.7660    4.4790 O.2    16  GLN16      -0.2717
      9  NE2       39.1180   46.5180    4.4500 N.am   16  GLN16      -0.0878
     10  N         43.4430   37.5000    0.8240 N.3   117  HIS117     -0.1226
     11  CA        42.5110   38.3170    1.5930 C.3   117  HIS117      0.1752
     12  C         41.5880   38.9420    0.5780 C.2   117  HIS117      0.2596
     13  O         41.4770   40.1830    0.4570 O.2   117  HIS117     -0.2718
     14  CB        43.2970   39.3350    2.4640 C.3   117  HIS117      0.0759
     15  CG        42.4970   39.9380    3.5680 C.ar  117  HIS117      0.0818
     16  ND1       42.9440   39.9800    4.8690 N.ar  117  HIS117     -0.2268
     17  CD2       41.2370   40.5020    3.5780 C.ar  117  HIS117      0.1154
     18  CE1       42.0530   40.6400    5.6140 C.ar  117  HIS117      0.1986
     19  NE2       41.0040   40.9570    4.8570 N.ar  117  HIS117     -0.2212
     20  N         40.9650   38.0620   -0.1730 N.am  118  TRP118     -0.1976
     21  CA        39.7310   38.2970   -0.9670 C.3   118  TRP118      0.1640
     22  C         39.8830   38.8030   -2.4270 C.2   118  TRP118      0.2290
     23  O         38.9040   38.8950   -3.1370 O.2   118  TRP118     -0.2864
     24  CB        38.7280   39.2380   -0.2610 C.3   118  TRP118      0.0576
     25  CG        38.3330   38.8350    1.1480 C.ar  118  TRP118      0.0006
     26  CD1       38.7000   37.6180    1.8450 C.ar  118  TRP118      0.0946
     27  CD2       37.5320   39.5580    2.0330 C.ar  118  TRP118      0.0152
     28  NE1       38.1450   37.6050    3.0840 N.ar  118  TRP118     -0.2442
     29  CE2       37.4100   38.7690    3.2420 C.ar  118  TRP118      0.0810
     30  CE3       36.7960   40.7470    1.9210 C.ar  118  TRP118      0.0012
     31  CZ2       36.6350   39.1910    4.3120 C.ar  118  TRP118      0.0191
     32  CZ3       36.0590   41.1460    3.0000 C.ar  118  TRP118      0.0001
     33  CH2       35.9880   40.3740    4.1950 C.ar  118  TRP118      0.0015
     34  N         42.1470   34.4700    4.6950 N.3   161  ASN161     -0.1225
     35  CA        41.4100   35.2570    5.6740 C.3   161  ASN161      0.1785
     36  C         39.9010   35.0990    5.4600 C.2   161  ASN161      0.2597
     37  O         39.3460   35.4420    4.4110 O.2   161  ASN161     -0.2718
     38  CB        41.8000   36.7300    5.5020 C.3   161  ASN161      0.1169
     39  CG        41.0200   37.6180    6.3970 C.2   161  ASN161      0.2627
     40  OD1       41.3690   37.7630    7.5690 O.2   161  ASN161     -0.2716
     41  ND2       39.9060   38.1410    5.9040 N.am  161  ASN161     -0.0877
     42  N         39.2270   34.6050    6.4770 N.am  162  GLU162     -0.1979
     43  CA        37.7350   34.6100    6.5660 C.3   162  GLU162      0.1602
     44  C         37.1150   33.9550    5.3410 C.2   162  GLU162      0.2287
     45  O         36.3410   34.5890    4.5950 O.2   162  GLU162     -0.2864
     46  CB        37.1630   36.0320    6.8120 C.3   162  GLU162      0.0415
     47  CG        37.7560   36.7140    8.0490 C.3   162  GLU162      0.1163
     48  CD        37.1710   38.0700    8.3510 C.2   162  GLU162      0.3649
     49  OE1       36.5110   38.6190    7.4750 O.co2 162  GLU162     -0.2457
     50  OE2       37.3500   38.5730    9.4590 O.co2 162  GLU162     -0.2457
     51  N         34.8850   40.2580   16.3520 N.3   289  TYR289     -0.1241
     52  CA        34.2210   41.5650   16.4120 C.3   289  TYR289      0.1605
     53  C         32.9770   41.5220   17.2450 C.2   289  TYR289      0.2264
     54  O         32.7010   42.4260   18.0390 O.2   289  TYR289     -0.2867
     55  CB        33.8730   42.0460   15.0070 C.3   289  TYR289      0.0534
     56  CG        35.0820   42.3690   14.1660 C.ar  289  TYR289     -0.0201
     57  CD1       35.5920   43.6870   14.1160 C.ar  289  TYR289     -0.0009
     58  CD2       35.7330   41.3980   13.4420 C.ar  289  TYR289     -0.0009
     59  CE1       36.7760   43.9690   13.4380 C.ar  289  TYR289      0.0417
     60  CE2       36.9350   41.6910   12.7050 C.ar  289  TYR289      0.0417
     61  CZ        37.4240   42.9920   12.7090 C.ar  289  TYR289      0.1957
     62  OH        38.5560   43.3300   11.9770 O.3   289  TYR289     -0.2866
     63  N         28.5670   48.0000   14.4540 N.3   319  ARG319     -0.1245
     64  CA        28.3930   46.7420   15.1980 C.3   319  ARG319      0.1563
     65  C         27.9790   46.9310   16.6100 C.2   319  ARG319      0.2260
     66  O         28.1490   48.0240   17.1920 O.2   319  ARG319     -0.2867
     67  CB        29.7340   45.9880   15.1890 C.3   319  ARG319      0.0307
     68  CG        30.1860   45.5650   13.8560 C.3   319  ARG319      0.0489
     69  CD        31.5090   44.7790   13.9020 C.3   319  ARG319      0.2205
     70  NE        32.2080   44.6830   12.5720 N.pl3 319  ARG319     -0.0865
     71  CZ        32.2310   43.6080   11.7760 C.cat 319  ARG319      0.5346
     72  NH1       31.4650   42.5640   11.9970 N.pl3 319  ARG319      0.1354
     73  NH2       32.8890   43.6370   10.6550 N.pl3 319  ARG319      0.1354
     74  N         42.6350   39.6830   14.1710 N.3   346  GLU346     -0.1245
     75  CA        41.9270   40.9700   14.0820 C.3   346  GLU346      0.1567
     76  C         41.0020   41.1600   15.2960 C.2   346  GLU346      0.2260
     77  O         40.2330   40.2640   15.6660 O.2   346  GLU346     -0.2867
     78  CB        41.0310   41.0630   12.7630 C.3   346  GLU346      0.0388
     79  CG        41.7330   40.9510   11.4190 C.3   346  GLU346      0.1160
     80  CD        40.8600   41.1170   10.2670 C.2   346  GLU346      0.3649
     81  OE1       39.6990   41.6530   10.4660 O.co2 346  GLU346     -0.2457
     82  OE2       41.3050   40.6950    9.1300 O.co2 346  GLU346     -0.2457
     83  N         42.7590   45.5170   14.2270 N.3   393  TRP393     -0.1241
     84  CA        42.2460   45.8970   12.9170 C.3   393  TRP393      0.1605
     85  C         41.7370   47.3170   13.1130 C.2   393  TRP393      0.2264
     86  O         40.8460   47.4840   13.9430 O.2   393  TRP393     -0.2867
     87  CB        41.1040   45.0440   12.4340 C.3   393  TRP393      0.0550
     88  CG        40.7600   45.4510   11.0150 C.ar  393  TRP393      0.0003
     89  CD1       39.8080   46.3470   10.6650 C.ar  393  TRP393      0.0946
     90  CD2       41.4140   45.0710    9.7990 C.ar  393  TRP393      0.0152
     91  NE1       39.8050   46.5280    9.3170 N.ar  393  TRP393     -0.2442
     92  CE2       40.7920   45.7530    8.7610 C.ar  393  TRP393      0.0810
     93  CE3       42.4060   44.1200    9.4750 C.ar  393  TRP393      0.0012
     94  CZ2       41.1650   45.6180    7.4600 C.ar  393  TRP393      0.0191
     95  CZ3       42.7440   43.9790    8.1900 C.ar  393  TRP393      0.0001
     96  CH2       42.1340   44.7210    7.1940 C.ar  393  TRP393      0.0015
     97  N         36.9130   49.9130    3.2010 N.3   400  GLU400     -0.1231
     98  CA        36.1050   48.9470    3.9630 C.3   400  GLU400      0.1699
     99  C         35.0350   48.3190    3.0640 C.2   400  GLU400      0.2592
    100  O         33.8150   48.3820    3.3450 O.2   400  GLU400     -0.2718
    101  CB        35.5820   49.5970    5.2620 C.3   400  GLU400      0.0402
    102  CG        34.7070   48.7380    6.1900 C.3   400  GLU400      0.1161
    103  CD        35.2820   47.4250    6.5450 C.2   400  GLU400      0.3649
    104  OE1       36.5420   47.3180    6.7080 O.co2 400  GLU400     -0.2457
    105  OE2       34.4890   46.4580    6.7310 O.co2 400  GLU400     -0.2457
    106  N         35.5410   47.6530    2.0080 N.am  401  TRP401     -0.1976
    107  CA        34.7440   46.7400    1.1870 C.3   401  TRP401      0.1640
    108  C         33.4450   47.4180    0.7180 C.2   401  TRP401      0.2290
    109  O         33.5510   48.5170    0.1220 O.2   401  TRP401     -0.2864
    110  CB        34.4950   45.4400    2.0080 C.3   401  TRP401      0.0576
    111  CG        35.8090   44.8140    2.3980 C.ar  401  TRP401      0.0006
    112  CD1       36.1810   44.5050    3.6720 C.ar  401  TRP401      0.0946
    113  CD2       36.8900   44.4010    1.5600 C.ar  401  TRP401      0.0152
    114  NE1       37.4090   43.9100    3.6740 N.ar  401  TRP401     -0.2442
    115  CE2       37.8630   43.8010    2.3990 C.ar  401  TRP401      0.0810
    116  CE3       37.1080   44.3970    0.1880 C.ar  401  TRP401      0.0012
    117  CZ2       39.0730   43.2730    1.9190 C.ar  401  TRP401      0.0191
    118  CZ3       38.3220   43.8780   -0.2900 C.ar  401  TRP401      0.0001
    119  CH2       39.2820   43.3140    0.5660 C.ar  401  TRP401      0.0015
    120  N         38.1570   52.0950   10.3970 N.3   409  TYR409     -0.1241
    121  CA        38.5140   51.0820   11.4230 C.3   409  TYR409      0.1605
    122  C         39.9070   51.3170   11.9290 C.2   409  TYR409      0.2264
    123  O         40.3770   50.5590   12.7730 O.2   409  TYR409     -0.2867
    124  CB        38.4590   49.6600   10.8130 C.3   409  TYR409      0.0534
    125  CG        37.1300   48.9650   10.9290 C.ar  409  TYR409     -0.0201
    126  CD1       36.1740   49.0160    9.9160 C.ar  409  TYR409     -0.0009
    127  CD2       36.8530   48.2020   12.0380 C.ar  409  TYR409     -0.0009
    128  CE1       34.9440   48.3520   10.0140 C.ar  409  TYR409      0.0417
    129  CE2       35.6560   47.5330   12.1490 C.ar  409  TYR409      0.0417
    130  CZ        34.7000   47.5470   11.1280 C.ar  409  TYR409      0.1957
    131  OH        33.4620   46.9230   11.3540 O.3   409  TYR409     -0.2866
@<TRIPOS>BOND
     1    23    22    2
     2    22    21    1
     3    21    24    1
     4    21    20    1
     5   118   116   ar
     6   118   119   ar
     7    24    25    1
     8    20    12   am
     9   109   108    2
    10   116   113   ar
    11     1     2    1
    12    13    12    2
    13   119   117   ar
    14    12    11    1
    15   108   107    1
    16    10    11    1
    17    25    26   ar
    18    25    27   ar
    19   107   110    1
    20   107   106    1
    21     2     3    1
    22     2     5    1
    23     3     4    2
    24   113   111   ar
    25   113   115   ar
    26    11    14    1
    27    26    28   ar
    28   117   115   ar
    29    30    27   ar
    30    30    32   ar
    31   110   111    1
    32   106    99   am
    33    27    29   ar
    34   111   112   ar
    35   115   114   ar
    36    14    15    1
    37     6     5    1
    38     6     7    1
    39    32    33   ar
    40    99   100    2
    41    99    98    1
    42    28    29   ar
    43    97    98    1
    44    29    31   ar
    45    15    17   ar
    46    15    16   ar
    47    17    19   ar
    48   112   114   ar
    49     7     9   am
    50     7     8    2
    51    98   101    1
    52    33    31   ar
    53    37    36    2
    54    45    44    2
    55    34    35    1
    56    19    18   ar
    57    16    18   ar
    58   101   102    1
    59    44    43    1
    60    36    35    1
    61    36    42   am
    62    38    35    1
    63    38    39    1
    64    41    39   am
    65   102   103    1
    66    39    40    2
    67    42    43    1
    68   103   104   ar
    69   103   105   ar
    70    43    46    1
    71    46    47    1
    72    96    94   ar
    73    96    95   ar
    74    94    92   ar
    75    49    48   ar
    76    47    48    1
    77    95    93   ar
    78    48    50   ar
    79    92    91   ar
    80    92    90   ar
    81    82    80   ar
    82    91    89   ar
    83    93    90   ar
    84    90    88   ar
    85   126   128   ar
    86   126   125   ar
    87   128   130   ar
    88    80    81   ar
    89    80    79    1
    90   120   121    1
    91    73    71    1
    92    89    88   ar
    93   124   125    1
    94   124   121    1
    95   125   127   ar
    96    88    87    1
    97   130   131    1
    98   130   129   ar
    99    79    78    1
   100   121   122    1
   101    71    72    1
   102    71    70    2
   103   122   123    2
   104    62    61    1
   105   127   129   ar
   106    87    84    1
   107    70    69    1
   108    60    61   ar
   109    60    58   ar
   110    61    59   ar
   111    78    75    1
   112    84    85    1
   113    84    83    1
   114    85    86    2
   115    59    57   ar
   116    58    56   ar
   117    68    69    1
   118    68    67    1
   119    75    74    1
   120    75    76    1
   121    57    56   ar
   122    56    55    1
   123    63    64    1
   124    55    52    1
   125    67    64    1
   126    64    65    1
   127    76    77    2
   128    51    52    1
   129    52    53    1
   130    65    66    2
   131    53    54    2
