@<TRIPOS>MOLECULE
tmp/3wh9A01.pdb
 112 109 0 0 0
SMALL
GASTEIGER

@<TRIPOS>ATOM
      1  N        -25.8710   -6.1770   21.0420 N.3    54  TRP54      -0.1241
      2  CA       -27.0920   -5.9940   21.8510 C.3    54  TRP54       0.1605
      3  C        -27.6820   -7.3920   22.0790 C.2    54  TRP54       0.2264
      4  O        -27.9580   -8.1340   21.1170 O.2    54  TRP54      -0.2867
      5  CB       -28.1800   -5.1890   21.1280 C.3    54  TRP54       0.0550
      6  CG       -27.9620   -3.6830   21.0080 C.ar   54  TRP54       0.0003
      7  CD1      -28.8570   -2.8190   20.4120 C.ar   54  TRP54       0.0946
      8  CD2      -26.9190   -2.8750   21.5630 C.ar   54  TRP54       0.0152
      9  NE1      -28.4140   -1.5050   20.5800 N.ar   54  TRP54      -0.2442
     10  CE2      -27.2400   -1.5220   21.2790 C.ar   54  TRP54       0.0810
     11  CE3      -25.7170   -3.1450   22.2880 C.ar   54  TRP54       0.0012
     12  CZ2      -26.4250   -0.4430   21.6660 C.ar   54  TRP54       0.0191
     13  CZ3      -24.9040   -2.0690   22.6720 C.ar   54  TRP54       0.0001
     14  CH2      -25.2580   -0.7170   22.3640 C.ar   54  TRP54       0.0015
     15  N        -31.7260   -1.8890   26.8500 N.3   110  ASN110     -0.1240
     16  CA       -31.1870   -0.5780   26.4850 C.3   110  ASN110      0.1653
     17  C        -31.7500    0.4560   27.4550 C.2   110  ASN110      0.2266
     18  O        -32.9100    0.3690   27.8240 O.2   110  ASN110     -0.2867
     19  CB       -31.6770   -0.2050   25.0950 C.3   110  ASN110      0.1155
     20  CG       -30.7630    0.7970   24.4250 C.2   110  ASN110      0.2627
     21  OD1      -29.8410    1.2910   25.0380 O.2   110  ASN110     -0.2716
     22  ND2      -31.0210    1.0680   23.1210 N.am  110  ASN110     -0.0877
     23  N        -31.7520    3.5000   26.3480 N.3   112  TRP112     -0.1241
     24  CA       -32.4340    4.2730   25.2850 C.3   112  TRP112      0.1605
     25  C        -33.6110    3.5530   24.6700 C.2   112  TRP112      0.2264
     26  O        -33.8250    2.3440   24.8930 O.2   112  TRP112     -0.2867
     27  CB       -31.4370    4.6690   24.1720 C.3   112  TRP112      0.0550
     28  CG       -30.2600    5.4350   24.7050 C.ar  112  TRP112      0.0003
     29  CD1      -28.9630    4.9280   24.8600 C.ar  112  TRP112      0.0946
     30  CD2      -30.2370    6.7310   25.3000 C.ar  112  TRP112      0.0152
     31  NE1      -28.1830    5.8340   25.5160 N.ar  112  TRP112     -0.2442
     32  CE2      -28.9270    6.9490   25.7940 C.ar  112  TRP112      0.0810
     33  CE3      -31.1980    7.7420   25.4600 C.ar  112  TRP112      0.0012
     34  CZ2      -28.5470    8.1140   26.4380 C.ar  112  TRP112      0.0191
     35  CZ3      -30.8270    8.9040   26.1120 C.ar  112  TRP112      0.0001
     36  CH2      -29.5240    9.0910   26.5970 C.ar  112  TRP112      0.0015
     37  N        -34.1780    2.8120   21.5110 N.3   114  ASP114     -0.1239
     38  CA       -33.8670    1.9480   20.3710 C.3   114  ASP114      0.1674
     39  C        -33.9580    0.4900   20.7890 C.2   114  ASP114      0.2266
     40  O        -33.3620    0.0640   21.7780 O.2   114  ASP114     -0.2867
     41  CB       -32.4710    2.3250   19.8580 C.3   114  ASP114      0.1410
     42  CG       -32.3670    3.8290   19.6710 C.2   114  ASP114      0.3668
     43  OD1      -33.0760    4.3310   18.7390 O.co2 114  ASP114     -0.2456
     44  OD2      -31.6480    4.4840   20.5010 O.co2 114  ASP114     -0.2456
     45  N        -27.3180   -1.1850   28.2780 N.3   167  ASN167     -0.1225
     46  CA       -26.5530   -0.1890   27.5210 C.3   167  ASN167      0.1785
     47  C        -26.8330    1.2000   28.0490 C.2   167  ASN167      0.2597
     48  O        -27.9710    1.6730   28.0140 O.2   167  ASN167     -0.2718
     49  CB       -26.9250   -0.2210   26.0410 C.3   167  ASN167      0.1169
     50  CG       -26.1780    0.8560   25.2700 C.2   167  ASN167      0.2627
     51  OD1      -24.9530    0.9460   25.3460 O.2   167  ASN167     -0.2716
     52  ND2      -26.9160    1.7080   24.5080 N.am  167  ASN167     -0.0877
     53  N        -25.7750    1.8420   28.5680 N.am  168  GLU168     -0.1979
     54  CA       -25.8180    3.2260   29.0420 C.3   168  GLU168      0.1602
     55  C        -26.9230    3.5470   30.0610 C.2   168  GLU168      0.2287
     56  O        -27.6320    4.5460   29.9270 O.2   168  GLU168     -0.2864
     57  CB       -25.8480    4.2050   27.8500 C.3   168  GLU168      0.0415
     58  CG       -24.6570    3.9660   26.8780 C.3   168  GLU168      0.1163
     59  CD       -24.4200    5.1060   25.8940 C.2   168  GLU168      0.3649
     60  OE1      -25.3940    5.8250   25.5190 O.co2 168  GLU168     -0.2457
     61  OE2      -23.2370    5.3390   25.4720 O.co2 168  GLU168     -0.2457
     62  N        -17.6880   10.3520   24.2030 N.3   243  TYR243     -0.1241
     63  CA       -18.2960   11.1130   23.0940 C.3   243  TYR243      0.1605
     64  C        -18.2210   12.5910   23.3870 C.2   243  TYR243      0.2264
     65  O        -19.2470   13.2180   23.7550 O.2   243  TYR243     -0.2867
     66  CB       -19.7770   10.7170   22.8970 C.3   243  TYR243      0.0534
     67  CG       -19.8890    9.2690   22.4310 C.ar  243  TYR243     -0.0201
     68  CD1      -19.7080    8.9560   21.0640 C.ar  243  TYR243     -0.0009
     69  CD2      -20.2180    8.2530   23.3000 C.ar  243  TYR243     -0.0009
     70  CE1      -19.8690    7.6200   20.5870 C.ar  243  TYR243      0.0417
     71  CE2      -20.3840    6.9080   22.8520 C.ar  243  TYR243      0.0417
     72  CZ       -20.2040    6.6290   21.4810 C.ar  243  TYR243      0.1957
     73  OH       -20.4030    5.3940   20.9270 O.3   243  TYR243     -0.2866
     74  N        -17.0720    2.2230   24.4720 N.3   276  GLU276     -0.1245
     75  CA       -17.5290    2.9030   23.2590 C.3   276  GLU276      0.1567
     76  C        -16.7740    4.2320   23.1230 C.2   276  GLU276      0.2260
     77  O        -16.4680    4.9060   24.1370 O.2   276  GLU276     -0.2867
     78  CB       -19.0020    3.3320   23.3140 C.3   276  GLU276      0.0388
     79  CG       -20.0150    2.1880   23.3770 C.3   276  GLU276      0.1160
     80  CD       -21.4350    2.7240   23.2090 C.2   276  GLU276      0.3649
     81  OE1      -21.5700    3.8460   22.6950 O.co2 276  GLU276     -0.2457
     82  OE2      -22.3710    2.0310   23.5940 O.co2 276  GLU276     -0.2457
     83  N        -16.7430    2.5030   18.7300 N.3   306  TRP306     -0.1241
     84  CA       -18.1060    2.4570   18.2390 C.3   306  TRP306      0.1605
     85  C        -18.0160    3.1040   16.8580 C.2   306  TRP306      0.2264
     86  O        -17.7090    4.3170   16.7700 O.2   306  TRP306     -0.2867
     87  CB       -19.0180    3.3170   19.1300 C.3   306  TRP306      0.0550
     88  CG       -20.4230    3.3310   18.5910 C.ar  306  TRP306      0.0003
     89  CD1      -20.9340    4.1690   17.6160 C.ar  306  TRP306      0.0946
     90  CD2      -21.4940    2.4350   18.9530 C.ar  306  TRP306      0.0152
     91  NE1      -22.2450    3.8160   17.3480 N.ar  306  TRP306     -0.2442
     92  CE2      -22.6200    2.7710   18.1480 C.ar  306  TRP306      0.0810
     93  CE3      -21.6190    1.3910   19.8860 C.ar  306  TRP306      0.0012
     94  CZ2      -23.8310    2.0830   18.2460 C.ar  306  TRP306      0.0191
     95  CZ3      -22.8270    0.7110   19.9890 C.ar  306  TRP306      0.0001
     96  CH2      -23.9270    1.0650   19.1580 C.ar  306  TRP306      0.0015
     97  N        -23.7950    5.5410   11.2050 N.3   320  ASP320     -0.1239
     98  CA       -24.2640    6.6480   11.9970 C.3   320  ASP320      0.1674
     99  C        -23.2160    7.7480   12.0400 C.2   320  ASP320      0.2266
    100  O        -23.2650    8.6380   12.9100 O.2   320  ASP320     -0.2867
    101  CB       -24.5990    6.1630   13.4120 C.3   320  ASP320      0.1410
    102  CG       -23.3570    5.7080   14.1990 C.2   320  ASP320      0.3668
    103  OD1      -22.2960    5.4670   13.5860 O.co2 320  ASP320     -0.2456
    104  OD2      -23.5050    5.5950   15.4470 O.co2 320  ASP320     -0.2456
    105  N        -20.1400    7.3320   12.8620 N.3   322  ASN322     -0.1240
    106  CA       -19.0560    6.8440   13.7090 C.3   322  ASN322      0.1653
    107  C        -18.4930    5.5520   13.1120 C.2   322  ASN322      0.2266
    108  O        -17.3710    5.1410   13.4350 O.2   322  ASN322     -0.2867
    109  CB       -19.5860    6.4830   15.0930 C.3   322  ASN322      0.1155
    110  CG       -20.1100    7.6790   15.8780 C.2   322  ASN322      0.2627
    111  OD1      -21.2980    7.7230   16.2810 O.2   322  ASN322     -0.2716
    112  ND2      -19.2660    8.6320   16.0950 N.am  322  ASN322     -0.0877
@<TRIPOS>BOND
     1    97    98    1
     2    98    99    1
     3    98   101    1
     4    99   100    2
     5   105   106    1
     6   107   108    2
     7   107   106    1
     8   101   102    1
     9   103   102   ar
    10   106   109    1
    11   102   104   ar
    12   109   110    1
    13   110   112   am
    14   110   111    2
    15    86    85    2
    16    85    84    1
    17    91    89   ar
    18    91    92   ar
    19    89    88   ar
    20    92    94   ar
    21    92    90   ar
    22    84    83    1
    23    84    87    1
    24    94    96   ar
    25    88    90   ar
    26    88    87    1
    27    43    42   ar
    28    90    93   ar
    29    96    95   ar
    30    42    41    1
    31    42    44   ar
    32    41    38    1
    33    93    95   ar
    34    38    39    1
    35    38    37    1
    36     7     9   ar
    37     7     6   ar
    38     9    10   ar
    39    70    68   ar
    40    70    72   ar
    41    39    40    2
    42    73    72    1
    43     6     5    1
    44     6     8   ar
    45     1     2    1
    46    68    67   ar
    47     4     3    2
    48     5     2    1
    49    10     8   ar
    50    10    12   ar
    51    72    71   ar
    52     8    11   ar
    53    12    14   ar
    54     2     3    1
    55    11    13   ar
    56    14    13   ar
    57    67    66    1
    58    67    69   ar
    59    81    80   ar
    60    71    69   ar
    61    66    63    1
    62    63    64    1
    63    63    62    1
    64    22    20   am
    65    76    75    1
    66    76    77    2
    67    80    79    1
    68    80    82   ar
    69    75    78    1
    70    75    74    1
    71    78    79    1
    72    64    65    2
    73    27    28    1
    74    27    24    1
    75    20    21    2
    76    20    19    1
    77    52    50   am
    78    25    26    2
    79    25    24    1
    80    28    29   ar
    81    28    30   ar
    82    29    31   ar
    83    19    16    1
    84    50    51    2
    85    50    49    1
    86    24    23    1
    87    30    33   ar
    88    30    32   ar
    89    33    35   ar
    90    61    59   ar
    91    31    32   ar
    92    60    59   ar
    93    32    34   ar
    94    59    58    1
    95    49    46    1
    96    35    36   ar
    97    34    36   ar
    98    16    15    1
    99    16    17    1
   100    58    57    1
   101    17    18    2
   102    46    47    1
   103    46    45    1
   104    57    54    1
   105    48    47    2
   106    47    53   am
   107    53    54    1
   108    54    55    1
   109    56    55    2
