@<TRIPOS>MOLECULE
tmp/3whaB00.pdb
 156 145 0 0 0
SMALL
GASTEIGER

@<TRIPOS>ATOM
      1  N          8.7410   13.6170  -31.5170 N.3    33  LEU33      -0.1245
      2  CA         7.9270   14.8140  -31.2730 C.3    33  LEU33       0.1561
      3  C          7.8230   15.0920  -29.7630 C.2    33  LEU33       0.2260
      4  O          7.8820   16.2640  -29.3470 O.2    33  LEU33      -0.2867
      5  CB         6.5440   14.6560  -31.9060 C.3    33  LEU33       0.0270
      6  CG         6.5890   14.4610  -33.4270 C.3    33  LEU33       0.0019
      7  CD1        5.1880   14.2100  -33.9530 C.3    33  LEU33       0.0001
      8  CD2        7.1720   15.6910  -34.1730 C.3    33  LEU33       0.0001
      9  N         11.0120   16.8020  -28.7330 N.3    36  ASN36      -0.1225
     10  CA        11.0220   18.2110  -29.0940 C.3    36  ASN36       0.1785
     11  C         10.1570   19.0360  -28.1510 C.2    36  ASN36       0.2597
     12  O         10.5290   20.1610  -27.7920 O.2    36  ASN36      -0.2718
     13  CB        10.5370   18.4320  -30.5190 C.3    36  ASN36       0.1169
     14  CG        11.5310   18.0730  -31.5870 C.2    36  ASN36       0.2627
     15  OD1       12.7040   17.7540  -31.3190 O.2    36  ASN36      -0.2716
     16  ND2       11.0670   18.0940  -32.8180 N.am   36  ASN36      -0.0877
     17  N          8.9910   18.4870  -27.7400 N.am   37  SER37      -0.1952
     18  CA         8.1320   19.1690  -26.7930 C.3    37  SER37       0.1924
     19  C          8.8270   19.3080  -25.4440 C.2    37  SER37       0.2314
     20  O          8.7820   20.3820  -24.8590 O.2    37  SER37      -0.2863
     21  CB         6.8390   18.4040  -26.6110 C.3    37  SER37       0.2116
     22  OG         6.0220   18.5250  -27.7540 O.3    37  SER37      -0.2180
     23  N         12.0500   19.4750  -24.9050 N.3    39  ASP39      -0.1225
     24  CA        13.0950   20.4890  -25.0480 C.3    39  ASP39       0.1805
     25  C         12.4950   21.8880  -25.0120 C.2    39  ASP39       0.2597
     26  O         13.0740   22.7940  -24.3980 O.2    39  ASP39      -0.2718
     27  CB        13.8420   20.3030  -26.3460 C.3    39  ASP39       0.1424
     28  CG        14.6630   19.0330  -26.4750 C.2    39  ASP39       0.3668
     29  OD1       14.9240   18.3760  -25.4430 O.co2  39  ASP39      -0.2456
     30  OD2       15.0700   18.7080  -27.6090 O.co2  39  ASP39      -0.2456
     31  N         11.3400   22.0940  -25.6730 N.am   40  ALA40      -0.1979
     32  CA        10.6890   23.4010  -25.7070 C.3    40  ALA40       0.1597
     33  C         10.1830   23.7730  -24.2980 C.2    40  ALA40       0.2287
     34  O         10.1480   24.9560  -23.9480 O.2    40  ALA40      -0.2864
     35  CB         9.5410   23.4010  -26.7060 C.3    40  ALA40       0.0319
     36  N         13.1210   24.9360  -22.2770 N.3    43  LYS43      -0.1245
     37  CA        13.4630   26.2840  -22.6860 C.3    43  LYS43       0.1561
     38  C         12.6530   27.3460  -21.9740 C.2    43  LYS43       0.2260
     39  O         13.2610   28.2850  -21.4350 O.2    43  LYS43      -0.2867
     40  CB        13.4260   26.4280  -24.2110 C.3    43  LYS43       0.0271
     41  CG        13.7590   27.8240  -24.7310 C.3    43  LYS43       0.0035
     42  CD        15.1740   28.2860  -24.4220 C.3    43  LYS43       0.0206
     43  CE        15.4640   29.5880  -25.1400 C.3    43  LYS43       0.1093
     44  NZ        16.7930   30.1380  -24.7690 N.3    43  LYS43      -0.1314
     45  N          2.2260   21.0150  -26.7490 N.3    78  ASP78      -0.1239
     46  CA         2.9880   21.3200  -25.5410 C.3    78  ASP78       0.1674
     47  C          2.7360   22.7940  -25.1960 C.2    78  ASP78       0.2266
     48  O          2.2780   23.5970  -26.0340 O.2    78  ASP78      -0.2867
     49  CB         4.4910   21.0210  -25.7150 C.3    78  ASP78       0.1410
     50  CG         5.1660   21.8530  -26.7900 C.2    78  ASP78       0.3668
     51  OD1        5.1700   23.1180  -26.6680 O.co2  78  ASP78      -0.2456
     52  OD2        5.5930   21.2760  -27.8190 O.co2  78  ASP78      -0.2456
     53  N          8.1010   26.8440  -25.1840 N.3    81  ILE81      -0.1231
     54  CA         8.4280   28.2230  -25.5290 C.3    81  ILE81       0.1692
     55  C          7.7030   28.6920  -26.7910 C.2    81  ILE81       0.2593
     56  O          7.4430   29.8980  -26.9250 O.2    81  ILE81      -0.2718
     57  CB         9.9680   28.4110  -25.6090 C.3    81  ILE81       0.0266
     58  CG1       10.3920   29.9040  -25.7470 C.3    81  ILE81       0.0019
     59  CG2       10.5690   27.5970  -26.7080 C.3    81  ILE81       0.0020
     60  CD1       10.6380   30.6240  -24.4550 C.3    81  ILE81       0.0001
     61  N          7.4370   27.7690  -27.7350 N.am   82  GLY82      -0.1942
     62  CA         6.8150   28.2210  -28.9790 C.3    82  GLY82       0.2014
     63  C          7.8150   28.9170  -29.8860 C.2    82  GLY82       0.2638
     64  O          9.0100   29.0140  -29.5830 O.2    82  GLY82      -0.2714
     65  N          7.3120   29.4050  -31.0030 N.am   83  MET83      -0.1976
     66  CA         8.1100   30.0590  -32.0310 C.3    83  MET83       0.1605
     67  C          7.4660   31.3330  -32.5380 C.2    83  MET83       0.2287
     68  O          6.2550   31.3880  -32.7780 O.2    83  MET83      -0.2864
     69  CB         8.3000   29.1090  -33.2230 C.3    83  MET83       0.0413
     70  CG         9.2770   27.9750  -32.9420 C.3    83  MET83       0.0598
     71  SD         9.2680   26.6860  -34.2320 S.3    83  MET83      -0.1393
     72  CE         7.8090   25.6760  -33.7080 C.3    83  MET83       0.0692
     73  N         13.2490   27.5750  -38.1460 N.3    91  ASN91      -0.1225
     74  CA        13.3740   26.2610  -37.5120 C.3    91  ASN91       0.1785
     75  C         12.8700   25.1270  -38.3800 C.2    91  ASN91       0.2597
     76  O         13.4220   24.0290  -38.3120 O.2    91  ASN91      -0.2718
     77  CB        12.6510   26.1960  -36.1620 C.3    91  ASN91       0.1169
     78  CG        13.1520   27.0620  -35.0390 C.2    91  ASN91       0.2627
     79  OD1       12.5700   27.0800  -33.9380 O.2    91  ASN91      -0.2716
     80  ND2       14.1810   27.8400  -35.2850 N.am   91  ASN91      -0.0877
     81  N         11.8310   25.3790  -39.2170 N.am   92  LEU92      -0.1980
     82  CA        11.2660   24.2960  -40.0220 C.3    92  LEU92       0.1596
     83  C         11.7380   24.2660  -41.4640 C.2    92  LEU92       0.2287
     84  O         11.6920   23.2370  -42.0840 O.2    92  LEU92      -0.2864
     85  CB         9.7290   24.3180  -39.9200 C.3    92  LEU92       0.0297
     86  CG         9.1890   23.6820  -38.6070 C.3    92  LEU92       0.0022
     87  CD1        9.4930   24.5000  -37.3490 C.3    92  LEU92       0.0001
     88  CD2        7.7280   23.4520  -38.6470 C.3    92  LEU92       0.0001
     89  N         17.1480   25.5640  -40.4530 N.3    95  ILE95      -0.1231
     90  CA        18.1510   25.0980  -39.4700 C.3    95  ILE95       0.1692
     91  C         18.5250   23.6300  -39.5470 C.2    95  ILE95       0.2591
     92  O         19.6510   23.2640  -39.1920 O.2    95  ILE95      -0.2718
     93  CB        17.8350   25.5530  -38.0310 C.3    95  ILE95       0.0266
     94  CG1       16.7520   24.6680  -37.4090 C.3    95  ILE95       0.0019
     95  CG2       17.5110   27.0760  -37.9290 C.3    95  ILE95       0.0020
     96  CD1       16.4230   24.9810  -35.8920 C.3    95  ILE95       0.0001
     97  N         17.6250   22.7960  -40.0340 N.am   96  ALA96      -0.1980
     98  CA        17.8820   21.3770  -40.1410 C.3    96  ALA96       0.1597
     99  C         18.8330   20.9860  -41.2650 C.2    96  ALA96       0.2287
    100  O         19.1870   19.8160  -41.3550 O.2    96  ALA96      -0.2864
    101  CB        16.5660   20.5990  -40.2380 C.3    96  ALA96       0.0319
    102  N         19.1980   16.0550  -34.3680 N.3   120  GLY120     -0.1210
    103  CA        18.4020   17.2450  -34.1030 C.3   120  GLY120      0.1956
    104  C         17.3970   17.5420  -35.1970 C.2   120  GLY120      0.2611
    105  O         16.9880   18.6990  -35.3460 O.2   120  GLY120     -0.2717
    106  N         16.9970   16.5130  -35.9620 N.am  121  VAL121     -0.1979
    107  CA        16.0490   16.7080  -37.0630 C.3   121  VAL121      0.1595
    108  C         14.8670   15.7060  -36.9620 C.2   121  VAL121      0.2287
    109  O         14.1960   15.4030  -37.9630 O.2   121  VAL121     -0.2864
    110  CB        16.7750   16.6890  -38.4420 C.3   121  VAL121      0.0276
    111  CG1       17.8900   17.7540  -38.5120 C.3   121  VAL121      0.0022
    112  CG2       17.3330   15.2910  -38.7500 C.3   121  VAL121      0.0022
    113  N         11.8830   15.9120  -35.9260 N.3   123  PHE123     -0.1227
    114  CA        10.5550   16.3660  -36.3560 C.3   123  PHE123      0.1736
    115  C         10.1320   15.7100  -37.6590 C.2   123  PHE123      0.2595
    116  O          8.9780   15.3280  -37.8090 O.2   123  PHE123     -0.2718
    117  CB        10.5610   17.8910  -36.5450 C.3   123  PHE123      0.0547
    118  CG         9.3500   18.4190  -37.2850 C.ar  123  PHE123     -0.0202
    119  CD1        8.1350   18.6170  -36.6270 C.ar  123  PHE123     -0.0042
    120  CD2        9.4300   18.7350  -38.6340 C.ar  123  PHE123     -0.0042
    121  CE1        7.0170   19.1130  -37.3130 C.ar  123  PHE123     -0.0003
    122  CE2        8.2990   19.2080  -39.3240 C.ar  123  PHE123     -0.0003
    123  CZ         7.1000   19.3820  -38.6620 C.ar  123  PHE123     -0.0000
    124  N         11.0690   15.6410  -38.6310 N.am  124  TYR124     -0.1976
    125  CA        10.7250   15.1660  -39.9730 C.3   124  TYR124      0.1639
    126  C         10.3070   13.7040  -40.0330 C.2   124  TYR124      0.2290
    127  O          9.7040   13.2470  -41.0040 O.2   124  TYR124     -0.2864
    128  CB        11.7990   15.5100  -40.9840 C.3   124  TYR124      0.0560
    129  CG        12.0690   17.0060  -41.0020 C.ar  124  TYR124     -0.0198
    130  CD1       11.2820   17.8720  -41.7550 C.ar  124  TYR124     -0.0009
    131  CD2       13.0930   17.5580  -40.2410 C.ar  124  TYR124     -0.0009
    132  CE1       11.5060   19.2490  -41.7430 C.ar  124  TYR124      0.0417
    133  CE2       13.3260   18.9320  -40.2210 C.ar  124  TYR124      0.0417
    134  CZ        12.5350   19.7720  -40.9780 C.ar  124  TYR124      0.1957
    135  OH        12.7960   21.1230  -40.9310 O.3   124  TYR124     -0.2866
    136  N          1.7510   22.7660  -38.1210 N.3   135  VAL135     -0.1245
    137  CA         2.3750   23.1900  -36.8670 C.3   135  VAL135      0.1561
    138  C          1.7690   24.5520  -36.4980 C.2   135  VAL135      0.2260
    139  O          1.9420   25.5560  -37.2360 O.2   135  VAL135     -0.2867
    140  CB         3.9170   23.2340  -36.9460 C.3   135  VAL135      0.0252
    141  CG1        4.5040   23.7670  -35.6470 C.3   135  VAL135      0.0019
    142  CG2        4.4920   21.8520  -37.2630 C.3   135  VAL135      0.0019
    143  N          3.4110   24.8820  -28.7640 N.3   169  THR169     -0.1218
    144  CA         3.3670   24.3400  -30.1260 C.3   169  THR169      0.1862
    145  C          2.4440   23.1430  -30.2050 C.2   169  THR169      0.2287
    146  O          2.4420   22.2950  -29.2950 O.2   169  THR169     -0.2866
    147  CB         4.8090   24.0060  -30.5970 C.3   169  THR169      0.1770
    148  OG1        5.5950   25.2130  -30.5730 O.3   169  THR169     -0.2211
    149  CG2        4.8610   23.4380  -32.0260 C.3   169  THR169      0.0375
    150  N          1.5930   20.0710  -32.9780 N.3   171  VAL171     -0.1245
    151  CA         1.9750   19.3710  -34.2140 C.3   171  VAL171      0.1561
    152  C          0.8310   18.4550  -34.5650 C.2   171  VAL171      0.2260
    153  O          0.5360   17.5180  -33.8030 O.2   171  VAL171     -0.2867
    154  CB         3.2970   18.5880  -34.0560 C.3   171  VAL171      0.0252
    155  CG1        3.6170   17.8290  -35.3390 C.3   171  VAL171      0.0019
    156  CG2        4.4490   19.5180  -33.7140 C.3   171  VAL171      0.0019
@<TRIPOS>BOND
     1    84    83    2
     2   130   132   ar
     3   130   129   ar
     4   132   134   ar
     5    83    82    1
     6   100    99    2
     7    99    98    1
     8   127   126    2
     9   129   128    1
    10   129   131   ar
    11   128   125    1
    12   134   135    1
    13   134   133   ar
    14    89    90    1
    15   131   133   ar
    16   101    98    1
    17    98    97    1
    18    97    91   am
    19   126   125    1
    20    82    85    1
    21    82    81    1
    22   125   124    1
    23    85    86    1
    24    91    90    1
    25    91    92    2
    26    90    93    1
    27   122   123   ar
    28   122   120   ar
    29    81    75   am
    30   112   110    1
    31   123   121   ar
    32    88    86    1
    33   120   118   ar
    34   124   115   am
    35    86    87    1
    36   111   110    1
    37   110   107    1
    38    75    76    2
    39    75    74    1
    40    73    74    1
    41   136   137    1
    42    93    95    1
    43    93    94    1
    44   109   108    2
    45   116   115    2
    46   115   114    1
    47    74    77    1
    48    94    96    1
    49   121   119   ar
    50   118   119   ar
    51   118   117    1
    52   142   140    1
    53   139   138    2
    54   107   108    1
    55   107   106    1
    56   140   137    1
    57   140   141    1
    58   137   138    1
    59   117   114    1
    60   114   113    1
    61    77    78    1
    62   106   104   am
    63   105   104    2
    64   155   154    1
    65    80    78   am
    66   104   103    1
    67    78    79    2
    68   152   151    1
    69   152   153    2
    70   102   103    1
    71    71    72    1
    72    71    70    1
    73   151   154    1
    74   151   150    1
    75     8     6    1
    76   154   156    1
    77     7     6    1
    78     6     5    1
    79    69    70    1
    80    69    66    1
    81    16    14   am
    82    68    67    2
    83    67    66    1
    84    66    65    1
    85   149   147    1
    86     5     2    1
    87    14    15    2
    88    14    13    1
    89     1     2    1
    90     2     3    1
    91    65    63   am
    92   147   148    1
    93   147   144    1
    94    13    10    1
    95   145   144    1
    96   145   146    2
    97   144   143    1
    98    63    64    2
    99    63    62    1
   100     3     4    2
   101    10     9    1
   102    10    11    1
   103    62    61    1
   104    11    12    2
   105    11    17   am
   106    52    50   ar
   107    22    21    1
   108    17    18    1
   109    61    55   am
   110    30    28   ar
   111    56    55    2
   112    18    21    1
   113    18    19    1
   114    55    54    1
   115    50    51   ar
   116    50    49    1
   117    45    46    1
   118    59    57    1
   119    35    32    1
   120    28    27    1
   121    28    29   ar
   122    27    24    1
   123    48    47    2
   124    58    57    1
   125    58    60    1
   126    49    46    1
   127    32    31    1
   128    32    33    1
   129    31    25   am
   130    57    54    1
   131    46    47    1
   132    54    53    1
   133    19    20    2
   134    43    44    1
   135    43    42    1
   136    24    25    1
   137    24    23    1
   138    25    26    2
   139    41    42    1
   140    41    40    1
   141    33    34    2
   142    40    37    1
   143    37    36    1
   144    37    38    1
   145    38    39    2
