@<TRIPOS>MOLECULE
tmp/3wheI01.pdb
 89 85 0 0 0
SMALL
GASTEIGER

@<TRIPOS>ATOM
      1  N        -53.8570  -50.2380   35.4350 N.3    37  SER37      -0.1217
      2  CA       -53.1710  -49.1950   36.1840 C.3    37  SER37       0.1889
      3  C        -54.1000  -48.3740   37.0750 C.2    37  SER37       0.2288
      4  O        -53.6720  -47.8420   38.1000 O.2    37  SER37      -0.2866
      5  CB       -52.4250  -48.2750   35.2120 C.3    37  SER37       0.2089
      6  OG       -53.1710  -48.0790   34.0240 O.3    37  SER37      -0.2183
      7  N        -57.5870  -47.6830   39.5420 N.3    39  SER39      -0.1217
      8  CA       -58.1690  -48.3510   40.7010 C.3    39  SER39       0.1889
      9  C        -59.3170  -47.5380   41.2880 C.2    39  SER39       0.2288
     10  O        -59.1990  -46.3270   41.4770 O.2    39  SER39      -0.2866
     11  CB       -57.0990  -48.5690   41.7740 C.3    39  SER39       0.2089
     12  OG       -57.6760  -49.0500   42.9770 O.3    39  SER39      -0.2183
     13  N        -54.6450  -53.7110   48.1570 N.3   276  PRO276     -0.2102
     14  CA       -54.5550  -52.7170   49.2310 C.3   276  PRO276      0.1504
     15  C        -54.9920  -51.3350   48.7490 C.2   276  PRO276      0.2575
     16  O        -55.1740  -50.4160   49.5480 O.2   276  PRO276     -0.2718
     17  CB       -53.0770  -52.7590   49.6090 C.3   276  PRO276      0.0282
     18  CG       -52.7180  -54.1900   49.3600 C.3   276  PRO276      0.0208
     19  CD       -53.3790  -54.4540   48.0270 C.3   276  PRO276      0.0893
     20  N        -55.1560  -51.1990   47.4370 N.am  277  ASN277     -0.1975
     21  CA       -55.5750  -49.9380   46.8380 C.3   277  ASN277      0.1688
     22  C        -57.0480  -49.9850   46.4650 C.2   277  ASN277      0.2292
     23  O        -57.5930  -49.0240   45.9230 O.2   277  ASN277     -0.2864
     24  CB       -54.7530  -49.6440   45.5840 C.3   277  ASN277      0.1181
     25  CG       -53.2740  -49.5760   45.8650 C.2   277  ASN277      0.2629
     26  OD1      -52.6090  -50.6030   46.0190 O.2   277  ASN277     -0.2716
     27  ND2      -52.7580  -48.3550   45.9460 N.am  277  ASN277     -0.0877
     28  N        -50.4180  -53.0080   37.4780 N.3   288  ASN288     -0.1225
     29  CA       -49.3260  -52.3040   38.1400 C.3   288  ASN288      0.1785
     30  C        -49.7970  -51.5730   39.3960 C.2   288  ASN288      0.2597
     31  O        -49.1350  -50.6510   39.8730 O.2   288  ASN288     -0.2718
     32  CB       -48.6960  -51.3040   37.1660 C.3   288  ASN288      0.1169
     33  CG       -47.3260  -50.8310   37.6140 C.2   288  ASN288      0.2627
     34  OD1      -46.7360  -49.9390   37.0050 O.2   288  ASN288     -0.2716
     35  ND2      -46.8080  -51.4340   38.6790 N.am  288  ASN288     -0.0877
     36  N        -50.9410  -51.9900   39.9300 N.am  289  VAL289     -0.1966
     37  CA       -51.4970  -51.3730   41.1280 C.3   289  VAL289      0.1727
     38  C        -50.6750  -51.6990   42.3710 C.2   289  VAL289      0.2616
     39  O        -50.1510  -50.8010   43.0310 O.2   289  VAL289     -0.2715
     40  CB       -52.9530  -51.8310   41.3680 C.3   289  VAL289      0.0290
     41  CG1      -53.4660  -51.2730   42.6880 C.3   289  VAL289      0.0023
     42  CG2      -53.8370  -51.3670   40.2230 C.3   289  VAL289      0.0023
     43  N        -50.5650  -52.9850   42.6880 N.am  290  ASN290     -0.1958
     44  CA       -49.8120  -53.4150   43.8590 C.3   290  ASN290      0.1819
     45  C        -49.4370  -54.8920   43.7680 C.2   290  ASN290      0.2621
     46  O        -50.1260  -55.6800   43.1190 O.2   290  ASN290     -0.2715
     47  CB       -50.6350  -53.1530   45.1250 C.3   290  ASN290      0.1195
     48  CG       -49.8920  -53.5140   46.3940 C.2   290  ASN290      0.2630
     49  OD1      -49.7480  -54.6860   46.7290 O.2   290  ASN290     -0.2716
     50  ND2      -49.4130  -52.5030   47.1080 N.am  290  ASN290     -0.0877
     51  N        -48.3360  -55.2570   44.4180 N.am  291  LYS291     -0.1977
     52  CA       -47.8570  -56.6340   44.4150 C.3   291  LYS291      0.1596
     53  C        -48.7420  -57.5600   45.2460 C.2   291  LYS291      0.2287
     54  O        -48.9090  -58.7340   44.9160 O.2   291  LYS291     -0.2864
     55  CB       -46.4090  -56.6760   44.9170 C.3   291  LYS291      0.0298
     56  CG       -46.0980  -55.6740   46.0180 C.3   291  LYS291      0.0038
     57  CD       -44.6060  -55.6270   46.3150 C.3   291  LYS291      0.0206
     58  CE       -44.2970  -54.6700   47.4550 C.3   291  LYS291      0.1093
     59  NZ       -44.8330  -53.3040   47.2000 N.3   291  LYS291     -0.1314
     60  N        -48.7440  -59.1200   38.5170 N.3   300  TYR300     -0.1241
     61  CA       -48.1790  -57.8150   38.8450 C.3   300  TYR300      0.1605
     62  C        -46.8200  -57.6150   38.1860 C.2   300  TYR300      0.2264
     63  O        -45.7850  -57.9690   38.7520 O.2   300  TYR300     -0.2867
     64  CB       -48.0310  -57.6470   40.3610 C.3   300  TYR300      0.0534
     65  CG       -47.3400  -56.3570   40.7560 C.ar  300  TYR300     -0.0201
     66  CD1      -47.8730  -55.1180   40.3960 C.ar  300  TYR300     -0.0009
     67  CD2      -46.1440  -56.3750   41.4730 C.ar  300  TYR300     -0.0009
     68  CE1      -47.2290  -53.9290   40.7390 C.ar  300  TYR300      0.0417
     69  CE2      -45.4930  -55.1920   41.8200 C.ar  300  TYR300      0.0417
     70  CZ       -46.0400  -53.9740   41.4500 C.ar  300  TYR300      0.1957
     71  OH       -45.3990  -52.8040   41.7870 O.3   300  TYR300     -0.2866
     72  N        -45.5150  -59.3540   51.6010 N.3   389  LYS389     -0.1231
     73  CA       -44.5840  -58.7670   50.6490 C.3   389  LYS389      0.1693
     74  C        -44.1540  -57.4010   51.1580 C.2   389  LYS389      0.2591
     75  O        -43.6430  -56.5690   50.4080 O.2   389  LYS389     -0.2718
     76  CB       -45.2540  -58.6560   49.2790 C.3   389  LYS389      0.0285
     77  CG       -45.8860  -59.9680   48.8390 C.3   389  LYS389      0.0035
     78  CD       -46.6090  -59.8560   47.5120 C.3   389  LYS389      0.0206
     79  CE       -47.3910  -61.1300   47.2280 C.3   389  LYS389      0.1093
     80  NZ       -47.8350  -61.2190   45.8120 N.3   389  LYS389     -0.1314
     81  N        -44.3640  -57.1910   52.4520 N.am  390  GLU390     -0.1979
     82  CA       -44.0140  -55.9410   53.1090 C.3   390  GLU390      0.1602
     83  C        -43.7090  -56.1540   54.5840 C.2   390  GLU390      0.2287
     84  O        -44.1780  -57.1130   55.1980 O.2   390  GLU390     -0.2864
     85  CB       -45.1560  -54.9350   52.9680 C.3   390  GLU390      0.0415
     86  CG       -45.0950  -54.0990   51.7060 C.3   390  GLU390      0.1163
     87  CD       -46.3340  -53.2500   51.5180 C.2   390  GLU390      0.3649
     88  OE1      -46.8320  -52.6910   52.5190 O.co2 390  GLU390     -0.2457
     89  OE2      -46.8060  -53.1330   50.3680 O.co2 390  GLU390     -0.2457
@<TRIPOS>BOND
     1     6     5    1
     2     5     2    1
     3     1     2    1
     4     2     3    1
     5    34    33    2
     6     3     4    2
     7    32    33    1
     8    32    29    1
     9    28    29    1
    10    33    35   am
    11    29    30    1
    12    62    63    2
    13    62    61    1
    14    60    61    1
    15    61    64    1
    16    30    31    2
    17    30    36   am
    18     7     8    1
    19    36    37    1
    20    42    40    1
    21    64    65    1
    22    66    68   ar
    23    66    65   ar
    24     8     9    1
    25     8    11    1
    26    68    70   ar
    27    65    67   ar
    28    37    40    1
    29    37    38    1
    30     9    10    2
    31    40    41    1
    32    70    71    1
    33    70    69   ar
    34    67    69   ar
    35    11    12    1
    36    38    43   am
    37    38    39    2
    38    43    44    1
    39    46    45    2
    40    45    44    1
    41    45    51   am
    42    44    47    1
    43    52    51    1
    44    52    55    1
    45    52    53    1
    46    54    53    2
    47    55    56    1
    48    47    48    1
    49    24    25    1
    50    24    21    1
    51    80    79    1
    52    25    27   am
    53    25    26    2
    54    23    22    2
    55    56    57    1
    56    57    58    1
    57    48    49    2
    58    48    50   am
    59    22    21    1
    60    21    20    1
    61    59    58    1
    62    79    78    1
    63    20    15   am
    64    78    77    1
    65    19    13    1
    66    19    18    1
    67    13    14    1
    68    15    14    1
    69    15    16    2
    70    77    76    1
    71    14    17    1
    72    76    73    1
    73    18    17    1
    74    89    87   ar
    75    75    74    2
    76    73    74    1
    77    73    72    1
    78    74    81   am
    79    87    86    1
    80    87    88   ar
    81    86    85    1
    82    81    82    1
    83    85    82    1
    84    82    83    1
    85    83    84    2
