@<TRIPOS>MOLECULE
tmp/3whkA00.pdb
 146 139 0 0 0
SMALL
GASTEIGER

@<TRIPOS>ATOM
      1  N         -9.4790    8.4430   37.5680 N.3    15  ASP15      -0.1225
      2  CA       -10.5960    9.2140   38.1270 C.3    15  ASP15       0.1805
      3  C        -11.9250    8.8920   37.4310 C.2    15  ASP15       0.2598
      4  O        -12.9750    9.3900   37.8430 O.2    15  ASP15      -0.2718
      5  CB       -10.3030   10.7110   38.0330 C.3    15  ASP15       0.1424
      6  CG        -9.0040   11.1020   38.7460 C.2    15  ASP15       0.3668
      7  OD1       -8.7570   10.5820   39.8510 O.co2  15  ASP15      -0.2456
      8  OD2       -8.2270   11.9030   38.1910 O.co2  15  ASP15      -0.2456
      9  N        -11.8660    8.0340   36.4080 N.am   16  ILE16      -0.1966
     10  CA       -13.0090    7.6990   35.5660 C.3    16  ILE16       0.1727
     11  C        -13.4890    6.2970   35.8880 C.2    16  ILE16       0.2616
     12  O        -12.7320    5.3430   35.7750 O.2    16  ILE16      -0.2715
     13  CB       -12.6340    7.7280   34.0730 C.3    16  ILE16       0.0290
     14  CG1      -12.0710    9.1030   33.6910 C.3    16  ILE16       0.0022
     15  CG2      -13.8420    7.3970   33.2200 C.3    16  ILE16       0.0023
     16  CD1      -11.4330    9.1590   32.3160 C.3    16  ILE16       0.0001
     17  N        -14.7670    6.1810   36.2420 N.am   17  GLY17      -0.1955
     18  CA       -15.3600    4.9090   36.5990 C.3    17  GLY17       0.1869
     19  C        -16.0660    4.2830   35.4390 C.2    17  GLY17       0.2309
     20  O        -16.8410    4.9530   34.7090 O.2    17  GLY17      -0.2863
     21  N        -16.3710    2.8310   31.7670 N.3    19  LEU19      -0.1245
     22  CA       -15.9750    3.4180   30.5040 C.3    19  LEU19       0.1561
     23  C        -14.7140    2.9040   29.8050 C.2    19  LEU19       0.2260
     24  O        -14.1250    3.6170   28.9690 O.2    19  LEU19      -0.2867
     25  CB       -16.0730    4.9550   30.4100 C.3    19  LEU19       0.0270
     26  CG       -17.3260    5.6680   30.9280 C.3    19  LEU19       0.0019
     27  CD1      -17.0610    7.1530   31.0740 C.3    19  LEU19       0.0001
     28  CD2      -18.5270    5.4570   30.0210 C.3    19  LEU19       0.0001
     29  N        -26.6190   13.4500   30.0670 N.3    57  PRO57      -0.2102
     30  CA       -25.8300   14.3270   30.9140 C.3    57  PRO57       0.1504
     31  C        -25.1320   13.6290   32.0660 C.2    57  PRO57       0.2576
     32  O        -25.5960   12.5920   32.5480 O.2    57  PRO57      -0.2718
     33  CB       -26.8710   15.2980   31.4700 C.3    57  PRO57       0.0282
     34  CG       -27.9290   15.3630   30.4380 C.3    57  PRO57       0.0208
     35  CD       -27.9600   14.0100   29.7970 C.3    57  PRO57       0.0893
     36  N        -24.0050   14.2160   32.4760 N.am   58  GLY58      -0.1943
     37  CA       -23.2460   13.7960   33.6580 C.3    58  GLY58       0.2014
     38  C        -22.7700   12.3600   33.6320 C.2    58  GLY58       0.2639
     39  O        -22.6910   11.7350   34.6780 O.2    58  GLY58      -0.2714
     40  N        -22.4560   11.8230   32.4590 N.am   59  CYS59      -0.1953
     41  CA       -21.9410   10.4550   32.3830 C.3    59  CYS59       0.1843
     42  C        -20.4250   10.4010   32.0970 C.2    59  CYS59       0.2626
     43  O        -19.8640    9.3070   31.9380 O.2    59  CYS59      -0.2714
     44  CB       -22.7250    9.6230   31.3630 C.3    59  CYS59       0.0997
     45  SG       -24.4930    9.4840   31.7410 S.3    59  CYS59      -0.0797
     46  N        -19.7760   11.5640   32.0660 N.am   60  GLY60      -0.1940
     47  CA       -18.3220   11.6220   32.0260 C.3    60  GLY60       0.2014
     48  C        -17.6560   12.0400   30.7280 C.2    60  GLY60       0.2639
     49  O        -16.4740   11.8180   30.5520 O.2    60  GLY60      -0.2714
     50  N        -18.3970   12.6260   29.8040 N.am   61  LYS61      -0.1963
     51  CA       -17.8050   13.0970   28.5590 C.3    61  LYS61       0.1728
     52  C        -16.7500   14.1070   28.8780 C.2    61  LYS61       0.2617
     53  O        -15.6080   13.9620   28.4500 O.2    61  LYS61      -0.2715
     54  CB       -18.8440   13.7330   27.6350 C.3    61  LYS61       0.0311
     55  CG       -19.8610   12.7500   27.1080 C.3    61  LYS61       0.0038
     56  CD       -21.0950   13.4700   26.5930 C.3    61  LYS61       0.0206
     57  CE       -22.3060   12.9290   27.2900 C.3    61  LYS61       0.1093
     58  NZ       -23.0620   14.0500   27.8780 N.3    61  LYS61      -0.1314
     59  N        -17.1290   15.1290   29.6440 N.am   62  THR62      -0.1937
     60  CA       -16.1590   16.1440   30.0290 C.3    62  THR62       0.2028
     61  C        -14.9500   15.4860   30.7260 C.2    62  THR62       0.2642
     62  O        -13.8220   15.8240   30.4210 O.2    62  THR62      -0.2714
     63  CB       -16.7980   17.2680   30.8690 C.3    62  THR62       0.1808
     64  OG1      -17.7870   17.9580   30.0840 O.3    62  THR62      -0.2208
     65  CG2      -15.7660   18.2700   31.2810 C.3    62  THR62       0.0379
     66  N        -15.1880   14.5640   31.6490 N.am   63  LEU63      -0.1977
     67  CA       -14.1170   13.8330   32.3450 C.3    63  LEU63       0.1596
     68  C        -13.1000   13.2190   31.3830 C.2    63  LEU63       0.2287
     69  O        -11.8830   13.3810   31.5190 O.2    63  LEU63      -0.2864
     70  CB       -14.6960   12.6890   33.1900 C.3    63  LEU63       0.0297
     71  CG       -14.6610   12.7140   34.7190 C.3    63  LEU63       0.0022
     72  CD1      -14.9270   11.3080   35.2620 C.3    63  LEU63       0.0001
     73  CD2      -13.3730   13.2500   35.2990 C.3    63  LEU63       0.0001
     74  N        -18.8150   21.7870   24.4070 N.3   110  ASP110     -0.1225
     75  CA       -19.9900   21.1640   25.0670 C.3   110  ASP110      0.1805
     76  C        -21.2610   21.6500   24.4130 C.2   110  ASP110      0.2597
     77  O        -21.2730   22.7040   23.8130 O.2   110  ASP110     -0.2718
     78  CB       -20.0240   21.5300   26.5430 C.3   110  ASP110      0.1424
     79  CG       -20.7220   20.5090   27.3920 C.2   110  ASP110      0.3668
     80  OD1      -20.8300   19.3350   27.0060 O.co2 110  ASP110     -0.2456
     81  OD2      -21.1080   20.8820   28.5060 O.co2 110  ASP110     -0.2456
     82  N        -22.3240   20.8700   24.5110 N.am  111  GLU111     -0.1979
     83  CA       -23.6080   21.2440   23.9220 C.3   111  GLU111      0.1602
     84  C        -23.4630   21.6980   22.4620 C.2   111  GLU111      0.2287
     85  O        -23.9610   22.7600   22.0720 O.2   111  GLU111     -0.2864
     86  CB       -24.2620   22.3550   24.7470 C.3   111  GLU111      0.0415
     87  CG       -24.5930   21.9660   26.1840 C.3   111  GLU111      0.1163
     88  CD       -25.0460   23.1470   27.0420 C.2   111  GLU111      0.3649
     89  OE1      -25.3310   22.9270   28.2510 O.co2 111  GLU111     -0.2457
     90  OE2      -25.1150   24.2970   26.5300 O.co2 111  GLU111     -0.2457
     91  N        -19.3990   17.3290   22.6190 N.3   145  ALA145     -0.1245
     92  CA       -20.4170   16.5730   23.3590 C.3   145  ALA145      0.1562
     93  C        -21.8440   16.9980   23.0160 C.2   145  ALA145      0.2260
     94  O        -22.1170   18.1730   22.7730 O.2   145  ALA145     -0.2867
     95  CB       -20.1830   16.7350   24.8470 C.3   145  ALA145      0.0290
     96  N        -23.9010    4.6220   33.6750 N.3   171  PRO171     -0.2116
     97  CA       -23.0260    3.5740   34.1590 C.3   171  PRO171      0.1372
     98  C        -23.8450    2.3400   34.4390 C.2   171  PRO171      0.2244
     99  O        -24.9210    2.4680   35.0030 O.2   171  PRO171     -0.2868
    100  CB       -22.4560    4.1620   35.4630 C.3   171  PRO171      0.0268
    101  CG       -23.3480    5.2820   35.8130 C.3   171  PRO171      0.0207
    102  CD       -23.8310    5.8260   34.5150 C.3   171  PRO171      0.0892
    103  N        -17.8450    4.2190   40.6350 N.3   179  ILE179     -0.1245
    104  CA       -17.9910    5.6730   40.6630 C.3   179  ILE179      0.1561
    105  C        -18.1200    6.1310   42.1050 C.2   179  ILE179      0.2260
    106  O        -17.4280    7.0610   42.5290 O.2   179  ILE179     -0.2867
    107  CB       -19.1500    6.1550   39.7760 C.3   179  ILE179      0.0252
    108  CG1      -18.7660    5.9790   38.2970 C.3   179  ILE179      0.0019
    109  CG2      -19.4550    7.6150   40.0540 C.3   179  ILE179      0.0019
    110  CD1      -19.9180    6.0170   37.3210 C.3   179  ILE179      0.0001
    111  N        -14.6810    5.7280   43.7710 N.3   182  ILE182     -0.1231
    112  CA       -13.7740    6.7720   43.3150 C.3   182  ILE182      0.1692
    113  C        -14.0110    8.0850   44.0700 C.2   182  ILE182      0.2592
    114  O        -13.0700    8.7610   44.4920 O.2   182  ILE182     -0.2718
    115  CB       -13.9190    6.9770   41.7840 C.3   182  ILE182      0.0266
    116  CG1      -13.1990    5.8440   41.0340 C.3   182  ILE182      0.0019
    117  CG2      -13.3770    8.3290   41.3370 C.3   182  ILE182      0.0020
    118  CD1      -13.5540    5.7530   39.5610 C.3   182  ILE182      0.0001
    119  N        -15.2850    8.4730   44.2200 N.am  183  HIS183     -0.1976
    120  CA       -15.5940    9.7590   44.8550 C.3   183  HIS183      0.1656
    121  C        -15.6000    9.7290   46.3880 C.2   183  HIS183      0.2291
    122  O        -15.6640   10.7750   47.0460 O.2   183  HIS183     -0.2864
    123  CB       -16.8620   10.3050   44.2700 C.3   183  HIS183      0.0771
    124  CG       -16.6500   10.9370   42.9440 C.ar  183  HIS183      0.0820
    125  ND1      -17.0350   10.3420   41.7660 N.ar  183  HIS183     -0.2267
    126  CD2      -16.0600   12.1020   42.6040 C.ar  183  HIS183      0.1154
    127  CE1      -16.7180   11.1280   40.7550 C.ar  183  HIS183      0.1986
    128  NE2      -16.1190   12.2010   41.2350 N.ar  183  HIS183     -0.2212
    129  N        -23.1660    9.6440   36.6150 N.3   207  GLY207     -0.1210
    130  CA       -21.9550    9.8950   37.3970 C.3   207  GLY207      0.1956
    131  C        -22.0300   11.1000   38.2940 C.2   207  GLY207      0.2611
    132  O        -21.6860   11.0140   39.4810 O.2   207  GLY207     -0.2717
    133  N        -22.5510   12.2040   37.7840 N.am  208  ALA208     -0.1979
    134  CA       -22.7160   13.3870   38.6540 C.3   208  ALA208      0.1597
    135  C        -23.5960   13.1380   39.8840 C.2   208  ALA208      0.2287
    136  O        -23.2890   13.6210   40.9900 O.2   208  ALA208     -0.2864
    137  CB       -23.2550   14.5740   37.8600 C.3   208  ALA208      0.0319
    138  N        -21.6320   11.0870   42.3310 N.3   211  LYS211     -0.1245
    139  CA       -20.6740   11.9250   43.0780 C.3   211  LYS211      0.1561
    140  C        -21.3880   12.6830   44.1770 C.2   211  LYS211      0.2260
    141  O        -20.8910   12.7830   45.2990 O.2   211  LYS211     -0.2867
    142  CB       -19.9940   12.9350   42.1680 C.3   211  LYS211      0.0271
    143  CG       -19.0800   13.9020   42.8880 C.3   211  LYS211      0.0035
    144  CD       -18.6470   14.9960   41.9380 C.3   211  LYS211      0.0206
    145  CE       -17.7630   16.0070   42.6340 C.3   211  LYS211      0.1093
    146  NZ       -17.4550   17.1520   41.7170 N.3   211  LYS211     -0.1314
@<TRIPOS>BOND
     1    85    84    2
     2    84    83    1
     3    91    92    1
     4    94    93    2
     5    93    92    1
     6    92    95    1
     7    77    76    2
     8    83    82    1
     9    83    86    1
    10    74    75    1
    11    76    82   am
    12    76    75    1
    13    86    87    1
    14    75    78    1
    15    87    88    1
    16    90    88   ar
    17    78    79    1
    18    56    55    1
    19    56    57    1
    20    80    79   ar
    21    88    89   ar
    22    55    54    1
    23    57    58    1
    24    79    81   ar
    25    54    51    1
    26    53    52    2
    27    51    52    1
    28    51    50    1
    29    52    59   am
    30    24    23    2
    31    59    60    1
    32    35    29    1
    33    35    34    1
    34    50    48   am
    35    23    22    1
    36    28    26    1
    37    60    61    1
    38    60    63    1
    39    29    30    1
    40    64    63    1
    41    25    22    1
    42    25    26    1
    43    62    61    2
    44    34    33    1
    45    22    21    1
    46    49    48    2
    47    61    66   am
    48    48    47    1
    49    63    65    1
    50    30    33    1
    51    30    31    1
    52    26    27    1
    53    44    45    1
    54    44    41    1
    55    68    69    2
    56    68    67    1
    57    66    67    1
    58    43    42    2
    59    47    46    1
    60    31    36   am
    61    31    32    2
    62    46    42   am
    63    42    41    1
    64    16    14    1
    65    67    70    1
    66    41    40    1
    67    40    38   am
    68    36    37    1
    69    70    71    1
    70    15    13    1
    71    38    37    1
    72    38    39    2
    73    96    97    1
    74    96   102    1
    75    14    13    1
    76    13    10    1
    77    97    98    1
    78    97   100    1
    79    98    99    2
    80   102   101    1
    81    20    19    2
    82    71    72    1
    83    71    73    1
    84    19    18    1
    85   100   101    1
    86    10    11    1
    87    10     9    1
    88    12    11    2
    89    11    17   am
    90    17    18    1
    91     9     3   am
    92   129   130    1
    93   110   108    1
    94   130   131    1
    95     3     4    2
    96     3     2    1
    97     1     2    1
    98   133   131   am
    99   133   134    1
   100   137   134    1
   101     5     2    1
   102     5     6    1
   103     8     6   ar
   104   131   132    2
   105   108   107    1
   106   134   135    1
   107     6     7   ar
   108   118   116    1
   109   107   109    1
   110   107   104    1
   111   135   136    2
   112   103   104    1
   113   104   105    1
   114   127   128   ar
   115   127   125   ar
   116   116   115    1
   117   128   126   ar
   118   117   115    1
   119   146   145    1
   120   125   124   ar
   121   115   112    1
   122   144   145    1
   123   144   143    1
   124   105   106    2
   125   142   143    1
   126   142   139    1
   127   138   139    1
   128   126   124   ar
   129   124   123    1
   130   139   140    1
   131   112   111    1
   132   112   113    1
   133   113   119   am
   134   113   114    2
   135   140   141    2
   136   119   120    1
   137   123   120    1
   138   120   121    1
   139   121   122    2
