@<TRIPOS>MOLECULE
tmp/3whsB00.pdb
 84 76 0 0 0
SMALL
GASTEIGER

@<TRIPOS>ATOM
      1  N        -22.8880    4.0970   18.9550 N.3     1  THR1       -0.1218
      2  CA       -22.3820    3.3900   20.1500 C.3     1  THR1        0.1862
      3  C        -21.1530    4.1910   20.5940 C.2     1  THR1        0.2287
      4  O        -20.5040    4.9170   19.8350 O.2     1  THR1       -0.2866
      5  CB       -21.9300    1.9590   19.8180 C.3     1  THR1        0.1770
      6  OG1      -23.1330    1.5110   19.1730 O.3     1  THR1       -0.2211
      7  CG2      -21.4850    1.1400   21.0490 C.3     1  THR1        0.0375
      8  N        -25.1560    2.2930   23.8930 N.3    19  THR19      -0.1218
      9  CA       -25.6100    2.5640   22.5440 C.3    19  THR19       0.1862
     10  C        -27.1020    2.8860   22.4360 C.2    19  THR19       0.2287
     11  O        -27.8780    2.6140   23.3660 O.2    19  THR19      -0.2866
     12  CB       -25.3160    1.3560   21.6400 C.3    19  THR19       0.1770
     13  OG1      -25.5740    1.7080   20.2740 O.3    19  THR19      -0.2211
     14  CG2      -26.1800    0.1520   22.0340 C.3    19  THR19       0.0375
     15  N        -28.1520    2.0420   19.1990 N.3    21  GLU21      -0.1245
     16  CA       -28.0840    1.2540   17.9560 C.3    21  GLU21       0.1567
     17  C        -27.4600    2.1000   16.8260 C.2    21  GLU21       0.2260
     18  O        -26.2470    2.4050   16.9030 O.2    21  GLU21      -0.2867
     19  CB       -29.4100    0.5460   17.5980 C.3    21  GLU21       0.0388
     20  CG       -29.2220   -0.7610   16.7890 C.3    21  GLU21       0.1160
     21  CD       -28.2600   -0.6370   15.6260 C.2    21  GLU21       0.3649
     22  OE1      -28.7300   -0.5070   14.4750 O.co2  21  GLU21      -0.2457
     23  OE2      -27.0200   -0.6970   15.8400 O.co2  21  GLU21      -0.2457
     24  N        -32.8020   -0.6380   18.6600 N.3    40  GLU40      -0.1245
     25  CA       -31.9800   -1.8140   18.9930 C.3    40  GLU40       0.1567
     26  C        -32.5530   -3.1240   18.4790 C.2    40  GLU40       0.2260
     27  O        -31.8120   -4.0530   18.2260 O.2    40  GLU40      -0.2867
     28  CB       -31.7490   -1.9290   20.5180 C.3    40  GLU40       0.0388
     29  CG       -30.2900   -2.4030   20.8640 C.3    40  GLU40       0.1160
     30  CD       -29.2650   -1.2910   20.7020 C.2    40  GLU40       0.3649
     31  OE1      -29.4230   -0.1990   21.3020 O.co2  40  GLU40      -0.2457
     32  OE2      -28.3020   -1.5100   19.9640 O.co2  40  GLU40      -0.2457
     33  N        -31.2890   -5.3400   15.5980 N.3    43  ASP43      -0.1239
     34  CA       -30.1770   -6.2680   15.7760 C.3    43  ASP43       0.1674
     35  C        -30.7030   -7.7070   15.7680 C.2    43  ASP43       0.2266
     36  O        -29.9470   -8.6200   15.5910 O.2    43  ASP43      -0.2867
     37  CB       -29.4110   -5.9930   17.0830 C.3    43  ASP43       0.1410
     38  CG       -28.3610   -4.9000   16.9470 C.2    43  ASP43       0.3668
     39  OD1      -28.1450   -4.3610   15.8230 O.co2  43  ASP43      -0.2456
     40  OD2      -27.7230   -4.5940   17.9940 O.co2  43  ASP43      -0.2456
     41  N        -29.3630   -9.9490   19.8890 N.3    61  LEU61      -0.1231
     42  CA       -27.9300  -10.2220   19.9840 C.3    61  LEU61       0.1693
     43  C        -27.1040   -8.9460   19.7520 C.2    61  LEU61       0.2593
     44  O        -27.3470   -8.1870   18.7870 O.2    61  LEU61      -0.2718
     45  CB       -27.5270  -11.2730   18.9500 C.3    61  LEU61       0.0284
     46  CG       -26.0510  -11.6490   18.9400 C.3    61  LEU61       0.0019
     47  CD1      -25.7530  -12.4970   20.1750 C.3    61  LEU61       0.0001
     48  CD2      -25.7630  -12.4260   17.6380 C.3    61  LEU61       0.0001
     49  N        -26.1210   -8.7170   20.6330 N.am   62  SER62      -0.1938
     50  CA       -25.2030   -7.5900   20.5110 C.3    62  SER62       0.2055
     51  C        -23.8260   -8.0720   20.0380 C.2    62  SER62       0.2644
     52  O        -23.5550   -9.2650   20.0480 O.2    62  SER62      -0.2714
     53  CB       -25.0520   -6.8940   21.8780 C.3    62  SER62       0.2130
     54  OG       -24.2700   -5.7040   21.7770 O.3    62  SER62      -0.2179
     55  N        -22.9790   -7.1410   19.6090 N.am   63  SER63      -0.1935
     56  CA       -21.5580   -7.4450   19.4420 C.3    63  SER63       0.2055
     57  C        -20.7060   -6.6270   20.4050 C.2    63  SER63       0.2642
     58  O        -19.4610   -6.6360   20.3250 O.2    63  SER63      -0.2714
     59  CB       -21.1130   -7.1750   18.0120 C.3    63  SER63       0.2130
     60  OG       -21.8690   -7.9510   17.0940 O.3    63  SER63      -0.2179
     61  N        -21.3440   -5.9110   21.3300 N.am   64  MET64      -0.1976
     62  CA       -20.5530   -5.1000   22.2750 C.3    64  MET64       0.1605
     63  C        -19.6700   -5.9800   23.1600 C.2    64  MET64       0.2287
     64  O        -20.1040   -7.0350   23.6660 O.2    64  MET64      -0.2864
     65  CB       -21.4400   -4.1630   23.1160 C.3    64  MET64       0.0413
     66  CG       -22.0920   -3.0700   22.2610 C.3    64  MET64       0.0598
     67  SD       -23.0400   -1.9320   23.2580 S.3    64  MET64      -0.1393
     68  CE       -24.6290   -2.8070   23.3900 C.3    64  MET64       0.0692
     69  N        -19.1650    0.1430   17.1140 N.3    83  GLY83      -0.1210
     70  CA       -19.0050   -0.2550   15.7160 C.3    83  GLY83       0.1956
     71  C        -19.7820   -1.4650   15.2500 C.2    83  GLY83       0.2612
     72  O        -19.4290   -2.0520   14.2240 O.2    83  GLY83      -0.2717
     73  N        -20.8690   -1.8170   15.9500 N.am   84  GLY84      -0.1956
     74  CA       -21.6890   -2.9780   15.5420 C.3    84  GLY84       0.1869
     75  C        -20.8820   -4.2670   15.4440 C.2    84  GLY84       0.2309
     76  O        -20.0400   -4.5400   16.2940 O.2    84  GLY84      -0.2863
     77  N        -17.0590   -4.4650   16.1890 N.3    87  ILE87      -0.1245
     78  CA       -16.5050   -4.3550   17.5410 C.3    87  ILE87       0.1561
     79  C        -15.5970   -5.5190   17.9170 C.2    87  ILE87       0.2260
     80  O        -14.5060   -5.3160   18.4830 O.2    87  ILE87      -0.2867
     81  CB       -17.6310   -4.2560   18.6140 C.3    87  ILE87       0.0252
     82  CG1      -18.3480   -2.9030   18.4880 C.3    87  ILE87       0.0019
     83  CG2      -17.0380   -4.3950   20.0310 C.3    87  ILE87       0.0019
     84  CD1      -19.7080   -2.8570   19.2750 C.3    87  ILE87       0.0001
@<TRIPOS>BOND
     1    72    71    2
     2    22    21   ar
     3    71    70    1
     4    71    73   am
     5    75    74    1
     6    75    76    2
     7    74    73    1
     8    36    35    2
     9    33    34    1
    10    21    23   ar
    11    21    20    1
    12    70    69    1
    13    35    34    1
    14    34    37    1
    15    39    38   ar
    16    77    78    1
    17    20    19    1
    18    17    18    2
    19    17    16    1
    20    38    37    1
    21    38    40   ar
    22    60    59    1
    23    78    79    1
    24    78    81    1
    25    19    16    1
    26    48    46    1
    27    79    80    2
    28    16    15    1
    29    59    56    1
    30    27    26    2
    31    26    25    1
    32    82    81    1
    33    82    84    1
    34    81    83    1
    35    24    25    1
    36    44    43    2
    37    46    45    1
    38    46    47    1
    39    45    42    1
    40     1     2    1
    41    25    28    1
    42     6     5    1
    43    56    55    1
    44    56    57    1
    45    55    51   am
    46    43    42    1
    47    43    49   am
    48     5     2    1
    49     5     7    1
    50     4     3    2
    51    41    42    1
    52    32    30   ar
    53    51    52    2
    54    51    50    1
    55     2     3    1
    56    13    12    1
    57    58    57    2
    58    57    61   am
    59    50    49    1
    60    50    53    1
    61    28    29    1
    62    30    29    1
    63    30    31   ar
    64    61    62    1
    65    12    14    1
    66    12     9    1
    67    54    53    1
    68    66    65    1
    69    66    67    1
    70    62    65    1
    71    62    63    1
    72    10     9    1
    73    10    11    2
    74     9     8    1
    75    63    64    2
    76    67    68    1
