@<TRIPOS>MOLECULE
tmp/3whwB00.pdb
 128 122 0 0 0
SMALL
GASTEIGER

@<TRIPOS>ATOM
      1  N         35.1720  -38.4900   12.6390 N.3     5  TYR5       -0.1227
      2  CA        35.0280  -39.8840   12.2530 C.3     5  TYR5        0.1736
      3  C         34.4980  -39.9570   10.8310 C.2     5  TYR5        0.2596
      4  O         33.8390  -39.0320   10.3640 O.2     5  TYR5       -0.2718
      5  CB        34.0820  -40.6010   13.2070 C.3     5  TYR5        0.0548
      6  CG        34.6560  -40.8370   14.5850 C.ar    5  TYR5       -0.0200
      7  CD1       34.4740  -39.9080   15.6020 C.ar    5  TYR5       -0.0009
      8  CD2       35.3810  -41.9910   14.8710 C.ar    5  TYR5       -0.0009
      9  CE1       35.0020  -40.1170   16.8700 C.ar    5  TYR5        0.0417
     10  CE2       35.9040  -42.2140   16.1370 C.ar    5  TYR5        0.0417
     11  CZ        35.7120  -41.2730   17.1320 C.ar    5  TYR5        0.1957
     12  OH        36.2310  -41.4860   18.3900 O.3     5  TYR5       -0.2866
     13  N         34.7870  -41.0550   10.1430 N.am    6  THR6       -0.1939
     14  CA        34.2730  -41.2590    8.7920 C.3     6  THR6        0.2028
     15  C         33.3390  -42.4580    8.7240 C.2     6  THR6        0.2642
     16  O         33.4780  -43.4120    9.4890 O.2     6  THR6       -0.2714
     17  CB        35.4040  -41.4430    7.7690 C.3     6  THR6        0.1808
     18  OG1       36.2580  -42.5150    8.1890 O.3     6  THR6       -0.2208
     19  CG2       36.2150  -40.1650    7.6530 C.3     6  THR6        0.0379
     20  N         32.3820  -42.3970    7.8050 N.am    7  LEU7       -0.1977
     21  CA        31.4660  -43.5040    7.5690 C.3     7  LEU7        0.1596
     22  C         31.1660  -43.6210    6.0850 C.2     7  LEU7        0.2287
     23  O         30.5980  -42.7070    5.4870 O.2     7  LEU7       -0.2864
     24  CB        30.1700  -43.3120    8.3500 C.3     7  LEU7        0.0297
     25  CG        29.2120  -44.4980    8.3410 C.3     7  LEU7        0.0022
     26  CD1       29.8810  -45.6820    8.9950 C.3     7  LEU7        0.0001
     27  CD2       27.8830  -44.1530    9.0110 C.3     7  LEU7        0.0001
     28  N         31.6820  -55.6470   12.2190 N.3    21  LYS21      -0.1245
     29  CA        32.7790  -55.1760   13.0590 C.3    21  LYS21       0.1561
     30  C         33.1110  -56.2730   14.0610 C.2    21  LYS21       0.2260
     31  O         32.2530  -56.6970   14.8340 O.2    21  LYS21      -0.2867
     32  CB        32.3900  -53.8780   13.7710 C.3    21  LYS21       0.0271
     33  CG        33.5460  -53.1290   14.4250 C.3    21  LYS21       0.0035
     34  CD        34.3720  -52.3500   13.4080 C.3    21  LYS21       0.0206
     35  CE        35.5210  -51.6110   14.0800 C.3    21  LYS21       0.1093
     36  NZ        35.0420  -50.7260   15.1740 N.3    21  LYS21      -0.1314
     37  N         35.0080  -50.8620   19.3380 N.3    25  PHE25      -0.1241
     38  CA        33.7810  -50.0680   19.3150 C.3    25  PHE25       0.1605
     39  C         32.8320  -50.5170   18.2080 C.2    25  PHE25       0.2264
     40  O         33.2060  -50.5680   17.0350 O.2    25  PHE25      -0.2867
     41  CB        34.1250  -48.5820   19.1430 C.3    25  PHE25       0.0534
     42  CG        32.9540  -47.6510   19.3030 C.ar   25  PHE25      -0.0203
     43  CD1       32.5100  -47.2850   20.5670 C.ar   25  PHE25      -0.0042
     44  CD2       32.3090  -47.1270   18.1900 C.ar   25  PHE25      -0.0042
     45  CE1       31.4340  -46.4180   20.7220 C.ar   25  PHE25      -0.0003
     46  CE2       31.2320  -46.2570   18.3340 C.ar   25  PHE25      -0.0003
     47  CZ        30.7940  -45.9030   19.6030 C.ar   25  PHE25      -0.0000
     48  N         28.1780  -52.5290   10.2740 N.3    31  ASN31      -0.1225
     49  CA        28.5300  -51.1160   10.1840 C.3    31  ASN31       0.1785
     50  C         28.9540  -50.7460    8.7750 C.2    31  ASN31       0.2598
     51  O         29.2470  -51.6140    7.9520 O.2    31  ASN31      -0.2718
     52  CB        29.6800  -50.7840   11.1380 C.3    31  ASN31       0.1169
     53  CG        29.2320  -50.6680   12.5770 C.2    31  ASN31       0.2627
     54  OD1       29.4920  -51.5500   13.3840 O.2    31  ASN31      -0.2716
     55  ND2       28.5400  -49.5940   12.9010 N.am   31  ASN31      -0.0877
     56  N         28.9540  -49.4470    8.4940 N.am   32  GLY32      -0.1942
     57  CA        29.5860  -48.9340    7.2990 C.3    32  GLY32       0.2014
     58  C         31.0750  -48.9110    7.5760 C.2    32  GLY32       0.2639
     59  O         31.5120  -49.2720    8.6680 O.2    32  GLY32      -0.2714
     60  N         31.8640  -48.5030    6.5920 N.am   33  PHE33      -0.1959
     61  CA        33.3070  -48.4910    6.7610 C.3    33  PHE33       0.1771
     62  C         33.8250  -47.0950    7.1030 C.2    33  PHE33       0.2620
     63  O         33.2700  -46.0830    6.6610 O.2    33  PHE33      -0.2715
     64  CB        33.9880  -49.0520    5.5160 C.3    33  PHE33       0.0574
     65  CG        33.5340  -50.4380    5.1570 C.ar   33  PHE33      -0.0200
     66  CD1       34.1160  -51.5520    5.7500 C.ar   33  PHE33      -0.0042
     67  CD2       32.5150  -50.6300    4.2390 C.ar   33  PHE33      -0.0042
     68  CE1       33.6950  -52.8270    5.4260 C.ar   33  PHE33      -0.0003
     69  CE2       32.0910  -51.9040    3.9090 C.ar   33  PHE33      -0.0003
     70  CZ        32.6810  -53.0030    4.5040 C.ar   33  PHE33      -0.0000
     71  N         34.8810  -47.0540    7.9100 N.am   34  GLY34      -0.1940
     72  CA        35.4750  -45.7980    8.3310 C.3    34  GLY34       0.2014
     73  C         36.2520  -45.9430    9.6250 C.2    34  GLY34       0.2639
     74  O         36.5290  -47.0570   10.0700 O.2    34  GLY34      -0.2714
     75  N         36.5760  -44.8090   10.2370 N.am   35  GLY35      -0.1939
     76  CA        37.3290  -44.7810   11.4730 C.3    35  GLY35       0.2014
     77  C         37.7420  -43.3650   11.7900 C.2    35  GLY35       0.2638
     78  O         37.1850  -42.4040   11.2640 O.2    35  GLY35      -0.2714
     79  N         38.7250  -43.2260   12.6550 N.am   36  LYS36      -0.1977
     80  CA        39.2190  -41.9020   13.0150 C.3    36  LYS36       0.1596
     81  C         39.9650  -41.2100   11.9010 C.2    36  LYS36       0.2287
     82  O         40.5450  -41.8600   11.0380 O.2    36  LYS36      -0.2864
     83  CB        40.1040  -41.9980   14.2340 C.3    36  LYS36       0.0298
     84  CG        39.3280  -42.2380   15.5010 C.3    36  LYS36       0.0038
     85  CD        40.1660  -43.0580   16.4260 C.3    36  LYS36       0.0206
     86  CE        39.8230  -42.7590   17.8590 C.3    36  LYS36       0.1093
     87  NZ        40.9290  -43.2790   18.7130 N.3    36  LYS36      -0.1314
     88  N         40.4660  -45.8990    5.3840 N.3    50  GLU50      -0.1245
     89  CA        39.8100  -46.9030    6.2150 C.3    50  GLU50       0.1567
     90  C         39.0220  -47.9070    5.3800 C.2    50  GLU50       0.2260
     91  O         38.9110  -49.0750    5.7500 O.2    50  GLU50      -0.2867
     92  CB        38.9020  -46.2540    7.2650 C.3    50  GLU50       0.0388
     93  CG        39.6340  -45.5190    8.3900 C.3    50  GLU50       0.1160
     94  CD        40.2770  -46.4540    9.4110 C.2    50  GLU50       0.3649
     95  OE1       40.2260  -47.6880    9.2230 O.co2  50  GLU50      -0.2457
     96  OE2       40.8320  -45.9480   10.4120 O.co2  50  GLU50      -0.2457
     97  N         39.8410  -51.9550    5.6610 N.3    54  GLU54      -0.1245
     98  CA        38.7840  -52.7940    6.2130 C.3    54  GLU54       0.1567
     99  C         38.0890  -53.6810    5.1860 C.2    54  GLU54       0.2260
    100  O         37.4880  -54.6910    5.5420 O.2    54  GLU54      -0.2867
    101  CB        37.7580  -51.9290    6.9380 C.3    54  GLU54       0.0388
    102  CG        38.3160  -51.2410    8.1680 C.3    54  GLU54       0.1160
    103  CD        37.3340  -50.2790    8.7760 C.2    54  GLU54       0.3649
    104  OE1       36.3620  -49.9300    8.0790 O.co2  54  GLU54      -0.2457
    105  OE2       37.5390  -49.8720    9.9400 O.co2  54  GLU54      -0.2457
    106  N         31.1570  -37.2280   19.0190 N.3    79  MET79      -0.1245
    107  CA        31.6160  -37.9360   17.8340 C.3    79  MET79       0.1570
    108  C         31.0660  -37.3050   16.5650 C.2    79  MET79       0.2261
    109  O         29.8830  -37.4100   16.2680 O.2    79  MET79      -0.2867
    110  CB        31.2520  -39.4060   17.9470 C.3    79  MET79       0.0387
    111  CG        31.9040  -40.0460   19.2080 C.3    79  MET79       0.0595
    112  SD        31.4870  -41.7390   19.4520 S.3    79  MET79      -0.1393
    113  CE        32.2600  -41.6890   17.9590 C.3    79  MET79       0.0692
    114  N         30.7480  -37.5940   13.0050 N.3    81  VAL81      -0.1245
    115  CA        30.8760  -38.5430   11.9110 C.3    81  VAL81       0.1561
    116  C         30.4780  -37.9150   10.5810 C.2    81  VAL81       0.2260
    117  O         29.3410  -37.4840   10.4070 O.2    81  VAL81      -0.2867
    118  CB        30.0180  -39.8020   12.1480 C.3    81  VAL81       0.0252
    119  CG1       30.1740  -40.7660   10.9870 C.3    81  VAL81       0.0019
    120  CG2       30.3900  -40.4660   13.4620 C.3    81  VAL81       0.0019
    121  N         36.9260  -55.8910    9.8300 N.3    99  MET99      -0.1245
    122  CA        35.5830  -55.9340    9.2620 C.3    99  MET99       0.1570
    123  C         35.4240  -57.1290    8.3410 C.2    99  MET99       0.2261
    124  O         36.3690  -57.5140    7.6440 O.2    99  MET99      -0.2867
    125  CB        35.2930  -54.6670    8.4570 C.3    99  MET99       0.0387
    126  CG        35.5230  -53.3690    9.1980 C.3    99  MET99       0.0595
    127  SD        34.1930  -52.9530   10.3220 S.3    99  MET99      -0.1393
    128  CE        32.9510  -52.3670    9.1690 C.3    99  MET99       0.0692
@<TRIPOS>BOND
     1    69    67   ar
     2    69    70   ar
     3    67    65   ar
     4    70    68   ar
     5    65    64    1
     6    65    66   ar
     7    99   100    2
     8    99    98    1
     9    90    91    2
    10    90    89    1
    11    88    89    1
    12    68    66   ar
    13    23    22    2
    14    64    61    1
    15    97    98    1
    16    22    21    1
    17    98   101    1
    18    89    92    1
    19    60    61    1
    20    60    58   am
    21    63    62    2
    22    61    62    1
    23   101   102    1
    24    62    71   am
    25    92    93    1
    26    57    58    1
    27    57    56    1
    28    21    20    1
    29    21    24    1
    30    58    59    2
    31   124   123    2
    32    19    17    1
    33    17    18    1
    34    17    14    1
    35    20    15   am
    36    71    72    1
    37    51    50    2
    38   104   103   ar
    39   102   103    1
    40    72    73    1
    41    25    24    1
    42    25    26    1
    43    25    27    1
    44   123   122    1
    45    93    94    1
    46   125   126    1
    47   125   122    1
    48    56    50   am
    49    15    14    1
    50    15    16    2
    51    50    49    1
    52   103   105   ar
    53    14    13    1
    54   128   127    1
    55   126   127    1
    56    95    94   ar
    57   122   121    1
    58    94    96   ar
    59    73    74    2
    60    73    75   am
    61    13     3   am
    62    49    48    1
    63    49    52    1
    64    75    76    1
    65     4     3    2
    66   117   116    2
    67   116   115    1
    68     3     2    1
    69   119   118    1
    70    82    81    2
    71    52    53    1
    72    78    77    2
    73    76    77    1
    74    77    79   am
    75    81    80    1
    76   115   118    1
    77   115   114    1
    78   118   120    1
    79    28    29    1
    80     2     1    1
    81     2     5    1
    82    53    55   am
    83    53    54    2
    84    79    80    1
    85    80    83    1
    86    29    32    1
    87    29    30    1
    88     5     6    1
    89    34    35    1
    90    34    33    1
    91    32    33    1
    92    30    31    2
    93    35    36    1
    94    83    84    1
    95     6     8   ar
    96     6     7   ar
    97     8    10   ar
    98    84    85    1
    99     7     9   ar
   100    10    11   ar
   101   109   108    2
   102    85    86    1
   103   108   107    1
   104     9    11   ar
   105    40    39    2
   106    11    12    1
   107   107   110    1
   108   107   106    1
   109    86    87    1
   110   110   111    1
   111   113   112    1
   112    44    46   ar
   113    44    42   ar
   114    39    38    1
   115    46    47   ar
   116    41    42    1
   117    41    38    1
   118   111   112    1
   119    42    43   ar
   120    38    37    1
   121    47    45   ar
   122    43    45   ar
