@<TRIPOS>MOLECULE
tmp/3wi2B00.pdb
 214 210 0 0 0
SMALL
GASTEIGER

@<TRIPOS>ATOM
      1  N         10.3620   25.4520   48.7300 N.3    78  TYR78      -0.1227
      2  CA        11.5710   26.0800   49.2500 C.3    78  TYR78       0.1736
      3  C         11.4030   27.4660   49.8170 C.2    78  TYR78       0.2595
      4  O         11.9210   27.7690   50.8850 O.2    78  TYR78      -0.2718
      5  CB        12.6370   26.1930   48.1500 C.3    78  TYR78       0.0548
      6  CG        13.9270   26.8030   48.6710 C.ar   78  TYR78      -0.0200
      7  CD1       14.5450   26.2780   49.8090 C.ar   78  TYR78      -0.0009
      8  CD2       14.4980   27.9160   48.0620 C.ar   78  TYR78      -0.0009
      9  CE1       15.7230   26.8340   50.3160 C.ar   78  TYR78       0.0417
     10  CE2       15.6770   28.4830   48.5530 C.ar   78  TYR78       0.0417
     11  CZ        16.2870   27.9290   49.6790 C.ar   78  TYR78       0.1957
     12  OH        17.4540   28.4450   50.1860 O.3    78  TYR78      -0.2866
     13  N         10.7690   28.3330   49.0470 N.am   79  HIS79      -0.1975
     14  CA        10.7190   29.7340   49.3880 C.3    79  HIS79       0.1656
     15  C          9.5770   29.8970   50.4140 C.2    79  HIS79       0.2291
     16  O          8.5900   30.6150   50.2080 O.2    79  HIS79      -0.2864
     17  CB        10.5510   30.5900   48.1100 C.3    79  HIS79       0.0771
     18  CG        11.7980   30.7220   47.2800 C.ar   79  HIS79       0.0820
     19  ND1       11.9000   30.2230   45.9950 N.ar   79  HIS79      -0.2267
     20  CD2       13.0030   31.2850   47.5600 C.ar   79  HIS79       0.1154
     21  CE1       13.1030   30.5010   45.5120 C.ar   79  HIS79       0.1986
     22  NE2       13.7910   31.1470   46.4400 N.ar   79  HIS79      -0.2212
     23  N         19.3370   37.8500   43.0960 N.3   189  LEU189     -0.1245
     24  CA        20.6630   37.3370   42.6790 C.3   189  LEU189      0.1561
     25  C         21.2370   37.9430   41.4290 C.2   189  LEU189      0.2260
     26  O         22.4420   37.8770   41.2160 O.2   189  LEU189     -0.2867
     27  CB        20.6410   35.8310   42.4110 C.3   189  LEU189      0.0270
     28  CG        21.5260   34.8450   43.1720 C.3   189  LEU189      0.0019
     29  CD1       22.2050   33.9640   42.1380 C.3   189  LEU189      0.0001
     30  CD2       22.5480   35.5020   44.1060 C.3   189  LEU189      0.0001
     31  N         21.2440   34.4440   52.1320 N.3   228  ASP228     -0.1225
     32  CA        20.3910   33.8230   51.1690 C.3   228  ASP228      0.1805
     33  C         20.7710   32.4690   50.6360 C.2   228  ASP228      0.2597
     34  O         19.9300   31.6960   50.2360 O.2   228  ASP228     -0.2718
     35  CB        20.0050   34.7940   50.0350 C.3   228  ASP228      0.1424
     36  CG        18.4460   34.5000   49.5590 C.2   228  ASP228      0.3668
     37  OD1       17.9400   33.5510   50.0320 O.co2 228  ASP228     -0.2456
     38  OD2       18.0000   34.9250   48.5670 O.co2 228  ASP228     -0.2456
     39  N         22.0660   32.1440   50.6390 N.am  229  LEU229     -0.1979
     40  CA        22.4620   30.9180   49.9790 C.3   229  LEU229      0.1596
     41  C         22.9780   29.9350   51.0020 C.2   229  LEU229      0.2287
     42  O         23.5840   28.9310   50.6350 O.2   229  LEU229     -0.2864
     43  CB        23.5370   31.1930   48.9220 C.3   229  LEU229      0.0297
     44  CG        23.5020   32.3350   47.9010 C.3   229  LEU229      0.0022
     45  CD1       24.8880   32.3620   47.2780 C.3   229  LEU229      0.0001
     46  CD2       22.4570   32.2180   46.7890 C.3   229  LEU229      0.0001
     47  N         22.3390   27.4820   52.6880 N.3   231  SER231     -0.1202
     48  CA        22.1630   26.0160   52.6630 C.3   231  SER231      0.2020
     49  C         23.3890   25.2770   52.0980 C.2   231  SER231      0.2618
     50  O         23.6470   24.1070   52.4320 O.2   231  SER231     -0.2717
     51  CB        20.9800   25.6370   51.8170 C.3   231  SER231      0.2103
     52  OG        21.3780   25.6890   50.4740 O.3   231  SER231     -0.2182
     53  N         24.1190   25.9610   51.2270 N.am  232  VAL232     -0.1979
     54  CA        25.4530   25.5300   50.8110 C.3   232  VAL232      0.1595
     55  C         26.4740   25.5660   51.9710 C.2   232  VAL232      0.2287
     56  O         27.6130   25.1180   51.8250 O.2   232  VAL232     -0.2864
     57  CB        25.9410   26.3490   49.5760 C.3   232  VAL232      0.0276
     58  CG1       24.8770   26.3890   48.4730 C.3   232  VAL232      0.0022
     59  CG2       26.2980   27.7760   49.9530 C.3   232  VAL232      0.0022
     60  N         22.5370   20.0570   53.4740 N.3   239  THR239     -0.1218
     61  CA        22.8350   20.5110   52.0790 C.3   239  THR239      0.1862
     62  C         22.0930   19.7190   50.9750 C.2   239  THR239      0.2287
     63  O         21.4470   20.3090   50.1040 O.2   239  THR239     -0.2866
     64  CB        24.3630   20.4380   51.7310 C.3   239  THR239      0.1770
     65  OG1       25.1560   21.2750   52.6090 O.3   239  THR239     -0.2211
     66  CG2       24.5880   20.8630   50.2660 C.3   239  THR239      0.0375
     67  N         18.6450   20.9610   48.5580 N.3   243  ALA243     -0.1245
     68  CA        18.6100   20.9420   47.0940 C.3   243  ALA243      0.1562
     69  C         17.3120   20.3280   46.5200 C.2   243  ALA243      0.2260
     70  O         16.7990   20.8240   45.5270 O.2   243  ALA243     -0.2867
     71  CB        19.7940   20.2230   46.5320 C.3   243  ALA243      0.0290
     72  N         14.7270   23.0330   46.7760 N.3   246  ILE246     -0.1231
     73  CA        14.9750   24.0620   45.7640 C.3   246  ILE246      0.1692
     74  C         14.6190   23.4420   44.3790 C.2   246  ILE246      0.2592
     75  O         14.0990   24.1180   43.5020 O.2   246  ILE246     -0.2718
     76  CB        16.4770   24.5120   45.7360 C.3   246  ILE246      0.0266
     77  CG1       16.8260   25.5150   46.8090 C.3   246  ILE246      0.0019
     78  CG2       16.7520   25.4190   44.5620 C.3   246  ILE246      0.0020
     79  CD1       17.0520   24.9400   48.1390 C.3   246  ILE246      0.0001
     80  N         14.9270   22.1710   44.1570 N.am  247  TYR247     -0.1976
     81  CA        14.6740   21.6080   42.8100 C.3   247  TYR247      0.1639
     82  C         13.1850   21.3430   42.5110 C.2   247  TYR247      0.2290
     83  O         12.7340   21.5540   41.3730 O.2   247  TYR247     -0.2864
     84  CB        15.5220   20.3990   42.5270 C.3   247  TYR247      0.0560
     85  CG        16.8880   20.8030   42.0100 C.ar  247  TYR247     -0.0198
     86  CD1       18.0250   20.7220   42.8190 C.ar  247  TYR247     -0.0009
     87  CD2       17.0340   21.3050   40.7310 C.ar  247  TYR247     -0.0009
     88  CE1       19.2690   21.1210   42.3490 C.ar  247  TYR247      0.0417
     89  CE2       18.2600   21.7180   40.2590 C.ar  247  TYR247      0.0417
     90  CZ        19.3800   21.6140   41.0650 C.ar  247  TYR247      0.1957
     91  OH        20.5960   22.0030   40.5680 O.3   247  TYR247     -0.2866
     92  N         12.0870   24.5090   41.3330 N.3   250  PHE250     -0.1227
     93  CA        12.6080   24.7110   39.9920 C.3   250  PHE250      0.1736
     94  C         11.7690   23.9360   38.9990 C.2   250  PHE250      0.2595
     95  O         11.3120   24.4900   37.9930 O.2   250  PHE250     -0.2718
     96  CB        14.0720   24.2550   39.8850 C.3   250  PHE250      0.0547
     97  CG        15.0420   25.1750   40.5380 C.ar  250  PHE250     -0.0202
     98  CD1       14.6440   26.4200   40.9910 C.ar  250  PHE250     -0.0042
     99  CD2       16.3940   24.8090   40.6620 C.ar  250  PHE250     -0.0042
    100  CE1       15.5380   27.2910   41.5770 C.ar  250  PHE250     -0.0003
    101  CE2       17.2910   25.6630   41.2730 C.ar  250  PHE250     -0.0003
    102  CZ        16.8710   26.9160   41.7030 C.ar  250  PHE250     -0.0000
    103  N         11.5840   22.6490   39.2790 N.am  251  TRP251     -0.1976
    104  CA        10.9430   21.7630   38.2920 C.3   251  TRP251      0.1640
    105  C          9.4960   22.1070   38.0170 C.2   251  TRP251      0.2290
    106  O          9.0700   22.0380   36.8780 O.2   251  TRP251     -0.2864
    107  CB        11.1220   20.3080   38.6650 C.3   251  TRP251      0.0576
    108  CG        12.5580   19.9610   38.7040 C.ar  251  TRP251      0.0006
    109  CD1       13.5800   20.5680   37.9810 C.ar  251  TRP251      0.0946
    110  CD2       13.1760   18.9290   39.4780 C.ar  251  TRP251      0.0152
    111  NE1       14.7780   19.9710   38.2820 N.ar  251  TRP251     -0.2442
    112  CE2       14.5670   18.9610   39.1800 C.ar  251  TRP251      0.0810
    113  CE3       12.6960   17.9720   40.3850 C.ar  251  TRP251      0.0012
    114  CZ2       15.4860   18.0780   39.7770 C.ar  251  TRP251      0.0191
    115  CZ3       13.5980   17.0910   40.9730 C.ar  251  TRP251      0.0001
    116  CH2       14.9870   17.1600   40.6750 C.ar  251  TRP251      0.0015
    117  N         17.7690   23.6880   31.3280 N.3   266  PRO266     -0.2102
    118  CA        17.9200   22.3710   31.9590 C.3   266  PRO266      0.1504
    119  C         17.7340   22.3310   33.4710 C.2   266  PRO266      0.2575
    120  O         17.3800   21.2950   34.0180 O.2   266  PRO266     -0.2718
    121  CB        19.3420   21.9340   31.5430 C.3   266  PRO266      0.0282
    122  CG        19.5750   22.6090   30.2240 C.3   266  PRO266      0.0208
    123  CD        18.8560   23.9440   30.3510 C.3   266  PRO266      0.0893
    124  N         17.9330   23.4520   34.1380 N.am  267  MET267     -0.1980
    125  CA        17.9420   23.4860   35.5950 C.3   267  MET267      0.1605
    126  C         16.5090   23.3420   36.0820 C.2   267  MET267      0.2287
    127  O         16.2430   22.9040   37.2010 O.2   267  MET267     -0.2864
    128  CB        18.5240   24.8200   36.0330 C.3   267  MET267      0.0413
    129  CG        18.4170   25.1730   37.5040 C.3   267  MET267      0.0598
    130  SD        18.3100   26.9710   37.5220 S.3   267  MET267     -0.1393
    131  CE        20.0290   27.4340   37.2800 C.3   267  MET267      0.0692
    132  N         14.2270   21.6360   34.2230 N.3   269  ASP269     -0.1239
    133  CA        13.7000   20.4000   33.6440 C.3   269  ASP269      0.1674
    134  C         14.0090   19.1950   34.5180 C.2   269  ASP269      0.2266
    135  O         15.1680   18.9300   34.8520 O.2   269  ASP269     -0.2867
    136  CB        14.2350   20.1760   32.2410 C.3   269  ASP269      0.1410
    137  CG        13.3990   19.1800   31.4570 C.2   269  ASP269      0.3668
    138  OD1       12.5120   18.5050   32.0430 O.co2 269  ASP269     -0.2456
    139  OD2       13.6380   19.0650   30.2410 O.co2 269  ASP269     -0.2456
    140  N         16.2080   16.2340   33.5970 N.3   272  LYS272     -0.1245
    141  CA        17.6220   16.5860   33.4980 C.3   272  LYS272      0.1561
    142  C         18.3300   16.3640   34.8330 C.2   272  LYS272      0.2260
    143  O         19.4660   16.7740   34.9930 O.2   272  LYS272     -0.2867
    144  CB        17.8200   18.0290   33.0000 C.3   272  LYS272      0.0271
    145  CG        17.3950   18.2800   31.5620 C.3   272  LYS272      0.0035
    146  CD        18.5130   18.1660   30.5450 C.3   272  LYS272      0.0206
    147  CE        17.9550   18.1720   29.1250 C.3   272  LYS272      0.1093
    148  NZ        17.5220   19.5110   28.6260 N.3   272  LYS272     -0.1314
    149  N         21.9730   15.9360   35.4390 N.3   275  GLU275     -0.1231
    150  CA        22.9390   17.0330   35.3200 C.3   275  GLU275      0.1699
    151  C         23.0930   17.8850   36.5810 C.2   275  GLU275      0.2592
    152  O         23.9450   18.7750   36.6350 O.2   275  GLU275     -0.2718
    153  CB        22.6270   17.8970   34.1000 C.3   275  GLU275      0.0402
    154  CG        23.0190   17.2550   32.7630 C.3   275  GLU275      0.1161
    155  CD        22.4400   17.9870   31.5560 C.2   275  GLU275      0.3649
    156  OE1       22.6040   19.2290   31.4630 O.co2 275  GLU275     -0.2457
    157  OE2       21.8210   17.3200   30.6980 O.co2 275  GLU275     -0.2457
    158  N         22.2880   17.6000   37.6030 N.am  276  VAL276     -0.1980
    159  CA        22.3730   18.3170   38.8910 C.3   276  VAL276      0.1595
    160  C         23.8260   18.4370   39.4410 C.2   276  VAL276      0.2287
    161  O         24.2680   19.5410   39.7880 O.2   276  VAL276     -0.2864
    162  CB        21.4320   17.6780   39.9400 C.3   276  VAL276      0.0276
    163  CG1       21.8700   18.0200   41.3450 C.3   276  VAL276      0.0022
    164  CG2       19.9770   18.0990   39.6940 C.3   276  VAL276      0.0022
    165  N         25.6900   20.7960   37.4880 N.3   279  GLY279     -0.1210
    166  CA        25.0970   22.1070   37.7660 C.3   279  GLY279      0.1956
    167  C         25.4960   22.6820   39.1310 C.2   279  GLY279      0.2611
    168  O         25.9030   23.8560   39.2440 O.2   279  GLY279     -0.2717
    169  N         25.3600   21.8810   40.1850 N.am  280  GLN280     -0.1979
    170  CA        25.7740   22.3250   41.5270 C.3   280  GLN280      0.1601
    171  C         27.2580   22.7140   41.4640 C.2   280  GLN280      0.2287
    172  O         27.6590   23.8030   41.9240 O.2   280  GLN280     -0.2864
    173  CB        25.5750   21.2110   42.5580 C.3   280  GLN280      0.0394
    174  CG        24.1690   21.0690   43.1060 C.3   280  GLN280      0.0908
    175  CD        23.6980   22.3260   43.8120 C.2   280  GLN280      0.2608
    176  OE1       24.2760   22.7410   44.8270 O.2   280  GLN280     -0.2717
    177  NE2       22.6630   22.9610   43.2600 N.am  280  GLN280     -0.0878
    178  N         27.3390   26.2320   40.1640 N.3   283  PHE283     -0.1227
    179  CA        26.8250   27.2510   41.0690 C.3   283  PHE283      0.1736
    180  C         27.8840   27.5300   42.1270 C.2   283  PHE283      0.2595
    181  O         28.1600   28.7030   42.4530 O.2   283  PHE283     -0.2718
    182  CB        25.5170   26.7930   41.7250 C.3   283  PHE283      0.0547
    183  CG        24.8230   27.8730   42.5130 C.ar  283  PHE283     -0.0202
    184  CD1       24.0690   28.8480   41.8740 C.ar  283  PHE283     -0.0042
    185  CD2       24.9230   27.9200   43.8910 C.ar  283  PHE283     -0.0042
    186  CE1       23.4360   29.8570   42.5890 C.ar  283  PHE283     -0.0003
    187  CE2       24.2900   28.9250   44.6090 C.ar  283  PHE283     -0.0003
    188  CZ        23.5420   29.8920   43.9590 C.ar  283  PHE283     -0.0000
    189  N         28.4940   26.4560   42.6460 N.am  284  TYR284     -0.1976
    190  CA        29.4260   26.6170   43.7570 C.3   284  TYR284      0.1639
    191  C         30.5820   27.4970   43.2910 C.2   284  TYR284      0.2290
    192  O         30.9150   28.5150   43.9200 O.2   284  TYR284     -0.2864
    193  CB        29.8890   25.2630   44.2980 C.3   284  TYR284      0.0560
    194  CG        28.9820   24.6710   45.3810 C.ar  284  TYR284     -0.0198
    195  CD1       27.7310   24.1190   45.0620 C.ar  284  TYR284     -0.0009
    196  CD2       29.3680   24.6760   46.7300 C.ar  284  TYR284     -0.0009
    197  CE1       26.9060   23.5970   46.0500 C.ar  284  TYR284      0.0417
    198  CE2       28.5340   24.1540   47.7240 C.ar  284  TYR284      0.0417
    199  CZ        27.2990   23.6290   47.3750 C.ar  284  TYR284      0.1957
    200  OH        26.4750   23.0950   48.3440 O.3   284  TYR284     -0.2866
    201  N         30.2480   17.6030   46.1860 N.3   316  TRP316     -0.1241
    202  CA        29.6550   17.5420   44.8490 C.3   316  TRP316      0.1605
    203  C         30.6460   16.8810   43.8680 C.2   316  TRP316      0.2264
    204  O         30.2990   15.9360   43.1640 O.2   316  TRP316     -0.2867
    205  CB        29.1420   18.9210   44.3600 C.3   316  TRP316      0.0550
    206  CG        27.8130   19.3180   44.9890 C.ar  316  TRP316      0.0003
    207  CD1       27.5730   20.3980   45.7990 C.ar  316  TRP316      0.0946
    208  CD2       26.5610   18.6080   44.8930 C.ar  316  TRP316      0.0152
    209  NE1       26.2590   20.4100   46.2040 N.ar  316  TRP316     -0.2442
    210  CE2       25.6130   19.3250   45.6790 C.ar  316  TRP316      0.0810
    211  CE3       26.1520   17.4470   44.2170 C.ar  316  TRP316      0.0012
    212  CZ2       24.2660   18.9210   45.8090 C.ar  316  TRP316      0.0191
    213  CZ3       24.8190   17.0420   44.3290 C.ar  316  TRP316      0.0001
    214  CH2       23.8820   17.7810   45.1320 C.ar  316  TRP316      0.0015
@<TRIPOS>BOND
     1   148   147    1
     2   147   146    1
     3   122   123    1
     4   122   121    1
     5   139   137   ar
     6   123   117    1
     7   146   145    1
     8   157   155   ar
     9   117   118    1
    10   137   138   ar
    11   137   136    1
    12   156   155   ar
    13   121   118    1
    14   155   154    1
    15   145   144    1
    16   118   119    1
    17   136   133    1
    18   154   153    1
    19   144   141    1
    20   119   120    2
    21   119   124   am
    22   141   140    1
    23   141   142    1
    24   133   132    1
    25   133   134    1
    26   153   150    1
    27   124   125    1
    28   134   135    2
    29   142   143    2
    30   150   149    1
    31   150   151    1
    32   125   128    1
    33   125   126    1
    34   128   129    1
    35   126   127    2
    36   151   152    2
    37   151   158   am
    38   106   105    2
    39   131   130    1
    40   165   166    1
    41   129   130    1
    42   158   159    1
    43   166   167    1
    44   109   111   ar
    45   109   108   ar
    46    95    94    2
    47   105   104    1
    48   111   112   ar
    49   104   107    1
    50   104   103    1
    51   107   108    1
    52   108   110   ar
    53   159   160    1
    54   159   162    1
    55    94   103   am
    56    94    93    1
    57   167   168    2
    58   167   169   am
    59   112   110   ar
    60   112   114   ar
    61   160   161    2
    62   110   113   ar
    63   164   162    1
    64   114   116   ar
    65    96    93    1
    66    96    97    1
    67   162   163    1
    68    93    92    1
    69   178   179    1
    70   169   170    1
    71    89    87   ar
    72    89    90   ar
    73   113   115   ar
    74    97    99   ar
    75    97    98   ar
    76    91    90    1
    77    99   101   ar
    78   116   115   ar
    79    87    85   ar
    80    98   100   ar
    81    90    88   ar
    82   179   182    1
    83   179   180    1
    84    26    25    2
    85   101   102   ar
    86    83    82    2
    87    25    24    1
    88   171   170    1
    89   171   172    2
    90   170   173    1
    91   100   102   ar
    92   182   183    1
    93   184   183   ar
    94   184   186   ar
    95    85    84    1
    96    85    86   ar
    97   180   181    2
    98   180   189   am
    99    29    28    1
   100    88    86   ar
   101    27    24    1
   102    27    28    1
   103    82    81    1
   104   183   185   ar
   105    84    81    1
   106   173   174    1
   107   186   188   ar
   108   189   190    1
   109    24    23    1
   110    81    80    1
   111   174   175    1
   112   204   203    2
   113    28    30    1
   114   177   175   am
   115   191   190    1
   116   191   192    2
   117    75    74    2
   118   190   193    1
   119   175   176    2
   120   203   202    1
   121   185   187   ar
   122   188   187   ar
   123    80    74   am
   124   211   213   ar
   125   211   208   ar
   126   193   194    1
   127   213   214   ar
   128   205   202    1
   129   205   206    1
   130    74    73    1
   131    78    76    1
   132   202   201    1
   133   208   206   ar
   134   208   210   ar
   135   206   207   ar
   136   195   194   ar
   137   195   197   ar
   138   214   212   ar
   139   194   196   ar
   140    21    19   ar
   141    21    22   ar
   142    70    69    2
   143   210   212   ar
   144   210   209   ar
   145    76    73    1
   146    76    77    1
   147    73    72    1
   148   207   209   ar
   149    19    18   ar
   150   197   199   ar
   151    22    20   ar
   152    69    68    1
   153    71    68    1
   154   196   198   ar
   155    46    44    1
   156    77    79    1
   157    68    67    1
   158    45    44    1
   159    18    20   ar
   160    18    17    1
   161   199   198   ar
   162   199   200    1
   163    44    43    1
   164     8    10   ar
   165     8     6   ar
   166    17    14    1
   167     5     6    1
   168     5     2    1
   169    58    57    1
   170    10    11   ar
   171    38    36   ar
   172     6     7   ar
   173     1     2    1
   174    43    40    1
   175    13    14    1
   176    13     3   am
   177     2     3    1
   178    14    15    1
   179    36    37   ar
   180    36    35    1
   181    57    59    1
   182    57    54    1
   183    11    12    1
   184    11     9   ar
   185     7     9   ar
   186     3     4    2
   187    40    39    1
   188    40    41    1
   189    35    32    1
   190    63    62    2
   191    16    15    2
   192    34    33    2
   193    66    64    1
   194    52    51    1
   195    42    41    2
   196    33    39   am
   197    33    32    1
   198    54    53    1
   199    54    55    1
   200    62    61    1
   201    32    31    1
   202    53    49   am
   203    64    61    1
   204    64    65    1
   205    51    48    1
   206    56    55    2
   207    61    60    1
   208    49    50    2
   209    49    48    1
   210    48    47    1
