@<TRIPOS>MOLECULE
tmp/3wi5A01.pdb
 102 93 0 0 0
SMALL
GASTEIGER

@<TRIPOS>ATOM
      1  N          2.4830   75.5970   67.5850 N.3     5  TYR5       -0.1241
      2  CA         3.5880   74.6290   67.6140 C.3     5  TYR5        0.1605
      3  C          4.2900   74.6710   66.2610 C.2     5  TYR5        0.2264
      4  O          3.7690   75.2190   65.3090 O.2     5  TYR5       -0.2867
      5  CB         3.0660   73.2180   67.8850 C.3     5  TYR5        0.0534
      6  CG         2.2320   72.6800   66.7800 C.ar    5  TYR5       -0.0201
      7  CD1        0.8910   73.0950   66.6270 C.ar    5  TYR5       -0.0009
      8  CD2        2.7540   71.8330   65.8310 C.ar    5  TYR5       -0.0009
      9  CE1        0.1150   72.6510   65.5950 C.ar    5  TYR5        0.0417
     10  CE2        1.9620   71.3750   64.7560 C.ar    5  TYR5        0.0417
     11  CZ         0.6540   71.7870   64.6610 C.ar    5  TYR5        0.1957
     12  OH        -0.1440   71.3390   63.6400 O.3     5  TYR5       -0.2866
     13  N          8.0460   73.1060   63.7620 N.3     7  THR7       -0.1218
     14  CA         9.3370   72.5440   63.6050 C.3     7  THR7        0.1862
     15  C         10.1140   73.4320   62.6570 C.2     7  THR7        0.2287
     16  O          9.6940   73.6190   61.5250 O.2     7  THR7       -0.2866
     17  CB         9.2590   71.1100   62.9920 C.3     7  THR7        0.1770
     18  OG1        8.4430   70.2760   63.8440 O.3     7  THR7       -0.2211
     19  CG2       10.6930   70.5100   62.8600 C.3     7  THR7        0.0375
     20  N         13.5900   73.6670   60.6210 N.3     9  LYS9       -0.1245
     21  CA        14.7090   72.8400   60.2450 C.3     9  LYS9        0.1561
     22  C         15.3220   73.2470   58.9150 C.2     9  LYS9        0.2260
     23  O         14.6000   73.3870   57.8840 O.2     9  LYS9       -0.2867
     24  CB        14.3110   71.3510   60.2120 C.3     9  LYS9        0.0271
     25  CG        12.9760   71.0110   59.5330 C.3     9  LYS9        0.0035
     26  CD        12.6000   69.5300   59.8160 C.3     9  LYS9        0.0206
     27  CE        11.2520   69.1800   59.1810 C.3     9  LYS9        0.1093
     28  NZ        10.8980   67.7340   59.3940 N.3     9  LYS9       -0.1314
     29  N          7.6720   74.0380   59.4600 N.3    40  LYS40      -0.1245
     30  CA         6.2250   74.1430   59.5220 C.3    40  LYS40       0.1561
     31  C          5.7660   74.8150   60.7850 C.2    40  LYS40       0.2260
     32  O          6.4520   74.7660   61.8240 O.2    40  LYS40      -0.2867
     33  CB         5.6510   72.7150   59.5070 C.3    40  LYS40       0.0271
     34  CG         6.0620   71.8330   60.6780 C.3    40  LYS40       0.0035
     35  CD         5.0650   70.6800   60.8600 C.3    40  LYS40       0.0206
     36  CE         5.4850   69.7080   61.9720 C.3    40  LYS40       0.1093
     37  NZ         4.3290   68.8710   62.4220 N.3    40  LYS40      -0.1314
     38  N         -2.4750   73.7590   59.8370 N.3    60  GLU60      -0.1245
     39  CA        -1.0310   73.6120   59.7840 C.3    60  GLU60       0.1567
     40  C         -0.5370   73.9430   58.3920 C.2    60  GLU60       0.2260
     41  O         -1.1450   73.5160   57.3610 O.2    60  GLU60      -0.2867
     42  CB        -0.6150   72.1860   60.2140 C.3    60  GLU60       0.0388
     43  CG         0.9130   71.9490   60.2450 C.3    60  GLU60       0.1160
     44  CD         1.2770   70.4950   60.5560 C.2    60  GLU60       0.3649
     45  OE1        1.2360   70.1360   61.7510 O.co2  60  GLU60      -0.2457
     46  OE2        1.6110   69.7140   59.6100 O.co2  60  GLU60      -0.2457
     47  N         -0.6700   72.0230   54.9860 N.3    75  ARG75      -0.1231
     48  CA        -0.2140   70.7560   55.5890 C.3    75  ARG75       0.1694
     49  C         -1.4710   70.1510   56.2640 C.2    75  ARG75       0.2591
     50  O         -2.5650   70.6650   56.0850 O.2    75  ARG75      -0.2718
     51  CB         0.8830   70.9930   56.6230 C.3    75  ARG75       0.0321
     52  CG         2.2410   71.2500   56.0170 C.3    75  ARG75       0.0489
     53  CD         3.3680   71.3280   57.1070 C.3    75  ARG75       0.2205
     54  NE         3.5460   70.0530   57.8090 N.pl3  75  ARG75      -0.0865
     55  CZ         4.3570   69.0760   57.4130 C.cat  75  ARG75       0.5346
     56  NH1        5.0890   69.2460   56.3170 N.pl3  75  ARG75       0.1354
     57  NH2        4.4470   67.9640   58.1120 N.pl3  75  ARG75       0.1354
     58  N         -1.3270   69.1550   57.1130 N.am   76  GLN76      -0.1979
     59  CA        -2.5040   68.5510   57.7100 C.3    76  GLN76       0.1601
     60  C         -3.3950   69.4890   58.5830 C.2    76  GLN76       0.2287
     61  O         -2.9700   70.0130   59.6140 O.2    76  GLN76      -0.2864
     62  CB        -2.1640   67.2250   58.4120 C.3    76  GLN76       0.0394
     63  CG        -3.3690   66.5070   58.9800 C.3    76  GLN76       0.0908
     64  CD        -3.0540   65.1050   59.4720 C.2    76  GLN76       0.2608
     65  OE1       -3.7470   64.1230   59.1170 O.2    76  GLN76      -0.2717
     66  NE2       -2.0330   65.0020   60.2640 N.am   76  GLN76      -0.0878
     67  N         -3.7090   63.4140   56.1820 N.3    94  ASN94      -0.1240
     68  CA        -2.7620   62.3760   55.7080 C.3    94  ASN94       0.1653
     69  C         -3.5550   61.1470   55.2380 C.2    94  ASN94       0.2266
     70  O         -4.4630   60.7010   55.9180 O.2    94  ASN94      -0.2867
     71  CB        -1.8110   61.9360   56.8220 C.3    94  ASN94       0.1155
     72  CG        -0.8750   63.0320   57.3010 C.2    94  ASN94       0.2627
     73  OD1       -0.8200   64.1070   56.7280 O.2    94  ASN94      -0.2716
     74  ND2       -0.1260   62.7450   58.3630 N.am   94  ASN94      -0.0877
     75  N          0.6280   57.5120   57.0730 N.3    99  ASP99      -0.1239
     76  CA         0.7850   57.3010   58.5120 C.3    99  ASP99       0.1674
     77  C          1.2310   55.8920   58.8910 C.2    99  ASP99       0.2266
     78  O          1.4050   55.5990   60.0880 O.2    99  ASP99      -0.2867
     79  CB        -0.5330   57.6220   59.2330 C.3    99  ASP99       0.1410
     80  CG        -0.8000   59.1220   59.3360 C.2    99  ASP99       0.3668
     81  OD1        0.1200   59.9580   59.4370 O.co2  99  ASP99      -0.2456
     82  OD2       -1.9670   59.4600   59.3590 O.co2  99  ASP99      -0.2456
     83  N         -1.3080   64.0780   51.2900 N.3   124  ARG124     -0.1245
     84  CA        -2.4660   64.5750   51.9930 C.3   124  ARG124      0.1563
     85  C         -3.5670   64.8040   51.0060 C.2   124  ARG124      0.2260
     86  O         -3.3210   65.0560   49.8330 O.2   124  ARG124     -0.2867
     87  CB        -2.0890   65.8470   52.7560 C.3   124  ARG124      0.0307
     88  CG        -1.0890   65.5190   53.8640 C.3   124  ARG124      0.0489
     89  CD        -0.7430   66.7140   54.7160 C.3   124  ARG124      0.2205
     90  NE         0.5170   67.3400   54.2640 N.pl3 124  ARG124     -0.0865
     91  CZ         1.7030   67.0720   54.7840 C.cat 124  ARG124      0.5346
     92  NH1        1.7880   66.2640   55.8410 N.pl3 124  ARG124      0.1354
     93  NH2        2.7440   67.6640   54.2960 N.pl3 124  ARG124      0.1354
     94  N         12.2630   72.0910   67.6350 N.3   311  LYS311     -0.1245
     95  CA        10.8150   71.8930   67.8180 C.3   311  LYS311      0.1561
     96  C         10.2860   72.7750   68.9440 C.2   311  LYS311      0.2260
     97  O         10.9930   73.0150   69.9530 O.2   311  LYS311     -0.2867
     98  CB        10.4910   70.4260   68.1200 C.3   311  LYS311      0.0271
     99  CG        11.0980   69.4970   67.0940 C.3   311  LYS311      0.0035
    100  CD        10.5380   68.0850   67.1680 C.3   311  LYS311      0.0206
    101  CE        11.1430   67.2410   66.0570 C.3   311  LYS311      0.1093
    102  NZ        10.5820   65.8420   66.0690 N.3   311  LYS311     -0.1314
@<TRIPOS>BOND
     1    86    85    2
     2    85    84    1
     3    83    84    1
     4    84    87    1
     5    87    88    1
     6    88    89    1
     7    90    89    1
     8    90    91    2
     9    93    91    1
    10    91    92    1
    11    47    48    1
    12    69    68    1
    13    69    70    2
    14    48    49    1
    15    48    51    1
    16    68    67    1
    17    68    71    1
    18    52    51    1
    19    52    53    1
    20    50    49    2
    21    49    58   am
    22    56    55    1
    23    73    72    2
    24    71    72    1
    25    75    76    1
    26    53    54    1
    27    58    59    1
    28    72    74   am
    29    41    40    2
    30    55    54    2
    31    55    57    1
    32    59    62    1
    33    59    60    1
    34    23    22    2
    35    40    39    1
    36    62    63    1
    37    76    77    1
    38    76    79    1
    39    60    61    2
    40    77    78    2
    41    22    21    1
    42    63    64    1
    43    65    64    2
    44    27    28    1
    45    27    26    1
    46    79    80    1
    47    80    82   ar
    48    80    81   ar
    49    29    30    1
    50    64    66   am
    51    33    30    1
    52    33    34    1
    53    30    31    1
    54    25    26    1
    55    25    24    1
    56    46    44   ar
    57    39    38    1
    58    39    42    1
    59    24    21    1
    60    42    43    1
    61    43    44    1
    62    21    20    1
    63    44    45   ar
    64    34    35    1
    65    31    32    2
    66    35    36    1
    67    16    15    2
    68    36    37    1
    69    15    14    1
    70    19    17    1
    71    17    14    1
    72    17    18    1
    73    14    13    1
    74    12    11    1
    75    11    10   ar
    76    11     9   ar
    77    10     8   ar
    78     4     3    2
    79     9     7   ar
    80     8     6   ar
    81   101   102    1
    82   101   100    1
    83     3     2    1
    84     7     6   ar
    85     6     5    1
    86    99   100    1
    87    99    98    1
    88     1     2    1
    89     2     5    1
    90    94    95    1
    91    95    98    1
    92    95    96    1
    93    96    97    2
