@<TRIPOS>MOLECULE
tmp/3wi6B00.pdb
 143 134 0 0 0
SMALL
GASTEIGER

@<TRIPOS>ATOM
      1  N         18.0270  -42.5270   17.7560 N.3    25  LEU25      -0.1231
      2  CA        17.8870  -41.0720   17.9570 C.3    25  LEU25       0.1693
      3  C         16.5000  -40.5970   17.5280 C.2    25  LEU25       0.2593
      4  O         15.9570  -39.6800   18.1240 O.2    25  LEU25      -0.2718
      5  CB        18.9520  -40.3150   17.1690 C.3    25  LEU25       0.0284
      6  CG        20.3840  -40.5470   17.5800 C.3    25  LEU25       0.0019
      7  CD1       21.3810  -39.9210   16.5870 C.3    25  LEU25       0.0001
      8  CD2       20.5250  -39.9900   18.9890 C.3    25  LEU25       0.0001
      9  N         15.9550  -41.2330   16.4920 N.am   26  GLY26      -0.1942
     10  CA        14.6310  -40.9230   16.0130 C.3    26  GLY26       0.2014
     11  C         14.1750  -41.8310   14.9080 C.2    26  GLY26       0.2639
     12  O         14.9220  -42.1260   14.0250 O.2    26  GLY26      -0.2714
     13  N         12.9320  -42.2810   14.9800 N.am   27  LEU27      -0.1963
     14  CA        12.3130  -43.0720   13.9080 C.3    27  LEU27       0.1728
     15  C         11.7720  -42.1070   12.8450 C.2    27  LEU27       0.2617
     16  O         11.3100  -41.0260   13.1650 O.2    27  LEU27      -0.2715
     17  CB        11.2070  -43.9900   14.4700 C.3    27  LEU27       0.0311
     18  CG        10.8910  -45.2330   13.6050 C.3    27  LEU27       0.0022
     19  CD1       10.1300  -46.3550   14.3550 C.3    27  LEU27       0.0001
     20  CD2       10.1090  -44.8350   12.3280 C.3    27  LEU27       0.0001
     21  N         11.8610  -42.4840   11.5820 N.am   28  GLY28      -0.1940
     22  CA        11.4860  -41.5870   10.5000 C.3    28  GLY28       0.2014
     23  C         10.9640  -42.2730    9.2410 C.2    28  GLY28       0.2638
     24  O         10.6030  -43.4660    9.2400 O.2    28  GLY28      -0.2714
     25  N         10.9550  -41.4930    8.1610 N.am   29  ILE29      -0.1977
     26  CA        10.3860  -41.9090    6.8810 C.3    29  ILE29       0.1596
     27  C         11.1480  -43.0830    6.2780 C.2    29  ILE29       0.2287
     28  O         10.5680  -44.1230    5.9620 O.2    29  ILE29      -0.2864
     29  CB        10.4570  -40.7630    5.8440 C.3    29  ILE29       0.0276
     30  CG1        9.6060  -39.5610    6.3160 C.3    29  ILE29       0.0022
     31  CG2       10.1350  -41.3070    4.4150 C.3    29  ILE29       0.0022
     32  CD1       10.4240  -38.5070    7.1350 C.3    29  ILE29       0.0001
     33  N         16.9670  -43.6270   12.7520 N.3    33  VAL33      -0.1245
     34  CA        18.2210  -42.8630   12.8240 C.3    33  VAL33       0.1561
     35  C         19.0590  -43.2610   14.0440 C.2    33  VAL33       0.2260
     36  O         18.6790  -42.9780   15.1770 O.2    33  VAL33      -0.2867
     37  CB        17.9880  -41.3880   12.9290 C.3    33  VAL33       0.0252
     38  CG1       19.3090  -40.7140   13.0890 C.3    33  VAL33       0.0019
     39  CG2       17.2950  -40.9010   11.7040 C.3    33  VAL33       0.0019
     40  N         25.1150  -39.0670   13.5970 N.3    46  ALA46      -0.1245
     41  CA        23.8570  -39.7370   13.3120 C.3    46  ALA46       0.1562
     42  C         24.0630  -40.5440   12.0770 C.2    46  ALA46       0.2260
     43  O         24.8810  -40.1800   11.2540 O.2    46  ALA46      -0.2867
     44  CB        22.7960  -38.7450   13.0950 C.3    46  ALA46       0.0290
     45  N         21.6390  -29.8580    7.7040 N.3    73  VAL73      -0.1245
     46  CA        22.3740  -30.8520    8.4090 C.3    73  VAL73       0.1561
     47  C         23.4550  -31.3510    7.4800 C.2    73  VAL73       0.2260
     48  O         23.1890  -31.6140    6.2860 O.2    73  VAL73      -0.2867
     49  CB        21.4530  -31.9920    8.9250 C.3    73  VAL73       0.0252
     50  CG1       20.7560  -32.7950    7.7510 C.3    73  VAL73       0.0019
     51  CG2       22.2450  -32.9050    9.8360 C.3    73  VAL73       0.0019
     52  N         25.7160  -38.3080    9.2540 N.3    93  MET93      -0.1230
     53  CA        25.5600  -36.8620    9.3750 C.3    93  MET93       0.1702
     54  C         26.0260  -36.3840   10.7210 C.2    93  MET93       0.2592
     55  O         26.1000  -37.1210   11.7110 O.2    93  MET93      -0.2718
     56  CB        24.0930  -36.4230    9.2510 C.3    93  MET93       0.0401
     57  CG        23.4100  -36.8290    7.9620 C.3    93  MET93       0.0596
     58  SD        21.6880  -37.1840    8.2120 S.3    93  MET93      -0.1393
     59  CE        21.3820  -38.2940    6.8370 C.3    93  MET93       0.0692
     60  N         26.3010  -35.0760   10.7370 N.am   94  GLU94      -0.1966
     61  CA        26.4590  -34.3990   11.9900 C.3    94  GLU94       0.1733
     62  C         25.2400  -34.7000   12.8110 C.2    94  GLU94       0.2616
     63  O         24.0990  -34.7560   12.3620 O.2    94  GLU94      -0.2715
     64  CB        26.6290  -32.8860   11.8270 C.3    94  GLU94       0.0429
     65  CG        25.3550  -32.0900   11.6150 C.3    94  GLU94       0.1163
     66  CD        25.6230  -30.5950   11.3400 C.2    94  GLU94       0.3649
     67  OE1       25.0080  -29.9960   10.4170 O.co2  94  GLU94      -0.2457
     68  OE2       26.4950  -30.0180   12.0160 O.co2  94  GLU94      -0.2457
     69  N         25.4780  -34.8810   14.0730 N.am   95  CYS95      -0.1954
     70  CA        24.4110  -35.2250   15.0040 C.3    95  CYS95       0.1843
     71  C         23.8170  -33.9900   15.6410 C.2    95  CYS95       0.2625
     72  O         24.5090  -33.1950   16.2760 O.2    95  CYS95      -0.2714
     73  CB        24.9580  -36.1600   16.0850 C.3    95  CYS95       0.0997
     74  SG        23.8480  -36.4580   17.3930 S.3    95  CYS95      -0.0797
     75  N         22.5090  -33.8770   15.5380 N.am   96  LEU96      -0.1963
     76  CA        21.8490  -32.7300   16.0740 C.3    96  LEU96       0.1728
     77  C         21.2220  -33.1550   17.3730 C.2    96  LEU96       0.2616
     78  O         20.2990  -33.9910   17.3670 O.2    96  LEU96      -0.2715
     79  CB        20.8000  -32.2380   15.0830 C.3    96  LEU96       0.0311
     80  CG        21.3380  -31.7810   13.7190 C.3    96  LEU96       0.0022
     81  CD1       20.1740  -31.5560   12.7560 C.3    96  LEU96       0.0001
     82  CD2       22.1960  -30.5700   13.8560 C.3    96  LEU96       0.0001
     83  N         21.7100  -32.5700   18.4800 N.am   97  ASP97      -0.1971
     84  CA        21.2350  -32.9280   19.8360 C.3    97  ASP97       0.1709
     85  C         20.2610  -31.9580   20.4680 C.2    97  ASP97       0.2293
     86  O         19.5570  -32.3400   21.4050 O.2    97  ASP97      -0.2864
     87  CB        22.4070  -33.0790   20.7930 C.3    97  ASP97       0.1436
     88  CG        23.1870  -34.3560   20.5590 C.2    97  ASP97       0.3671
     89  OD1       22.5100  -35.4350   20.5210 O.co2  97  ASP97      -0.2456
     90  OD2       24.4520  -34.2720   20.4220 O.co2  97  ASP97      -0.2456
     91  N         17.3230  -30.9140   19.8450 N.3    99  GLY99      -0.1210
     92  CA        15.8610  -31.1550   19.7540 C.3    99  GLY99       0.1956
     93  C         15.1570  -30.3760   18.6440 C.2    99  GLY99       0.2611
     94  O         15.7260  -29.4360   18.0690 O.2    99  GLY99      -0.2717
     95  N         13.9100  -30.7720   18.3590 N.am  100  GLU100     -0.1979
     96  CA        13.0790  -30.1780   17.2880 C.3   100  GLU100      0.1602
     97  C         12.7980  -28.7410   17.5940 C.2   100  GLU100      0.2287
     98  O         13.1220  -28.2650   18.6720 O.2   100  GLU100     -0.2864
     99  CB        11.7560  -30.8960   17.1320 C.3   100  GLU100      0.0415
    100  CG        11.8810  -32.3290   16.7090 C.3   100  GLU100      0.1163
    101  CD        10.5540  -32.9950   16.3660 C.2   100  GLU100      0.3649
    102  OE1       10.6220  -34.0970   15.7810 O.co2 100  GLU100     -0.2457
    103  OE2        9.4510  -32.4460   16.6540 O.co2 100  GLU100     -0.2457
    104  N          9.2520  -31.1510   12.3060 N.3   143  GLU143     -0.1231
    105  CA         9.9010  -32.4050   12.5720 C.3   143  GLU143      0.1699
    106  C         11.2990  -32.4500   11.9600 C.2   143  GLU143      0.2592
    107  O         12.1660  -33.1560   12.4960 O.2   143  GLU143     -0.2718
    108  CB         9.0950  -33.5870   12.0230 C.3   143  GLU143      0.0402
    109  CG         7.7350  -33.7900   12.7340 C.3   143  GLU143      0.1161
    110  CD         6.6340  -32.7960   12.2310 C.2   143  GLU143      0.3649
    111  OE1        6.6910  -31.5590   12.5490 O.co2 143  GLU143     -0.2457
    112  OE2        5.7330  -33.2540   11.4780 O.co2 143  GLU143     -0.2457
    113  N         11.5160  -31.7410   10.8390 N.am  144  ASN144     -0.1974
    114  CA        12.7570  -31.8100   10.1160 C.3   144  ASN144      0.1688
    115  C         13.5150  -30.5560   10.3050 C.2   144  ASN144      0.2292
    116  O         14.3950  -30.2580    9.5080 O.2   144  ASN144     -0.2864
    117  CB        12.5330  -32.0270    8.6460 C.3   144  ASN144      0.1181
    118  CG        11.7190  -33.2550    8.3560 C.2   144  ASN144      0.2629
    119  OD1       11.6180  -34.1490    9.1920 O.2   144  ASN144     -0.2716
    120  ND2       11.1190  -33.3100    7.1560 N.am  144  ASN144     -0.0877
    121  N         15.8760  -29.3190   13.3540 N.3   146  LEU146     -0.1245
    122  CA        16.4900  -29.6170   14.6720 C.3   146  LEU146      0.1561
    123  C         17.6540  -28.7100   15.0170 C.2   146  LEU146      0.2260
    124  O         18.3650  -28.2320   14.1370 O.2   146  LEU146     -0.2867
    125  CB        16.9920  -31.0490   14.7240 C.3   146  LEU146      0.0270
    126  CG        16.0480  -32.1070   14.1800 C.3   146  LEU146      0.0019
    127  CD1       16.3530  -33.4790   14.7310 C.3   146  LEU146      0.0001
    128  CD2       14.7160  -31.7470   14.5420 C.3   146  LEU146      0.0001
    129  N         16.6770  -30.9770    7.7740 N.3   159  THR159     -0.1203
    130  CA        17.0450  -32.3700    7.5990 C.3   159  THR159      0.1994
    131  C         16.0560  -33.1130    6.7000 C.2   159  THR159      0.2617
    132  O         15.0970  -32.5550    6.2660 O.2   159  THR159     -0.2717
    133  CB        17.1300  -33.1410    8.9590 C.3   159  THR159      0.1784
    134  OG1       15.8390  -33.3470    9.5100 O.3   159  THR159     -0.2211
    135  CG2       17.9020  -32.4130    9.9690 C.3   159  THR159      0.0376
    136  N         16.3260  -34.3800    6.4030 N.am  160  ASP160     -0.1973
    137  CA        15.4090  -35.2690    5.6310 C.3   160  ASP160      0.1709
    138  C         15.2290  -34.8200    4.1980 C.2   160  ASP160      0.2293
    139  O         14.3030  -34.0690    3.9050 O.2   160  ASP160     -0.2864
    140  CB        14.0400  -35.4370    6.3160 C.3   160  ASP160      0.1436
    141  CG        14.1470  -36.1310    7.7120 C.2   160  ASP160      0.3671
    142  OD1       13.6210  -37.2750    7.8430 O.co2 160  ASP160     -0.2456
    143  OD2       14.7690  -35.5530    8.6710 O.co2 160  ASP160     -0.2456
@<TRIPOS>BOND
     1   139   138    2
     2   138   137    1
     3    31    29    1
     4   137   140    1
     5   137   136    1
     6    29    30    1
     7    29    26    1
     8    28    27    2
     9   132   131    2
    10    27    26    1
    11    48    47    2
    12   140   141    1
    13    30    32    1
    14   136   131   am
    15   131   130    1
    16    59    58    1
    17    26    25    1
    18   120   118   am
    19    47    46    1
    20   130   129    1
    21   130   133    1
    22    45    46    1
    23   141   142   ar
    24   141   143   ar
    25    50    49    1
    26    57    58    1
    27    57    56    1
    28    25    23   am
    29   118   117    1
    30   118   119    2
    31    46    49    1
    32   117   114    1
    33    49    51    1
    34   133   134    1
    35   133   135    1
    36    24    23    2
    37    23    22    1
    38    56    53    1
    39    52    53    1
    40    53    54    1
    41   116   115    2
    42   114   115    1
    43   114   113    1
    44    67    66   ar
    45    22    21    1
    46    54    60   am
    47    54    55    2
    48    60    61    1
    49   113   106   am
    50    43    42    2
    51    66    65    1
    52    66    68   ar
    53   112   110   ar
    54    21    15   am
    55    65    64    1
    56    39    37    1
    57    64    61    1
    58   106   107    2
    59   106   105    1
    60    61    62    1
    61   108   105    1
    62   108   109    1
    63    42    41    1
    64   110   111   ar
    65   110   109    1
    66   104   105    1
    67    20    18    1
    68    63    62    2
    69    33    34    1
    70    81    80    1
    71    62    69   am
    72    34    37    1
    73    34    35    1
    74    15    16    2
    75    15    14    1
    76    37    38    1
    77    44    41    1
    78    41    40    1
    79   121   122    1
    80    18    19    1
    81    18    17    1
    82    80    82    1
    83    80    79    1
    84    14    17    1
    85    14    13    1
    86    12    11    2
    87    35    36    2
    88    69    70    1
    89   124   123    2
    90   126   128    1
    91   126   125    1
    92   126   127    1
    93   122   125    1
    94   122   123    1
    95    11    13   am
    96    11    10    1
    97    70    71    1
    98    70    73    1
    99    79    76    1
   100    75    71   am
   101    75    76    1
   102    71    72    2
   103   102   101   ar
   104    10     9    1
   105    76    77    1
   106    73    74    1
   107   101   103   ar
   108   101   100    1
   109     9     3   am
   110     7     6    1
   111   100    99    1
   112    99    96    1
   113     5     6    1
   114     5     2    1
   115    96    97    1
   116    96    95    1
   117    78    77    2
   118    77    83   am
   119     3     2    1
   120     3     4    2
   121     6     8    1
   122    97    98    2
   123     1     2    1
   124    94    93    2
   125    95    93   am
   126    83    84    1
   127    93    92    1
   128    92    91    1
   129    84    85    1
   130    84    87    1
   131    90    88   ar
   132    85    86    2
   133    89    88   ar
   134    88    87    1
