@<TRIPOS>MOLECULE
tmp/3wi7A00.pdb
 146 144 0 0 0
SMALL
GASTEIGER

@<TRIPOS>ATOM
      1  N         36.4980   11.1590   14.9630 N.3    38  ASN38      -0.1240
      2  CA        37.6190   10.2680   14.5770 C.3    38  ASN38       0.1653
      3  C         38.9180   10.6810   15.2710 C.2    38  ASN38       0.2266
      4  O         39.3210   11.8400   15.1750 O.2    38  ASN38      -0.2867
      5  CB        37.7650   10.3390   13.1110 C.3    38  ASN38       0.1155
      6  CG        38.6120    9.2140   12.5440 C.2    38  ASN38       0.2627
      7  OD1       38.3840    8.0160   12.8540 O.2    38  ASN38      -0.2716
      8  ND2       39.5250    9.5550   11.7160 N.am   38  ASN38      -0.0877
      9  N         33.8560   17.0220   16.2590 N.3   103  ASP103     -0.1225
     10  CA        34.3510   16.3360   15.0270 C.3   103  ASP103      0.1805
     11  C         33.2090   15.7260   14.1840 C.2   103  ASP103      0.2597
     12  O         32.1840   16.4000   13.9880 O.2   103  ASP103     -0.2718
     13  CB        35.4570   15.3360   15.4430 C.3   103  ASP103      0.1424
     14  CG        36.2580   14.7420   14.2620 C.2   103  ASP103      0.3668
     15  OD1       37.2530   15.3950   13.9180 O.co2 103  ASP103     -0.2456
     16  OD2       35.9230   13.6150   13.6920 O.co2 103  ASP103     -0.2456
     17  N         33.3230   14.4770   13.6990 N.am  104  TYR104     -0.1976
     18  CA        32.2000   13.8920   12.9310 C.3   104  TYR104      0.1639
     19  C         30.9680   13.7020   13.8290 C.2   104  TYR104      0.2290
     20  O         29.8380   13.5930   13.3160 O.2   104  TYR104     -0.2864
     21  CB        32.5960   12.5580   12.2480 C.3   104  TYR104      0.0560
     22  CG        33.3320   12.7050   11.0070 C.ar  104  TYR104     -0.0198
     23  CD1       32.6740   13.0780    9.8600 C.ar  104  TYR104     -0.0009
     24  CD2       34.7400   12.4340   10.9470 C.ar  104  TYR104     -0.0009
     25  CE1       33.3230   13.3120    8.7370 C.ar  104  TYR104      0.0417
     26  CE2       35.4160   12.7040    9.7550 C.ar  104  TYR104      0.0417
     27  CZ        34.7160   13.0610    8.6830 C.ar  104  TYR104      0.1957
     28  OH        35.2450   13.2460    7.4640 O.3   104  TYR104     -0.2866
     29  N         33.0080   18.8210   12.3060 N.3   129  VAL129     -0.1245
     30  CA        32.9210   18.6380   10.8930 C.3   129  VAL129      0.1561
     31  C         31.5470   19.2250   10.5170 C.2   129  VAL129      0.2260
     32  O         30.4740   18.7170   10.8970 O.2   129  VAL129     -0.2867
     33  CB        33.0980   17.1540   10.4640 C.3   129  VAL129      0.0252
     34  CG1       32.8750   17.0690    8.9580 C.3   129  VAL129      0.0019
     35  CG2       34.4650   16.6010   10.9120 C.3   129  VAL129      0.0019
     36  N         49.0130   17.9920    8.0970 N.3   142  PHE142     -0.1241
     37  CA        47.7490   17.1990    8.0600 C.3   142  PHE142      0.1605
     38  C         47.2340   17.1650    6.6080 C.2   142  PHE142      0.2264
     39  O         46.7410   16.1360    6.0910 O.2   142  PHE142     -0.2867
     40  CB        46.6660   17.7620    9.0030 C.3   142  PHE142      0.0534
     41  CG        45.3780   17.0190    8.9460 C.ar  142  PHE142     -0.0203
     42  CD1       45.2610   15.8210    9.6160 C.ar  142  PHE142     -0.0042
     43  CD2       44.3530   17.4560    8.1640 C.ar  142  PHE142     -0.0042
     44  CE1       44.0480   15.1390    9.5440 C.ar  142  PHE142     -0.0003
     45  CE2       43.1710   16.7540    8.0640 C.ar  142  PHE142     -0.0003
     46  CZ        43.0650   15.5810    8.7520 C.ar  142  PHE142     -0.0000
     47  N         48.3000    6.2960   11.9770 N.3   165  PHE165     -0.1241
     48  CA        47.3170    7.2870   12.4240 C.3   165  PHE165      0.1605
     49  C         47.2460    7.3140   13.9310 C.2   165  PHE165      0.2264
     50  O         47.2630    8.3870   14.5450 O.2   165  PHE165     -0.2867
     51  CB        45.9310    7.0490   11.8390 C.3   165  PHE165      0.0534
     52  CG        45.0470    8.2570   11.7710 C.ar  165  PHE165     -0.0203
     53  CD1       44.9500    8.9490   10.5840 C.ar  165  PHE165     -0.0042
     54  CD2       44.3240    8.6820   12.8260 C.ar  165  PHE165     -0.0042
     55  CE1       44.0800   10.0680   10.4980 C.ar  165  PHE165     -0.0003
     56  CE2       43.4430    9.7790   12.7620 C.ar  165  PHE165     -0.0003
     57  CZ        43.3180   10.4450   11.5880 C.ar  165  PHE165     -0.0000
     58  N         50.1220   10.2600   14.1690 N.3   169  LEU169     -0.1231
     59  CA        49.3520   11.4380   13.8230 C.3   169  LEU169      0.1693
     60  C         48.4340   11.9150   14.9480 C.2   169  LEU169      0.2592
     61  O         48.5030   13.1100   15.3330 O.2   169  LEU169     -0.2718
     62  CB        48.5930   11.2390   12.4930 C.3   169  LEU169      0.0284
     63  CG        47.9710   12.4800   11.8220 C.3   169  LEU169      0.0019
     64  CD1       49.0320   13.4760   11.4100 C.3   169  LEU169      0.0001
     65  CD2       47.3370   12.1160   10.5050 C.3   169  LEU169      0.0001
     66  N         47.7080   10.9860   15.5680 N.am  170  PHE170     -0.1976
     67  CA        46.8050   11.2570   16.6410 C.3   170  PHE170      0.1639
     68  C         47.5670   11.9070   17.8200 C.2   170  PHE170      0.2290
     69  O         47.2120   13.0050   18.1960 O.2   170  PHE170     -0.2864
     70  CB        46.0020    9.9720   16.9590 C.3   170  PHE170      0.0560
     71  CG        45.2000   10.0360   18.1870 C.ar  170  PHE170     -0.0200
     72  CD1       44.1080   10.8630   18.2590 C.ar  170  PHE170     -0.0042
     73  CD2       45.5260    9.2870   19.2860 C.ar  170  PHE170     -0.0042
     74  CE1       43.3360   10.9760   19.4120 C.ar  170  PHE170     -0.0003
     75  CE2       44.7410    9.3600   20.4100 C.ar  170  PHE170     -0.0003
     76  CZ        43.6470   10.1920   20.4900 C.ar  170  PHE170     -0.0000
     77  N         48.8260   15.7450   17.5550 N.3   173  PHE173     -0.1241
     78  CA        47.9240   16.8950   17.5130 C.3   173  PHE173      0.1605
     79  C         47.2250   17.1960   18.8180 C.2   173  PHE173      0.2264
     80  O         46.0250   17.4660   18.8740 O.2   173  PHE173     -0.2867
     81  CB        46.9500   16.7590   16.3130 C.3   173  PHE173      0.0534
     82  CG        47.5420   17.1610   15.0010 C.ar  173  PHE173     -0.0203
     83  CD1       47.8090   18.4650   14.7410 C.ar  173  PHE173     -0.0042
     84  CD2       47.8600   16.2320   14.0080 C.ar  173  PHE173     -0.0042
     85  CE1       48.3400   18.8400   13.5480 C.ar  173  PHE173     -0.0003
     86  CE2       48.4180   16.6190   12.7880 C.ar  173  PHE173     -0.0003
     87  CZ        48.6190   17.9470   12.5560 C.ar  173  PHE173     -0.0000
     88  N         37.5800    8.5640    7.8740 N.3   202  GLY202     -0.1210
     89  CA        37.5580    9.9860    8.3720 C.3   202  GLY202      0.1940
     90  C         38.1910   11.0260    7.4800 C.2   202  GLY202      0.2453
     91  O         37.5300   11.9310    6.9420 O.2   202  GLY202     -0.2732
     92  N         39.4940   10.9580    7.2980 N.am  203  PRO203     -0.2728
     93  CA        40.2100   11.9260    6.4450 C.3   203  PRO203      0.1401
     94  C         39.7800   11.8940    5.0060 C.2   203  PRO203      0.2269
     95  O         39.7770   12.8940    4.2960 O.2   203  PRO203     -0.2865
     96  CB        41.6520   11.5720    6.6130 C.3   203  PRO203      0.0296
     97  CG        41.6980   10.2850    7.3830 C.3   203  PRO203      0.0237
     98  CD        40.4100   10.0470    8.0550 C.3   203  PRO203      0.0939
     99  N         36.6110   13.8710    4.8600 N.3   206  LEU206     -0.1245
    100  CA        36.7180   15.2970    5.3260 C.3   206  LEU206      0.1561
    101  C         36.6590   16.1900    4.1280 C.2   206  LEU206      0.2260
    102  O         37.4440   16.0750    3.1760 O.2   206  LEU206     -0.2867
    103  CB        37.9530   15.4920    6.1250 C.3   206  LEU206      0.0270
    104  CG        38.1180   16.8030    6.9090 C.3   206  LEU206      0.0019
    105  CD1       37.1520   16.8430    8.0900 C.3   206  LEU206      0.0001
    106  CD2       39.5300   17.0500    7.2870 C.3   206  LEU206      0.0001
    107  N         41.5320   23.8350   15.1600 N.3   242  PHE242     -0.1227
    108  CA        42.0130   22.9730   14.1030 C.3   242  PHE242      0.1736
    109  C         40.9780   22.9540   12.9750 C.2   242  PHE242      0.2595
    110  O         41.1720   23.6450   11.9290 O.2   242  PHE242     -0.2718
    111  CB        42.3510   21.5940   14.6640 C.3   242  PHE242      0.0547
    112  CG        43.0100   20.6750   13.6400 C.ar  242  PHE242     -0.0202
    113  CD1       44.3820   20.6910   13.4970 C.ar  242  PHE242     -0.0042
    114  CD2       42.2630   19.9310   12.7330 C.ar  242  PHE242     -0.0042
    115  CE1       45.0260   19.8900   12.5640 C.ar  242  PHE242     -0.0003
    116  CE2       42.8830   19.1780   11.7720 C.ar  242  PHE242     -0.0003
    117  CZ        44.2600   19.1670   11.6690 C.ar  242  PHE242     -0.0000
    118  N         39.8610   22.2880   13.1840 N.am  243  LEU243     -0.1980
    119  CA        38.7460   22.2640   12.1690 C.3   243  LEU243      0.1596
    120  C         37.9760   23.5870   12.0560 C.2   243  LEU243      0.2287
    121  O         37.4360   23.9000   10.9700 O.2   243  LEU243     -0.2864
    122  CB        37.7420   21.1390   12.3750 C.3   243  LEU243      0.0297
    123  CG        38.3280   19.7400   12.3770 C.3   243  LEU243      0.0022
    124  CD1       37.1950   18.7340   12.6240 C.3   243  LEU243      0.0001
    125  CD2       39.0250   19.4640   11.0550 C.3   243  LEU243      0.0001
    126  N         42.4630   20.3010   18.9680 N.3   269  HIS269     -0.1226
    127  CA        41.3430   19.5600   18.4210 C.3   269  HIS269      0.1752
    128  C         40.6170   18.7310   19.4430 C.2   269  HIS269      0.2596
    129  O         39.4040   18.7770   19.5520 O.2   269  HIS269     -0.2718
    130  CB        41.7930   18.7440   17.2420 C.3   269  HIS269      0.0759
    131  CG        40.6680   17.9270   16.6500 C.ar  269  HIS269      0.0818
    132  ND1       39.5830   18.5210   16.0440 N.ar  269  HIS269     -0.2268
    133  CD2       40.3870   16.6070   16.7140 C.ar  269  HIS269      0.1154
    134  CE1       38.7130   17.5770   15.6690 C.ar  269  HIS269      0.1986
    135  NE2       39.1770   16.4010   16.0760 N.ar  269  HIS269     -0.2212
    136  N         41.3580   17.8900   20.1870 N.am  270  PHE270     -0.1976
    137  CA        40.7900   16.9550   21.1720 C.3   270  PHE270      0.1639
    138  C         40.6750   17.7220   22.4910 C.2   270  PHE270      0.2290
    139  O         41.3220   17.4050   23.5060 O.2   270  PHE270     -0.2864
    140  CB        41.7430   15.7390   21.2550 C.3   270  PHE270      0.0560
    141  CG        41.8580   14.9910   19.9710 C.ar  270  PHE270     -0.0200
    142  CD1       40.7610   14.2230   19.4820 C.ar  270  PHE270     -0.0042
    143  CD2       43.0290   14.9660   19.2270 C.ar  270  PHE270     -0.0042
    144  CE1       40.8610   13.5610   18.2900 C.ar  270  PHE270     -0.0003
    145  CE2       43.0930   14.2770   18.0120 C.ar  270  PHE270     -0.0003
    146  CZ        42.0180   13.5390   17.5740 C.ar  270  PHE270     -0.0000
@<TRIPOS>BOND
     1   102   101    2
     2   101   100    1
     3    95    94    2
     4    99   100    1
     5    94    93    1
     6   100   103    1
     7    39    38    2
     8   103   104    1
     9    93    96    1
    10    93    92    1
    11    38    37    1
    12    96    97    1
    13   104   106    1
    14   104   105    1
    15    91    90    2
    16    92    90   am
    17    92    98    1
    18    97    98    1
    19    28    27    1
    20    90    89    1
    21    88    89    1
    22    37    36    1
    23    37    40    1
    24    45    43   ar
    25    45    46   ar
    26    43    41   ar
    27    27    25   ar
    28    27    26   ar
    29    25    23   ar
    30    46    44   ar
    31    41    40    1
    32    41    42   ar
    33    34    33    1
    34    44    42   ar
    35    26    24   ar
    36    23    22   ar
    37    33    30    1
    38    33    35    1
    39    55    53   ar
    40    55    57   ar
    41    65    63    1
    42    31    30    1
    43    31    32    2
    44    53    52   ar
    45    30    29    1
    46    24    22   ar
    47   121   120    2
    48    22    21    1
    49   125   123    1
    50    64    63    1
    51    57    56   ar
    52   117   116   ar
    53   117   115   ar
    54     8     6   am
    55    52    51    1
    56    52    54   ar
    57   116   114   ar
    58    63    62    1
    59    51    48    1
    60   110   109    2
    61    47    48    1
    62   120   119    1
    63   119   122    1
    64   119   118    1
    65    21    18    1
    66   122   123    1
    67   123   124    1
    68    48    49    1
    69    62    59    1
    70     6     7    2
    71     6     5    1
    72    87    86   ar
    73    87    85   ar
    74   115   113   ar
    75   114   112   ar
    76    56    54   ar
    77    86    84   ar
    78    18    17    1
    79    18    19    1
    80   109   118   am
    81   109   108    1
    82     5     2    1
    83    20    19    2
    84   113   112   ar
    85    85    83   ar
    86   112   111    1
    87    16    14   ar
    88    17    11   am
    89    59    58    1
    90    59    60    1
    91    15    14   ar
    92    49    50    2
    93    12    11    2
    94    84    82   ar
    95   108   111    1
    96   108   107    1
    97    11    10    1
    98    14    13    1
    99     2     1    1
   100     2     3    1
   101    83    82   ar
   102    60    61    2
   103    60    66   am
   104    82    81    1
   105    10    13    1
   106    10     9    1
   107     4     3    2
   108    66    67    1
   109   134   132   ar
   110   134   135   ar
   111   132   131   ar
   112   135   133   ar
   113    81    78    1
   114    67    70    1
   115    67    68    1
   116   131   133   ar
   117   131   130    1
   118    70    71    1
   119   130   127    1
   120    78    77    1
   121    78    79    1
   122   146   145   ar
   123   146   144   ar
   124    68    69    2
   125   145   143   ar
   126    71    72   ar
   127    71    73   ar
   128    72    74   ar
   129   144   142   ar
   130   127   126    1
   131   127   128    1
   132    79    80    2
   133   143   141   ar
   134    73    75   ar
   135    74    76   ar
   136   128   129    2
   137   128   136   am
   138   142   141   ar
   139   141   140    1
   140   136   137    1
   141    75    76   ar
   142   137   140    1
   143   137   138    1
   144   138   139    2
