@<TRIPOS>MOLECULE
tmp/3wicC02.pdb
 101 95 0 0 0
SMALL
GASTEIGER

@<TRIPOS>ATOM
      1  N         28.0870   13.0360   40.0830 N.3    81  TYR81      -0.1227
      2  CA        28.5420   12.7940   38.7180 C.3    81  TYR81       0.1736
      3  C         29.7640   13.6260   38.3430 C.2    81  TYR81       0.2595
      4  O         30.7610   13.1090   37.8160 O.2    81  TYR81      -0.2718
      5  CB        27.3900   13.0670   37.7390 C.3    81  TYR81       0.0548
      6  CG        26.0170   12.5350   38.1520 C.ar   81  TYR81      -0.0200
      7  CD1       25.7920   11.1630   38.3820 C.ar   81  TYR81      -0.0009
      8  CD2       24.9380   13.4040   38.2830 C.ar   81  TYR81      -0.0009
      9  CE1       24.5400   10.7030   38.7510 C.ar   81  TYR81       0.0417
     10  CE2       23.6890   12.9550   38.6570 C.ar   81  TYR81       0.0417
     11  CZ        23.4920   11.6180   38.8880 C.ar   81  TYR81       0.1957
     12  OH        22.2250   11.2290   39.2550 O.3    81  TYR81      -0.2866
     13  N         29.6820   14.9270   38.6080 N.am   82  ILE82      -0.1980
     14  CA        30.8070   15.8320   38.3420 C.3    82  ILE82       0.1595
     15  C         31.3260   16.5710   39.5830 C.2    82  ILE82       0.2287
     16  O         30.5760   16.8870   40.5140 O.2    82  ILE82      -0.2864
     17  CB        30.4670   16.8410   37.2530 C.3    82  ILE82       0.0276
     18  CG1       29.2070   17.6080   37.6230 C.3    82  ILE82       0.0022
     19  CG2       30.3110   16.1260   35.9150 C.3    82  ILE82       0.0022
     20  CD1       29.0530   18.8970   36.8590 C.3    82  ILE82       0.0001
     21  N         24.0000   21.3430   36.0610 N.3   136  ILE136     -0.1231
     22  CA        24.6670   20.0450   35.9290 C.3   136  ILE136      0.1692
     23  C         24.1190   19.2110   34.7560 C.2   136  ILE136      0.2591
     24  O         24.8530   18.5770   34.0320 O.2   136  ILE136     -0.2718
     25  CB        24.4880   19.2320   37.2460 C.3   136  ILE136      0.0266
     26  CG1       25.2450   19.8930   38.3940 C.3   136  ILE136      0.0019
     27  CG2       25.0040   17.8010   37.0960 C.3   136  ILE136      0.0020
     28  CD1       24.7810   19.4310   39.7560 C.3   136  ILE136      0.0001
     29  N         22.8210   19.2180   34.5890 N.am  137  GLN137     -0.1979
     30  CA        22.1940   18.3380   33.6510 C.3   137  GLN137      0.1601
     31  C         22.4140   18.7420   32.1830 C.2   137  GLN137      0.2287
     32  O         22.1870   17.9500   31.2700 O.2   137  GLN137     -0.2864
     33  CB        20.6940   18.1590   34.0010 C.3   137  GLN137      0.0394
     34  CG        19.7230   19.2470   33.5890 C.3   137  GLN137      0.0908
     35  CD        18.3380   18.6400   33.3410 C.2   137  GLN137      0.2608
     36  OE1       17.7930   17.9250   34.2110 O.2   137  GLN137     -0.2717
     37  NE2       17.7770   18.8710   32.1320 N.am  137  GLN137     -0.0878
     38  N         25.2960   19.4260   31.2950 N.3   139  LEU139     -0.1231
     39  CA        26.7060   19.0760   31.1330 C.3   139  LEU139      0.1693
     40  C         26.9640   17.5820   30.9400 C.2   139  LEU139      0.2592
     41  O         26.4200   16.7800   31.6340 O.2   139  LEU139     -0.2718
     42  CB        27.4650   19.5480   32.3580 C.3   139  LEU139      0.0284
     43  CG        28.0120   20.9470   32.3920 C.3   139  LEU139      0.0019
     44  CD1       27.4700   21.9250   31.3780 C.3   139  LEU139      0.0001
     45  CD2       27.8380   21.5000   33.7930 C.3   139  LEU139      0.0001
     46  N         27.8620   17.2440   30.0270 N.am  140  VAL140     -0.1966
     47  CA        28.2050   15.8460   29.7650 C.3   140  VAL140      0.1727
     48  C         29.6650   15.6170   30.0710 C.2   140  VAL140      0.2616
     49  O         30.5220   16.3320   29.5800 O.2   140  VAL140     -0.2715
     50  CB        27.9030   15.5320   28.3480 C.3   140  VAL140      0.0290
     51  CG1       28.4600   14.1850   27.9640 C.3   140  VAL140      0.0023
     52  CG2       26.4040   15.6110   28.1680 C.3   140  VAL140      0.0023
     53  N         29.9380   14.6340   30.9160 N.am  141  LYS141     -0.1977
     54  CA        31.2350   14.4770   31.5160 C.3   141  LYS141      0.1596
     55  C         32.0950   13.6580   30.6000 C.2   141  LYS141      0.2287
     56  O         31.6140   12.6440   30.0230 O.2   141  LYS141     -0.2864
     57  CB        31.1430   13.7480   32.8560 C.3   141  LYS141      0.0298
     58  CG        32.5130   13.4370   33.4840 C.3   141  LYS141      0.0038
     59  CD        32.3860   12.8640   34.8920 C.3   141  LYS141      0.0206
     60  CE        33.7350   12.8560   35.6060 C.3   141  LYS141      0.1093
     61  NZ        33.6630   12.2300   36.9650 N.3   141  LYS141     -0.1314
     62  N         34.8120   11.1180   30.5960 N.3   143  ASN143     -0.1240
     63  CA        35.3260   10.0780   31.5150 C.3   143  ASN143      0.1653
     64  C         36.6330    9.4400   31.0450 C.2   143  ASN143      0.2266
     65  O         37.2250    8.6730   31.7890 O.2   143  ASN143     -0.2867
     66  CB        34.2950    8.9740   31.6930 C.3   143  ASN143      0.1155
     67  CG        33.0650    9.4290   32.4420 C.2   143  ASN143      0.2627
     68  OD1       32.0270    9.7210   31.8520 O.2   143  ASN143     -0.2716
     69  ND2       33.1580    9.4440   33.7620 N.am  143  ASN143     -0.0877
     70  N         21.0650   14.7330   24.2680 N.3   308  LYS308     -0.1245
     71  CA        22.1640   14.5100   25.1680 C.3   308  LYS308      0.1561
     72  C         22.7580   13.1140   25.0340 C.2   308  LYS308      0.2260
     73  O         23.9750   12.9440   25.1150 O.2   308  LYS308     -0.2867
     74  CB        21.7330   14.7470   26.5970 C.3   308  LYS308      0.0271
     75  CG        22.8950   14.8140   27.5830 C.3   308  LYS308      0.0035
     76  CD        22.3820   15.3870   28.8900 C.3   308  LYS308      0.0206
     77  CE        23.1460   14.8080   30.0330 C.3   308  LYS308      0.1093
     78  NZ        22.6410   15.3120   31.3440 N.3   308  LYS308     -0.1314
     79  N         27.0190   11.6690   24.7970 N.3   312  VAL312     -0.1245
     80  CA        27.6440   10.4900   25.4270 C.3   312  VAL312      0.1561
     81  C         28.1570    9.4790   24.3930 C.2   312  VAL312      0.2260
     82  O         29.2380    8.9640   24.5510 O.2   312  VAL312     -0.2867
     83  CB        26.6380    9.7660   26.3370 C.3   312  VAL312      0.0252
     84  CG1       27.1560    8.4490   26.8190 C.3   312  VAL312      0.0019
     85  CG2       26.2320   10.6200   27.5290 C.3   312  VAL312      0.0019
     86  N         31.2750   10.9250   22.6210 N.3   315  LEU315     -0.1231
     87  CA        32.4290   10.7850   23.5450 C.3   315  LEU315      0.1693
     88  C         32.9880    9.3740   23.5730 C.2   315  LEU315      0.2592
     89  O         34.1940    9.1870   23.5270 O.2   315  LEU315     -0.2718
     90  CB        32.0680   11.2130   24.9780 C.3   315  LEU315      0.0284
     91  CG        32.1830   12.7130   25.2220 C.3   315  LEU315      0.0019
     92  CD1       31.5280   13.0960   26.5500 C.3   315  LEU315      0.0001
     93  CD2       33.6400   13.1000   25.1770 C.3   315  LEU315      0.0001
     94  N         32.1060    8.3960   23.6110 N.am  316  ASP316     -0.1974
     95  CA        32.5150    6.9960   23.5770 C.3   316  ASP316      0.1709
     96  C         33.2030    6.6240   22.2640 C.2   316  ASP316      0.2293
     97  O         34.2530    5.9970   22.2890 O.2   316  ASP316     -0.2864
     98  CB        31.3490    6.0560   23.9210 C.3   316  ASP316      0.1436
     99  CG        30.7820    6.3280   25.3350 C.2   316  ASP316      0.3671
    100  OD1       31.5450    6.7580   26.2440 O.co2 316  ASP316     -0.2456
    101  OD2       29.5690    6.1350   25.5700 O.co2 316  ASP316     -0.2456
@<TRIPOS>BOND
     1    96    97    2
     2    96    95    1
     3    86    87    1
     4    89    88    2
     5    87    88    1
     6    87    90    1
     7    88    94   am
     8    95    94    1
     9    95    98    1
    10    98    99    1
    11    70    71    1
    12    81    82    2
    13    81    80    1
    14    79    80    1
    15    90    91    1
    16    72    73    2
    17    72    71    1
    18    71    74    1
    19    93    91    1
    20    91    92    1
    21    99   101   ar
    22    99   100   ar
    23    80    83    1
    24    83    84    1
    25    83    85    1
    26    74    75    1
    27    75    76    1
    28    51    50    1
    29    52    50    1
    30    50    47    1
    31    76    77    1
    32    49    48    2
    33    47    46    1
    34    47    48    1
    35    56    55    2
    36    46    40   am
    37    77    78    1
    38    48    53   am
    39    62    63    1
    40    55    54    1
    41    53    54    1
    42    40    39    1
    43    40    41    2
    44    64    63    1
    45    64    65    2
    46    39    38    1
    47    39    42    1
    48    32    31    2
    49    44    43    1
    50    63    66    1
    51    54    57    1
    52    66    67    1
    53    68    67    2
    54    37    35   am
    55    31    30    1
    56    42    43    1
    57    43    45    1
    58    67    69   am
    59    57    58    1
    60    35    34    1
    61    35    36    2
    62    58    59    1
    63    34    33    1
    64    30    33    1
    65    30    29    1
    66    24    23    2
    67    29    23   am
    68    23    22    1
    69    59    60    1
    70    60    61    1
    71    19    17    1
    72    22    21    1
    73    22    25    1
    74    20    18    1
    75    27    25    1
    76    25    26    1
    77    17    18    1
    78    17    14    1
    79     5     6    1
    80     5     2    1
    81     4     3    2
    82     6     8   ar
    83     6     7   ar
    84     8    10   ar
    85    14    13    1
    86    14    15    1
    87     3    13   am
    88     3     2    1
    89     7     9   ar
    90    26    28    1
    91    10    11   ar
    92     2     1    1
    93     9    11   ar
    94    11    12    1
    95    15    16    2
