@<TRIPOS>MOLECULE
tmp/3wieD01.pdb
 121 113 0 0 0
SMALL
GASTEIGER

@<TRIPOS>ATOM
      1  N          3.0940   18.2790   11.5620 N.3    40  CYS40      -0.1235
      2  CA         4.1170   18.9940   12.3390 C.3    40  CYS40       0.1677
      3  C          5.0650   19.6630   11.3670 C.2    40  CYS40       0.2270
      4  O          4.9180   19.4950   10.1360 O.2    40  CYS40      -0.2867
      5  CB         4.9090   18.0240   13.2350 C.3    40  CYS40       0.0956
      6  SG         6.2490   17.1680   12.3570 S.3    40  CYS40      -0.0801
      7  N          7.9420   19.1970   10.1660 N.3    42  THR42      -0.1218
      8  CA         8.6010   18.4120    9.1330 C.3    42  THR42       0.1862
      9  C          7.6900   18.2900    7.9100 C.2    42  THR42       0.2287
     10  O          8.1510   18.4020    6.7680 O.2    42  THR42      -0.2866
     11  CB         8.9680   16.9930    9.6520 C.3    42  THR42       0.1770
     12  OG1        9.8430   17.0920   10.8000 O.3    42  THR42      -0.2211
     13  CG2        9.6360   16.1650    8.5420 C.3    42  THR42       0.0375
     14  N         17.1080   16.7880    2.2470 N.3    53  PHE53      -0.1241
     15  CA        17.2040   15.3210    2.3160 C.3    53  PHE53       0.1605
     16  C         15.9470   14.5430    1.8850 C.2    53  PHE53       0.2264
     17  O         16.0370   13.3400    1.6120 O.2    53  PHE53      -0.2867
     18  CB        17.6490   14.8690    3.7110 C.3    53  PHE53       0.0534
     19  CG        16.7930   15.3830    4.8400 C.ar   53  PHE53      -0.0203
     20  CD1       16.9660   16.6780    5.3370 C.ar   53  PHE53      -0.0042
     21  CD2       15.8480   14.5610    5.4420 C.ar   53  PHE53      -0.0042
     22  CE1       16.1930   17.1490    6.3840 C.ar   53  PHE53      -0.0003
     23  CE2       15.0730   15.0260    6.4940 C.ar   53  PHE53      -0.0003
     24  CZ        15.2470   16.3210    6.9680 C.ar   53  PHE53      -0.0000
     25  N          3.2880   11.1920    8.3800 N.3    67  HIS67      -0.1241
     26  CA         3.9670   10.1460    9.1780 C.3    67  HIS67       0.1621
     27  C          3.3760    9.9100   10.5970 C.2    67  HIS67       0.2264
     28  O          3.5710    8.8380   11.1980 O.2    67  HIS67      -0.2867
     29  CB         5.4690   10.4390    9.2230 C.3    67  HIS67       0.0745
     30  CG         5.7990   11.7770    9.7820 C.ar   67  HIS67       0.0817
     31  ND1        5.8860   12.9030    8.9980 N.ar   67  HIS67      -0.2268
     32  CD2        6.0380   12.1800   11.0480 C.ar   67  HIS67       0.1154
     33  CE1        6.1810   13.9440    9.7540 C.ar   67  HIS67       0.1986
     34  NE2        6.2820   13.5310   11.0020 N.ar   67  HIS67      -0.2212
     35  N          7.0490    4.9280   11.3650 N.3    92  VAL92      -0.1231
     36  CA         7.6150    5.8340   10.3740 C.3    92  VAL92       0.1692
     37  C          8.9180    5.3230    9.7210 C.2    92  VAL92       0.2591
     38  O          9.0200    5.2900    8.5190 O.2    92  VAL92      -0.2718
     39  CB         7.8840    7.1850   10.9660 C.3    92  VAL92       0.0266
     40  CG1        8.3970    8.1080    9.8880 C.3    92  VAL92       0.0020
     41  CG2        6.6010    7.7330   11.6010 C.3    92  VAL92       0.0020
     42  N          9.9060    4.9150   10.5160 N.am   93  ARG93      -0.1980
     43  CA        11.2060    4.4460    9.9950 C.3    93  ARG93       0.1597
     44  C         11.1940    2.9820    9.8100 C.2    93  ARG93       0.2287
     45  O         10.7500    2.2250   10.6590 O.2    93  ARG93      -0.2864
     46  CB        12.3300    4.8280   10.9210 C.3    93  ARG93       0.0334
     47  CG        13.6480    5.1200   10.2080 C.3    93  ARG93       0.0492
     48  CD        14.7210    5.5020   11.1860 C.3    93  ARG93       0.2205
     49  NE        14.9850    6.9110   11.1570 N.pl3  93  ARG93      -0.0865
     50  CZ        16.1470    7.4850   11.4780 C.cat  93  ARG93       0.5346
     51  NH1       17.1930    6.7670   11.9150 N.pl3  93  ARG93       0.1354
     52  NH2       16.2660    8.7880   11.3590 N.pl3  93  ARG93       0.1354
     53  N         12.0580    6.7280    5.7620 N.3   118  GLU118     -0.1245
     54  CA        10.9930    7.2060    6.5970 C.3   118  GLU118      0.1567
     55  C          9.7670    7.4550    5.7300 C.2   118  GLU118      0.2260
     56  O          9.7970    8.2740    4.7860 O.2   118  GLU118     -0.2867
     57  CB        11.4270    8.4770    7.3050 C.3   118  GLU118      0.0388
     58  CG        12.4680    8.2200    8.4000 C.3   118  GLU118      0.1160
     59  CD        13.6380    9.1500    8.3280 C.2   118  GLU118      0.3649
     60  OE1       14.0220    9.5080    7.2070 O.co2 118  GLU118     -0.2457
     61  OE2       14.1690    9.5450    9.3790 O.co2 118  GLU118     -0.2457
     62  N          8.8220   10.9080    4.0230 N.3   121  ILE121     -0.1245
     63  CA         9.9480   11.8200    3.9660 C.3   121  ILE121      0.1561
     64  C         11.0380   11.3740    3.0000 C.2   121  ILE121      0.2260
     65  O         11.5520   12.1400    2.2390 O.2   121  ILE121     -0.2867
     66  CB        10.5720   12.0500    5.3620 C.3   121  ILE121      0.0252
     67  CG1        9.5860   12.6980    6.3140 C.3   121  ILE121      0.0019
     68  CG2       11.7810   12.9430    5.2650 C.3   121  ILE121      0.0019
     69  CD1        9.0670   11.7840    7.3880 C.3   121  ILE121      0.0001
     70  N          2.9440    8.8980   17.5950 N.3   155  GLU155     -0.1245
     71  CA         4.1410    9.1700   16.8270 C.3   155  GLU155      0.1567
     72  C          4.9210   10.3340   17.4230 C.2   155  GLU155      0.2260
     73  O          6.1410   10.2560   17.5590 O.2   155  GLU155     -0.2867
     74  CB         3.7870    9.4580   15.3720 C.3   155  GLU155      0.0388
     75  CG         4.9170    9.4570   14.3390 C.3   155  GLU155      0.1160
     76  CD         5.9190   10.5790   14.4660 C.2   155  GLU155      0.3649
     77  OE1        7.0350   10.4550   13.8610 O.co2 155  GLU155     -0.2457
     78  OE2        5.6190   11.5490   15.2010 O.co2 155  GLU155     -0.2457
     79  N          6.5140    9.0620   20.7740 N.3   158  LYS158     -0.1231
     80  CA         7.4310    7.9630   20.7310 C.3   158  LYS158      0.1693
     81  C          8.8360    8.5590   20.5740 C.2   158  LYS158      0.2592
     82  O          9.7970    7.9960   21.1190 O.2   158  LYS158     -0.2718
     83  CB         7.0150    6.9150   19.6660 C.3   158  LYS158      0.0285
     84  CG         7.7000    6.7400   18.3140 C.3   158  LYS158      0.0035
     85  CD         7.8910    7.9640   17.4930 C.3   158  LYS158      0.0206
     86  CE         8.0460    7.6700   16.0270 C.3   158  LYS158      0.1093
     87  NZ         8.8330    8.6850   15.2770 N.3   158  LYS158     -0.1314
     88  N          8.9610    9.7030   19.9020 N.am  159  ASN159     -0.1974
     89  CA        10.2520   10.3530   19.8410 C.3   159  ASN159      0.1688
     90  C         10.7350   10.7870   21.2130 C.2   159  ASN159      0.2292
     91  O         11.9270   10.8390   21.4800 O.2   159  ASN159     -0.2864
     92  CB        10.2380   11.6000   18.9870 C.3   159  ASN159      0.1181
     93  CG         9.8640   11.3380   17.5650 C.2   159  ASN159      0.2629
     94  OD1       10.2770   10.3500   16.9190 O.2   159  ASN159     -0.2716
     95  ND2        9.0720   12.2570   17.0360 N.am  159  ASN159     -0.0877
     96  N         15.0020   20.7500   15.3280 N.3   276  PHE276     -0.1241
     97  CA        15.8920   21.2780   14.3270 C.3   276  PHE276      0.1605
     98  C         15.2730   22.3250   13.4590 C.2   276  PHE276      0.2264
     99  O         14.1950   22.1600   12.9660 O.2   276  PHE276     -0.2867
    100  CB        16.5390   20.1940   13.4920 C.3   276  PHE276      0.0534
    101  CG        15.5930   19.1850   12.9450 C.ar  276  PHE276     -0.0203
    102  CD1       14.5930   19.5490   12.0930 C.ar  276  PHE276     -0.0042
    103  CD2       15.7540   17.8590   13.2490 C.ar  276  PHE276     -0.0042
    104  CE1       13.7470   18.6040   11.5670 C.ar  276  PHE276     -0.0003
    105  CE2       14.9250   16.9080   12.7260 C.ar  276  PHE276     -0.0003
    106  CZ        13.9110   17.2800   11.8820 C.ar  276  PHE276     -0.0000
    107  N         16.9830   11.4500   17.5820 N.3   304  VAL304     -0.1231
    108  CA        16.0390   11.4300   16.4970 C.3   304  VAL304      0.1692
    109  C         15.3060   10.1060   16.3720 C.2   304  VAL304      0.2592
    110  O         15.9150    9.0830   16.4670 O.2   304  VAL304     -0.2718
    111  CB        16.7280   11.7740   15.1680 C.3   304  VAL304      0.0266
    112  CG1       17.5190   10.5990   14.6400 C.3   304  VAL304      0.0020
    113  CG2       15.7150   12.2180   14.1450 C.3   304  VAL304      0.0020
    114  N         13.9930   10.1610   16.1480 N.am  305  ASP305     -0.1974
    115  CA        13.1500    9.0260   15.8450 C.3   305  ASP305      0.1709
    116  C         13.0280    8.1010   17.0200 C.2   305  ASP305      0.2293
    117  O         13.3520    8.4620   18.1030 O.2   305  ASP305     -0.2864
    118  CB        13.6280    8.2930   14.6160 C.3   305  ASP305      0.1436
    119  CG        12.5010    7.6370   13.8330 C.2   305  ASP305      0.3671
    120  OD1       11.6720    6.9140   14.3790 O.co2 305  ASP305     -0.2456
    121  OD2       12.4510    7.8280   12.6290 O.co2 305  ASP305     -0.2456
@<TRIPOS>BOND
     1    17    16    2
     2    16    15    1
     3    65    64    2
     4    14    15    1
     5    15    18    1
     6    64    63    1
     7    18    19    1
     8    63    62    1
     9    63    66    1
    10    56    55    2
    11    19    20   ar
    12    19    21   ar
    13    68    66    1
    14    20    22   ar
    15    66    67    1
    16    21    23   ar
    17    55    54    1
    18    53    54    1
    19    67    69    1
    20    22    24   ar
    21    23    24   ar
    22    54    57    1
    23    10     9    2
    24    60    59   ar
    25    57    58    1
    26     9     8    1
    27    59    58    1
    28    59    61   ar
    29    25    26    1
    30    38    37    2
    31    13    11    1
    32    31    33   ar
    33    31    30   ar
    34     8    11    1
    35     8     7    1
    36    26    29    1
    37    26    27    1
    38    29    30    1
    39    11    12    1
    40    37    36    1
    41    37    42   am
    42    33    34   ar
    43    30    32   ar
    44    44    43    1
    45    44    45    2
    46    40    39    1
    47    43    42    1
    48    43    46    1
    49     4     3    2
    50    47    46    1
    51    47    48    1
    52    36    39    1
    53    36    35    1
    54    27    28    2
    55    39    41    1
    56    34    32   ar
    57    49    48    1
    58    49    50    2
    59    52    50    1
    60     3     2    1
    61    50    51    1
    62     1     2    1
    63   104   106   ar
    64   104   102   ar
    65   106   105   ar
    66   102   101   ar
    67     2     5    1
    68     6     5    1
    69   121   119   ar
    70   105   103   ar
    71   101   103   ar
    72   101   100    1
    73    99    98    2
    74    98    97    1
    75   100    97    1
    76   119   120   ar
    77   119   118    1
    78    77    76   ar
    79   113   111    1
    80    97    96    1
    81    75    76    1
    82    75    74    1
    83    76    78   ar
    84   118   115    1
    85   112   111    1
    86   111   108    1
    87    87    86    1
    88    74    71    1
    89   115   114    1
    90   115   116    1
    91    86    85    1
    92   114   109   am
    93   109   110    2
    94   109   108    1
    95   108   107    1
    96    71    72    1
    97    71    70    1
    98    94    93    2
    99   116   117    2
   100    95    93   am
   101    72    73    2
   102    85    84    1
   103    93    92    1
   104    84    83    1
   105    92    89    1
   106    83    80    1
   107    89    88    1
   108    89    90    1
   109    88    81   am
   110    81    80    1
   111    81    82    2
   112    80    79    1
   113    90    91    2
