@<TRIPOS>MOLECULE
tmp/3wifA00.pdb
 135 138 0 0 0
SMALL
GASTEIGER

@<TRIPOS>ATOM
      1  N         13.5660  -19.4630   36.6190 N.3    33  PHE33      -0.1241
      2  CA        12.2700  -19.0060   37.1030 C.3    33  PHE33       0.1605
      3  C         11.1670  -19.4740   36.1810 C.2    33  PHE33       0.2264
      4  O         11.3590  -19.5560   34.9690 O.2    33  PHE33      -0.2867
      5  CB        12.2330  -17.4790   37.1160 C.3    33  PHE33       0.0534
      6  CG        13.1850  -16.8720   38.0860 C.ar   33  PHE33      -0.0203
      7  CD1       14.4980  -16.6230   37.7210 C.ar   33  PHE33      -0.0042
      8  CD2       12.7730  -16.5670   39.3720 C.ar   33  PHE33      -0.0042
      9  CE1       15.3870  -16.0780   38.6270 C.ar   33  PHE33      -0.0003
     10  CE2       13.6520  -16.0180   40.2800 C.ar   33  PHE33      -0.0003
     11  CZ        14.9610  -15.7740   39.9080 C.ar   33  PHE33      -0.0000
     12  N          7.2200  -18.2870   35.2520 N.3    35  HIS35      -0.1241
     13  CA         6.1630  -17.3010   35.4450 C.3    35  HIS35       0.1621
     14  C          4.8840  -17.8540   34.8580 C.2    35  HIS35       0.2264
     15  O          4.9310  -18.6540   33.9360 O.2    35  HIS35      -0.2867
     16  CB         6.4770  -15.9990   34.7100 C.3    35  HIS35       0.0745
     17  CG         7.7070  -15.2980   35.2080 C.ar   35  HIS35       0.0817
     18  ND1        7.6640  -14.0760   35.8220 N.ar   35  HIS35      -0.2268
     19  CD2        9.0090  -15.6680   35.1600 C.ar   35  HIS35       0.1154
     20  CE1        8.8930  -13.7060   36.1450 C.ar   35  HIS35       0.1986
     21  NE2        9.7260  -14.6500   35.7550 N.ar   35  HIS35      -0.2212
     22  N          1.0830  -16.5890   33.1690 N.3    37  VAL37      -0.1245
     23  CA         0.4240  -15.4420   32.5530 C.3    37  VAL37       0.1561
     24  C         -0.9770  -15.8590   32.1160 C.2    37  VAL37       0.2260
     25  O         -1.1570  -16.9530   31.5860 O.2    37  VAL37      -0.2867
     26  CB         1.2380  -14.9230   31.3420 C.3    37  VAL37       0.0252
     27  CG1        0.4400  -13.8960   30.5270 C.3    37  VAL37       0.0019
     28  CG2        2.5570  -14.3180   31.8120 C.3    37  VAL37       0.0019
     29  N         -0.0130  -10.7830   34.2240 N.3    47  TRP47      -0.1241
     30  CA         0.9870  -11.5610   34.9550 C.3    47  TRP47       0.1605
     31  C          0.4270  -12.0850   36.2790 C.2    47  TRP47       0.2264
     32  O         -0.1420  -11.3270   37.0680 O.2    47  TRP47      -0.2867
     33  CB         2.2080  -10.6740   35.1930 C.3    47  TRP47       0.0550
     34  CG         3.3790  -11.3270   35.8490 C.ar   47  TRP47       0.0003
     35  CD1        4.3220  -12.1140   35.2550 C.ar   47  TRP47       0.0946
     36  CD2        3.7640  -11.2000   37.2270 C.ar   47  TRP47       0.0152
     37  NE1        5.2590  -12.5080   36.1860 N.ar   47  TRP47      -0.2442
     38  CE2        4.9420  -11.9640   37.3930 C.ar   47  TRP47       0.0810
     39  CE3        3.2160  -10.5410   38.3270 C.ar   47  TRP47       0.0012
     40  CZ2        5.5900  -12.0590   38.6320 C.ar   47  TRP47       0.0191
     41  CZ3        3.8600  -10.6440   39.5500 C.ar   47  TRP47       0.0001
     42  CH2        5.0330  -11.4010   39.6920 C.ar   47  TRP47       0.0015
     43  N          5.6670  -15.2700   39.8530 N.3    50  TRP50      -0.1241
     44  CA         6.8570  -16.0520   39.5230 C.3    50  TRP50       0.1605
     45  C          7.1370  -17.0850   40.6040 C.2    50  TRP50       0.2264
     46  O          6.7150  -16.9250   41.7490 O.2    50  TRP50      -0.2867
     47  CB         8.0960  -15.1630   39.2730 C.3    50  TRP50       0.0550
     48  CG         8.6390  -14.3670   40.4570 C.ar   50  TRP50       0.0003
     49  CD1        8.4420  -13.0390   40.7030 C.ar   50  TRP50       0.0946
     50  CD2        9.5060  -14.8410   41.5070 C.ar   50  TRP50       0.0152
     51  NE1        9.1100  -12.6570   41.8450 N.ar   50  TRP50      -0.2442
     52  CE2        9.7720  -13.7410   42.3560 C.ar   50  TRP50       0.0810
     53  CE3       10.0700  -16.0840   41.8180 C.ar   50  TRP50       0.0012
     54  CZ2       10.5800  -13.8500   43.4930 C.ar   50  TRP50       0.0191
     55  CZ3       10.8730  -16.1890   42.9480 C.ar   50  TRP50       0.0001
     56  CH2       11.1190  -15.0780   43.7700 C.ar   50  TRP50       0.0015
     57  N          6.1160  -19.4890   31.4100 N.3    97  ALA97      -0.1245
     58  CA         7.3250  -18.9720   30.7830 C.3    97  ALA97       0.1562
     59  C          8.4900  -19.2410   31.7090 C.2    97  ALA97       0.2260
     60  O          8.3400  -19.2040   32.9240 O.2    97  ALA97      -0.2867
     61  CB         7.2050  -17.4810   30.4970 C.3    97  ALA97       0.0290
     62  N         12.8510  -18.6570   32.4580 N.3    99  HIS99      -0.1226
     63  CA        14.0880  -17.9510   32.1210 C.3    99  HIS99       0.1752
     64  C         15.0970  -18.0730   33.2480 C.2    99  HIS99       0.2596
     65  O         14.7270  -18.1930   34.4220 O.2    99  HIS99      -0.2718
     66  CB        13.8110  -16.4690   31.8720 C.3    99  HIS99       0.0759
     67  CG        13.4230  -15.7200   33.1060 C.ar   99  HIS99       0.0818
     68  ND1       14.3460  -15.0630   33.9020 N.ar   99  HIS99      -0.2268
     69  CD2       12.2190  -15.5470   33.6970 C.ar   99  HIS99       0.1154
     70  CE1       13.7150  -14.5190   34.9220 C.ar   99  HIS99       0.1986
     71  NE2       12.4400  -14.7810   34.8320 N.ar   99  HIS99      -0.2212
     72  N         16.3770  -18.0310   32.8870 N.am  100  ALA100     -0.1966
     73  CA        17.4290  -17.8740   33.8800 C.3   100  ALA100      0.1728
     74  C         17.5230  -16.3960   34.2350 C.2   100  ALA100      0.2616
     75  O         17.0930  -15.5440   33.4660 O.2   100  ALA100     -0.2715
     76  CB        18.7610  -18.3760   33.3260 C.3   100  ALA100      0.0334
     77  N         18.0780  -16.0960   35.4070 N.am  101  TYR101     -0.1960
     78  CA        18.2320  -14.7170   35.8470 C.3   101  TYR101      0.1771
     79  C         19.0080  -13.9150   34.8030 C.2   101  TYR101      0.2620
     80  O         20.0720  -14.3460   34.3570 O.2   101  TYR101     -0.2715
     81  CB        18.9550  -14.6830   37.1990 C.3   101  TYR101      0.0574
     82  CG        19.0170  -13.3170   37.8480 C.ar  101  TYR101     -0.0198
     83  CD1       20.0330  -12.4230   37.5280 C.ar  101  TYR101     -0.0009
     84  CD2       18.0770  -12.9330   38.7930 C.ar  101  TYR101     -0.0009
     85  CE1       20.0990  -11.1760   38.1200 C.ar  101  TYR101      0.0417
     86  CE2       18.1330  -11.6800   39.3950 C.ar  101  TYR101      0.0417
     87  CZ        19.1500  -10.8120   39.0520 C.ar  101  TYR101      0.1957
     88  OH        19.2180   -9.5700   39.6420 O.3   101  TYR101     -0.2866
     89  N         18.4480  -12.7710   34.4050 N.am  102  ASP102     -0.1957
     90  CA        19.0800  -11.8650   33.4380 C.3   102  ASP102      0.1840
     91  C         19.1780  -12.4640   32.0240 C.2   102  ASP102      0.2622
     92  O         19.9590  -11.9960   31.1930 O.2   102  ASP102     -0.2715
     93  CB        20.4600  -11.4170   33.9510 C.3   102  ASP102      0.1450
     94  CG        21.0250  -10.2390   33.1780 C.2   102  ASP102      0.3671
     95  OD1       20.2890   -9.2540   32.9710 O.co2 102  ASP102     -0.2456
     96  OD2       22.2060  -10.3070   32.7750 O.co2 102  ASP102     -0.2456
     97  N         18.3760  -13.4880   31.7420 N.am  103  LYS103     -0.1963
     98  CA        18.3540  -14.0990   30.4110 C.3   103  LYS103      0.1728
     99  C         16.9380  -14.0750   29.8410 C.2   103  LYS103      0.2616
    100  O         15.9710  -13.9920   30.5860 O.2   103  LYS103     -0.2715
    101  CB        18.8540  -15.5400   30.4630 C.3   103  LYS103      0.0311
    102  CG        20.2740  -15.6540   30.9450 C.3   103  LYS103      0.0038
    103  CD        21.2030  -14.8550   30.0600 C.3   103  LYS103      0.0206
    104  CE        22.5990  -14.8650   30.6120 C.3   103  LYS103      0.1093
    105  NZ        23.5230  -14.6230   29.5070 N.3   103  LYS103     -0.1314
    106  N         16.8250  -14.1700   28.5220 N.am  104  GLU104     -0.1964
    107  CA        15.5270  -14.0520   27.8510 C.3   104  GLU104      0.1718
    108  C         14.6090  -15.2480   28.1210 C.2   104  GLU104      0.2458
    109  O         15.0760  -16.3800   28.2590 O.2   104  GLU104     -0.2730
    110  CB        15.7110  -13.8320   26.3430 C.3   104  GLU104      0.0428
    111  CG        16.4480  -14.9490   25.6220 C.3   104  GLU104      0.1163
    112  CD        17.9350  -14.9680   25.9320 C.2   104  GLU104      0.3649
    113  OE1       18.4840  -13.8980   26.2730 O.co2 104  GLU104     -0.2457
    114  OE2       18.5440  -16.0560   25.8550 O.co2 104  GLU104     -0.2457
    115  N         13.2920  -14.9940   28.2080 N.am  105  PRO105     -0.2727
    116  CA        12.3320  -16.0530   28.5490 C.3   105  PRO105      0.1402
    117  C         11.8510  -16.9050   27.3750 C.2   105  PRO105      0.2269
    118  O         11.8130  -16.4480   26.2290 O.2   105  PRO105     -0.2865
    119  CB        11.1540  -15.2690   29.1310 C.3   105  PRO105      0.0296
    120  CG        11.2010  -13.9600   28.4060 C.3   105  PRO105      0.0237
    121  CD        12.6740  -13.6550   28.2390 C.3   105  PRO105      0.0939
    122  N          8.5420  -19.3150   26.2460 N.3   107  TRP107     -0.1241
    123  CA         7.1330  -19.4590   26.5910 C.3   107  TRP107      0.1605
    124  C          6.5560  -20.8040   26.1660 C.2   107  TRP107      0.2264
    125  O          6.9030  -21.3430   25.1090 O.2   107  TRP107     -0.2867
    126  CB         6.3240  -18.3510   25.9230 C.3   107  TRP107      0.0550
    127  CG         6.4200  -16.9960   26.5470 C.ar  107  TRP107      0.0003
    128  CD1        7.5490  -16.2430   26.7390 C.ar  107  TRP107      0.0946
    129  CD2        5.3300  -16.2040   27.0100 C.ar  107  TRP107      0.0152
    130  NE1        7.2220  -15.0390   27.3130 N.ar  107  TRP107     -0.2442
    131  CE2        5.8600  -14.9890   27.4880 C.ar  107  TRP107      0.0810
    132  CE3        3.9440  -16.4070   27.0730 C.ar  107  TRP107      0.0012
    133  CZ2        5.0640  -13.9830   28.0230 C.ar  107  TRP107      0.0191
    134  CZ3        3.1530  -15.4090   27.6050 C.ar  107  TRP107      0.0001
    135  CH2        3.7110  -14.2090   28.0670 C.ar  107  TRP107      0.0015
@<TRIPOS>BOND
     1   125   124    2
     2   111   112    1
     3   111   110    1
     4   114   112   ar
     5   126   127    1
     6   126   123    1
     7   112   113   ar
     8   124   123    1
     9   118   117    2
    10   122   123    1
    11   110   107    1
    12   127   128   ar
    13   127   129   ar
    14   128   130   ar
    15   129   132   ar
    16   129   131   ar
    17   132   134   ar
    18   130   131   ar
    19   117   116    1
    20   131   133   ar
    21   134   135   ar
    22   107   108    1
    23   107   106    1
    24   133   135   ar
    25   108   115   am
    26   108   109    2
    27   115   121    1
    28   115   116    1
    29   121   120    1
    30   120   119    1
    31   106    99   am
    32   116   119    1
    33   105   104    1
    34    99    98    1
    35    99   100    2
    36   103   104    1
    37   103   102    1
    38    98   101    1
    39    98    97    1
    40   101   102    1
    41    61    58    1
    42    27    26    1
    43    58    57    1
    44    58    59    1
    45    92    91    2
    46    26    28    1
    47    26    23    1
    48    25    24    2
    49    59    60    2
    50    97    91   am
    51    66    63    1
    52    66    67    1
    53    91    90    1
    54    24    23    1
    55    63    62    1
    56    63    64    1
    57    23    22    1
    58    96    94   ar
    59    72    64   am
    60    72    73    1
    61    95    94   ar
    62    67    69   ar
    63    67    68   ar
    64    94    93    1
    65    64    65    2
    66    76    73    1
    67    90    93    1
    68    90    89    1
    69    75    74    2
    70    69    71   ar
    71    73    74    1
    72    68    70   ar
    73    15    14    2
    74    29    30    1
    75    74    77   am
    76    80    79    2
    77    89    79   am
    78    16    17    1
    79    16    13    1
    80    79    78    1
    81    71    70   ar
    82    14    13    1
    83    30    33    1
    84    30    31    1
    85     4     3    2
    86    19    17   ar
    87    19    21   ar
    88    33    34    1
    89    17    18   ar
    90    12    13    1
    91    35    34   ar
    92    35    37   ar
    93    77    78    1
    94    21    20   ar
    95    18    20   ar
    96    78    81    1
    97    34    36   ar
    98     3     2    1
    99    37    38   ar
   100    31    32    2
   101     1     2    1
   102     2     5    1
   103     5     6    1
   104    81    82    1
   105    36    38   ar
   106    36    39   ar
   107    38    40   ar
   108    83    82   ar
   109    83    85   ar
   110     7     6   ar
   111     7     9   ar
   112    82    84   ar
   113     6     8   ar
   114    85    87   ar
   115    39    41   ar
   116     9    11   ar
   117    40    42   ar
   118    84    86   ar
   119    87    86   ar
   120    87    88    1
   121    47    44    1
   122    47    48    1
   123     8    10   ar
   124    44    43    1
   125    44    45    1
   126    41    42   ar
   127    11    10   ar
   128    48    49   ar
   129    48    50   ar
   130    45    46    2
   131    49    51   ar
   132    50    53   ar
   133    50    52   ar
   134    53    55   ar
   135    51    52   ar
   136    52    54   ar
   137    55    56   ar
   138    54    56   ar
