@<TRIPOS>MOLECULE
tmp/3wifB00.pdb
 95 89 0 0 0
SMALL
GASTEIGER

@<TRIPOS>ATOM
      1  N         16.1760   -1.5120   36.4150 N.3    31  HIS31      -0.1241
      2  CA        16.2860   -2.3880   37.5760 C.3    31  HIS31       0.1621
      3  C         17.5050   -1.9950   38.4020 C.2    31  HIS31       0.2264
      4  O         18.4410   -1.3820   37.8830 O.2    31  HIS31      -0.2867
      5  CB        16.4070   -3.8490   37.1280 C.3    31  HIS31       0.0745
      6  CG        16.2880   -4.8420   38.2380 C.ar   31  HIS31       0.0817
      7  ND1       17.3760   -5.3710   38.8940 N.ar   31  HIS31      -0.2268
      8  CD2       15.1950   -5.4190   38.8120 C.ar   31  HIS31       0.1154
      9  CE1       16.9700   -6.2250   39.8190 C.ar   31  HIS31       0.1986
     10  NE2       15.6490   -6.2650   39.7860 N.ar   31  HIS31      -0.2212
     11  N         19.8840   -3.6600   39.3850 N.3    33  ASN33      -0.1240
     12  CA        21.1220   -4.2370   38.8760 C.3    33  ASN33       0.1653
     13  C         21.6690   -3.4960   37.6580 C.2    33  ASN33       0.2266
     14  O         22.7080   -3.8640   37.1140 O.2    33  ASN33      -0.2867
     15  CB        20.9950   -5.7510   38.6300 C.3    33  ASN33       0.1155
     16  CG        20.0800   -6.0990   37.4630 C.2    33  ASN33       0.2627
     17  OD1       19.7270   -5.2500   36.6460 O.2    33  ASN33      -0.2716
     18  ND2       19.6990   -7.3670   37.3810 N.am   33  ASN33      -0.0877
     19  N         14.6710   -4.2600   31.9240 N.3    37  TYR37      -0.1241
     20  CA        13.9910   -5.4320   31.3920 C.3    37  TYR37       0.1605
     21  C         12.7050   -5.0210   30.6920 C.2    37  TYR37       0.2264
     22  O         11.6260   -5.0460   31.2750 O.2    37  TYR37      -0.2867
     23  CB        13.7400   -6.4620   32.5020 C.3    37  TYR37       0.0534
     24  CG        15.0330   -6.9660   33.1150 C.ar   37  TYR37      -0.0201
     25  CD1       15.8530   -7.8520   32.4220 C.ar   37  TYR37      -0.0009
     26  CD2       15.4420   -6.5390   34.3740 C.ar   37  TYR37      -0.0009
     27  CE1       17.0460   -8.3060   32.9680 C.ar   37  TYR37       0.0417
     28  CE2       16.6350   -6.9900   34.9320 C.ar   37  TYR37       0.0417
     29  CZ        17.4290   -7.8700   34.2220 C.ar   37  TYR37       0.1957
     30  OH        18.6090   -8.3200   34.7680 O.3    37  TYR37      -0.2866
     31  N         10.5850   -5.8000   27.1760 N.3    39  GLU39      -0.1245
     32  CA        10.4620   -6.7730   26.0970 C.3    39  GLU39       0.1567
     33  C          9.2860   -6.4400   25.2000 C.2    39  GLU39       0.2260
     34  O          8.3170   -5.8370   25.6470 O.2    39  GLU39      -0.2867
     35  CB        10.2730   -8.1800   26.6800 C.3    39  GLU39       0.0388
     36  CG        11.5260   -8.7040   27.3470 C.3    39  GLU39       0.1160
     37  CD        11.2930   -9.9180   28.2350 C.2    39  GLU39       0.3649
     38  OE1       10.1840  -10.4900   28.2220 O.co2  39  GLU39      -0.2457
     39  OE2       12.2490  -10.3000   28.9420 O.co2  39  GLU39      -0.2457
     40  N          6.5950   -8.3260   22.3940 N.3    41  TYR41      -0.1241
     41  CA         6.0320   -9.5780   21.9030 C.3    41  TYR41       0.1605
     42  C          5.0770   -9.3300   20.7440 C.2    41  TYR41       0.2264
     43  O          4.3900   -8.3120   20.7000 O.2    41  TYR41      -0.2867
     44  CB         5.2410  -10.2690   23.0170 C.3    41  TYR41       0.0534
     45  CG         6.1040  -10.8310   24.1120 C.ar   41  TYR41      -0.0201
     46  CD1        6.4750  -10.0520   25.2000 C.ar   41  TYR41      -0.0009
     47  CD2        6.5540  -12.1450   24.0560 C.ar   41  TYR41      -0.0009
     48  CE1        7.2740  -10.5640   26.2080 C.ar   41  TYR41       0.0417
     49  CE2        7.3540  -12.6660   25.0520 C.ar   41  TYR41       0.0417
     50  CZ         7.7070  -11.8700   26.1280 C.ar   41  TYR41       0.1957
     51  OH         8.5050  -12.3880   27.1180 O.3    41  TYR41      -0.2866
     52  N          6.2980   -5.5060   27.7160 N.3    94  LEU94      -0.1245
     53  CA         6.2910   -6.0720   29.0590 C.3    94  LEU94       0.1561
     54  C          7.4690   -5.5040   29.8200 C.2    94  LEU94       0.2260
     55  O          8.5880   -5.5280   29.3140 O.2    94  LEU94      -0.2867
     56  CB         6.4510   -7.5930   28.9840 C.3    94  LEU94       0.0270
     57  CG         6.8060   -8.3320   30.2770 C.3    94  LEU94       0.0019
     58  CD1        5.6700   -8.2340   31.2860 C.3    94  LEU94       0.0001
     59  CD2        7.1390   -9.7950   29.9570 C.3    94  LEU94       0.0001
     60  N          9.8460   -6.0840   33.1170 N.3    96  GLY96      -0.1210
     61  CA        10.2200   -7.1070   34.0750 C.3    96  GLY96       0.1956
     62  C         11.1310   -6.5560   35.1510 C.2    96  GLY96       0.2612
     63  O         11.8370   -7.3020   35.8290 O.2    96  GLY96      -0.2717
     64  N         11.1150   -5.2410   35.3250 N.am   97  SER97      -0.1952
     65  CA        12.0390   -4.6090   36.2660 C.3    97  SER97       0.1924
     66  C         11.4880   -4.4470   37.6800 C.2    97  SER97       0.2314
     67  O         12.2510   -4.4170   38.6470 O.2    97  SER97      -0.2863
     68  CB        12.4970   -3.2570   35.7290 C.3    97  SER97       0.2116
     69  OG        13.4020   -3.4360   34.6560 O.3    97  SER97      -0.2180
     70  N          8.2760   -5.8590   40.2880 N.3    99  VAL99      -0.1245
     71  CA         7.0870   -6.6770   40.5090 C.3    99  VAL99       0.1561
     72  C          5.9600   -5.8410   41.1260 C.2    99  VAL99       0.2260
     73  O          6.2160   -4.9450   41.9310 O.2    99  VAL99      -0.2867
     74  CB         7.3790   -7.9410   41.3650 C.3    99  VAL99       0.0252
     75  CG1        8.4860   -8.7710   40.7280 C.3    99  VAL99       0.0019
     76  CG2        7.7420   -7.5550   42.7740 C.3    99  VAL99       0.0019
     77  N          5.1070   -7.7580   37.5530 N.3   101  LEU101     -0.1245
     78  CA         5.4420   -7.4960   36.1600 C.3   101  LEU101      0.1561
     79  C          4.1730   -7.0850   35.4380 C.2   101  LEU101      0.2260
     80  O          3.0920   -7.5860   35.7430 O.2   101  LEU101     -0.2867
     81  CB         6.0660   -8.7320   35.5080 C.3   101  LEU101      0.0270
     82  CG         7.3790   -9.2130   36.1310 C.3   101  LEU101      0.0019
     83  CD1        8.1980   -9.9750   35.1020 C.3   101  LEU101      0.0001
     84  CD2        8.1780   -8.0560   36.7350 C.3   101  LEU101      0.0001
     85  N          2.1840   -5.6820   31.6220 N.3   103  PHE103     -0.1241
     86  CA         2.1330   -5.6090   30.1660 C.3   103  PHE103      0.1605
     87  C          1.4010   -4.3550   29.7160 C.2   103  PHE103      0.2264
     88  O          0.5110   -3.8630   30.4060 O.2   103  PHE103     -0.2867
     89  CB         1.3320   -6.7830   29.5990 C.3   103  PHE103      0.0534
     90  CG         1.9720   -8.1270   29.7740 C.ar  103  PHE103     -0.0203
     91  CD1        2.7850   -8.6590   28.7810 C.ar  103  PHE103     -0.0042
     92  CD2        1.7140   -8.8860   30.9030 C.ar  103  PHE103     -0.0042
     93  CE1        3.3550   -9.9180   28.9280 C.ar  103  PHE103     -0.0003
     94  CE2        2.2770  -10.1440   31.0590 C.ar  103  PHE103     -0.0003
     95  CZ         3.0960  -10.6620   30.0710 C.ar  103  PHE103     -0.0000
@<TRIPOS>BOND
     1    43    42    2
     2    42    41    1
     3    41    40    1
     4    41    44    1
     5    44    45    1
     6    47    45   ar
     7    47    49   ar
     8    45    46   ar
     9    49    50   ar
    10    33    34    2
    11    33    32    1
    12    46    48   ar
    13    32    35    1
    14    32    31    1
    15    50    48   ar
    16    50    51    1
    17    35    36    1
    18    36    37    1
    19    52    53    1
    20    38    37   ar
    21    37    39   ar
    22    91    93   ar
    23    91    90   ar
    24    93    95   ar
    25    56    53    1
    26    56    57    1
    27    53    54    1
    28    55    54    2
    29    89    90    1
    30    89    86    1
    31    87    86    1
    32    87    88    2
    33    90    92   ar
    34    59    57    1
    35    95    94   ar
    36    86    85    1
    37    57    58    1
    38    21    22    2
    39    21    20    1
    40    92    94   ar
    41    20    19    1
    42    20    23    1
    43    25    27   ar
    44    25    24   ar
    45    23    24    1
    46    27    29   ar
    47    24    26   ar
    48    60    61    1
    49    61    62    1
    50    29    30    1
    51    29    28   ar
    52    26    28   ar
    53    69    68    1
    54    83    82    1
    55    62    64   am
    56    62    63    2
    57    64    65    1
    58    79    80    2
    59    79    78    1
    60    81    82    1
    61    81    78    1
    62    68    65    1
    63    82    84    1
    64    78    77    1
    65    65    66    1
    66     1     2    1
    67    17    16    2
    68    14    13    2
    69     5     2    1
    70     5     6    1
    71    18    16   am
    72    16    15    1
    73     2     3    1
    74    13    12    1
    75    66    67    2
    76     4     3    2
    77     6     8   ar
    78     6     7   ar
    79    15    12    1
    80     8    10   ar
    81    12    11    1
    82     7     9   ar
    83    10     9   ar
    84    70    71    1
    85    71    72    1
    86    71    74    1
    87    75    74    1
    88    72    73    2
    89    74    76    1
