@<TRIPOS>MOLECULE
tmp/3wigA02.pdb
 76 71 0 0 0
SMALL
GASTEIGER

@<TRIPOS>ATOM
      1  N         75.2030  -10.9140   14.5670 N.3    54  VAL54      -0.1245
      2  CA        75.1920  -11.6840   15.8040 C.3    54  VAL54       0.1561
      3  C         74.6750  -13.0960   15.5640 C.2    54  VAL54       0.2260
      4  O         75.0420  -14.0300   16.2710 O.2    54  VAL54      -0.2867
      5  CB        74.3100  -11.0170   16.8730 C.3    54  VAL54       0.0252
      6  CG1       74.1540  -11.9440   18.0820 C.3    54  VAL54       0.0019
      7  CG2       74.9350   -9.6890   17.2870 C.3    54  VAL54       0.0019
      8  N         72.9370  -15.3040   24.9440 N.3   121  HIS121     -0.1226
      9  CA        72.9580  -14.0480   24.2110 C.3   121  HIS121      0.1752
     10  C         72.1250  -12.9730   24.8920 C.2   121  HIS121      0.2596
     11  O         72.0400  -11.8550   24.4080 O.2   121  HIS121     -0.2718
     12  CB        72.4560  -14.2740   22.7870 C.3   121  HIS121      0.0759
     13  CG        73.2530  -15.2830   22.0220 C.ar  121  HIS121      0.0818
     14  ND1       74.4860  -14.9970   21.4730 N.ar  121  HIS121     -0.2268
     15  CD2       72.9950  -16.5770   21.7140 C.ar  121  HIS121      0.1154
     16  CE1       74.9500  -16.0710   20.8580 C.ar  121  HIS121      0.1986
     17  NE2       74.0650  -17.0430   20.9890 N.ar  121  HIS121     -0.2212
     18  N         71.5080  -13.3190   26.0140 N.am  122  LYS122     -0.1966
     19  CA        70.7030  -12.3690   26.7670 C.3   122  LYS122      0.1728
     20  C         69.6870  -11.6400   25.8910 C.2   122  LYS122      0.2616
     21  O         69.4290  -10.4580   26.1060 O.2   122  LYS122     -0.2715
     22  CB        71.6070  -11.3360   27.4540 C.3   122  LYS122      0.0311
     23  CG        72.5760  -11.9030   28.4890 C.3   122  LYS122      0.0038
     24  CD        71.9240  -12.0350   29.8660 C.3   122  LYS122      0.0206
     25  CE        72.9360  -11.7980   31.0010 C.3   122  LYS122      0.1093
     26  NZ        72.3360  -11.9400   32.3740 N.3   122  LYS122     -0.1314
     27  N         69.1160  -12.3230   24.9010 N.am  123  ILE123     -0.1977
     28  CA        68.0950  -11.6910   24.0670 C.3   123  ILE123      0.1596
     29  C         66.7540  -12.4060   24.1810 C.2   123  ILE123      0.2287
     30  O         66.6990  -13.6200   24.3720 O.2   123  ILE123     -0.2864
     31  CB        68.4940  -11.6630   22.5770 C.3   123  ILE123      0.0276
     32  CG1       67.7740  -12.7610   21.8120 C.3   123  ILE123      0.0022
     33  CG2       69.9660  -11.9230   22.4180 C.3   123  ILE123      0.0022
     34  CD1       68.3040  -12.9150   20.4150 C.3   123  ILE123      0.0001
     35  N         60.5980  -12.0860   21.2730 N.3   126  ARG126     -0.1245
     36  CA        59.7040  -10.9730   20.9580 C.3   126  ARG126      0.1563
     37  C         58.6460  -11.2910   19.9250 C.2   126  ARG126      0.2260
     38  O         57.7460  -10.4920   19.7110 O.2   126  ARG126     -0.2867
     39  CB        60.4880   -9.7530   20.4820 C.3   126  ARG126      0.0307
     40  CG        61.0400   -8.9200   21.5990 C.3   126  ARG126      0.0489
     41  CD        62.1270   -8.0240   21.0860 C.3   126  ARG126      0.2205
     42  NE        62.7820   -7.3460   22.1920 N.pl3 126  ARG126     -0.0865
     43  CZ        62.4120   -6.1560   22.6470 C.cat 126  ARG126      0.5346
     44  NH1       61.3950   -5.5160   22.0800 N.pl3 126  ARG126      0.1354
     45  NH2       63.0490   -5.6180   23.6770 N.pl3 126  ARG126      0.1354
     46  N         64.1020  -11.2010   17.8940 N.3   147  GLY147     -0.1210
     47  CA        64.4980   -9.8040   17.8440 C.3   147  GLY147      0.1956
     48  C         65.9700   -9.6240   18.1000 C.2   147  GLY147      0.2611
     49  O         66.3760   -9.2970   19.2110 O.2   147  GLY147     -0.2717
     50  N         66.7760   -9.8410   17.0700 N.am  148  VAL148     -0.1979
     51  CA        68.2140   -9.8120   17.2380 C.3   148  VAL148      0.1595
     52  C         68.7310   -8.3830   17.0280 C.2   148  VAL148      0.2287
     53  O         69.7040   -7.9710   17.6530 O.2   148  VAL148     -0.2864
     54  CB        68.8980  -10.7870   16.2480 C.3   148  VAL148      0.0276
     55  CG1       68.9090  -10.2000   14.8490 C.3   148  VAL148      0.0022
     56  CG2       70.2960  -11.0920   16.7090 C.3   148  VAL148      0.0022
     57  N         67.8860   -4.4220   17.3470 N.3   150  GLY150     -0.1225
     58  CA        67.0540   -3.3620   17.8880 C.3   150  GLY150      0.1811
     59  C         66.6540   -2.3140   16.8600 C.2   150  GLY150      0.2280
     60  O         65.6250   -1.6460   17.0070 O.2   150  GLY150     -0.2866
     61  N         63.7860   -4.0500   14.6600 N.3   153  ILE153     -0.1231
     62  CA        62.5560   -4.0220   15.4420 C.3   153  ILE153      0.1692
     63  C         61.9140   -2.6430   15.3500 C.2   153  ILE153      0.2592
     64  O         60.7400   -2.5160   15.0100 O.2   153  ILE153     -0.2718
     65  CB        62.8210   -4.3350   16.9330 C.3   153  ILE153      0.0266
     66  CG1       63.2990   -5.7800   17.0940 C.3   153  ILE153      0.0019
     67  CG2       61.5620   -4.1030   17.7350 C.3   153  ILE153      0.0020
     68  CD1       63.9250   -6.0690   18.4430 C.3   153  ILE153      0.0001
     69  N         62.6970   -1.6090   15.6440 N.am  154  ASP154     -0.1974
     70  CA        62.1810   -0.2470   15.6520 C.3   154  ASP154      0.1709
     71  C         61.6340    0.1820   14.2970 C.2   154  ASP154      0.2293
     72  O         60.6630    0.9350   14.2320 O.2   154  ASP154     -0.2864
     73  CB        63.2710    0.7280   16.0820 C.3   154  ASP154      0.1436
     74  CG        62.7710    2.1650   16.1530 C.2   154  ASP154      0.3671
     75  OD1       61.7600    2.3920   16.8510 O.co2 154  ASP154     -0.2456
     76  OD2       63.3830    3.0600   15.5140 O.co2 154  ASP154     -0.2456
@<TRIPOS>BOND
     1    72    71    2
     2    71    70    1
     3     1     2    1
     4    61    62    1
     5    55    54    1
     6    64    63    2
     7    63    62    1
     8    63    69   am
     9    62    65    1
    10    76    74   ar
    11     3     2    1
    12     3     4    2
    13    69    70    1
    14    70    73    1
    15     2     5    1
    16    73    74    1
    17    74    75   ar
    18    54    56    1
    19    54    51    1
    20    59    60    2
    21    59    58    1
    22     5     7    1
    23     5     6    1
    24    65    66    1
    25    65    67    1
    26    52    51    1
    27    52    53    2
    28    50    51    1
    29    50    48   am
    30    66    68    1
    31    57    58    1
    32    47    46    1
    33    47    48    1
    34    48    49    2
    35    38    37    2
    36    37    36    1
    37    34    32    1
    38    39    36    1
    39    39    40    1
    40    16    17   ar
    41    16    14   ar
    42    36    35    1
    43    17    15   ar
    44    41    40    1
    45    41    42    1
    46    14    13   ar
    47    15    13   ar
    48    32    31    1
    49    13    12    1
    50    44    43    1
    51    42    43    2
    52    33    31    1
    53    31    28    1
    54    43    45    1
    55    12     9    1
    56    28    29    1
    57    28    27    1
    58    29    30    2
    59     9    10    1
    60     9     8    1
    61    11    10    2
    62    10    18   am
    63    27    20   am
    64    20    21    2
    65    20    19    1
    66    18    19    1
    67    19    22    1
    68    22    23    1
    69    23    24    1
    70    24    25    1
    71    25    26    1
