@<TRIPOS>MOLECULE
tmp/3wigA01.pdb
 214 203 0 0 0
SMALL
GASTEIGER

@<TRIPOS>ATOM
      1  N         64.8990  -14.4150    3.1370 N.3    34  LYS34      -0.1245
      2  CA        63.8810  -13.4330    3.4680 C.3    34  LYS34       0.1561
      3  C         64.3050  -12.0670    2.9480 C.2    34  LYS34       0.2260
      4  O         65.4330  -11.6290    3.1770 O.2    34  LYS34      -0.2867
      5  CB        63.6840  -13.3590    4.9780 C.3    34  LYS34       0.0271
      6  CG        62.8860  -12.1550    5.4080 C.3    34  LYS34       0.0035
      7  CD        62.5300  -12.2320    6.8710 C.3    34  LYS34       0.0206
      8  CE        61.4940  -13.3200    7.1210 C.3    34  LYS34       0.1093
      9  NZ        60.7100  -13.0560    8.3620 N.3    34  LYS34      -0.1314
     10  N         63.3760   -8.1330    3.2920 N.3    36  ILE36      -0.1245
     11  CA        62.6190   -7.1250    4.0170 C.3    36  ILE36       0.1561
     12  C         62.7770   -5.7740    3.3320 C.2    36  ILE36       0.2260
     13  O         63.8960   -5.2910    3.1580 O.2    36  ILE36      -0.2867
     14  CB        63.1050   -6.9930    5.4650 C.3    36  ILE36       0.0252
     15  CG1       62.8640   -8.2960    6.2190 C.3    36  ILE36       0.0019
     16  CG2       62.3820   -5.8450    6.1500 C.3    36  ILE36       0.0019
     17  CD1       63.1990   -8.2050    7.6900 C.3    36  ILE36       0.0001
     18  N         72.6850   -7.9170   12.6710 N.3    52  LEU52      -0.1245
     19  CA        72.2470   -9.2610   12.3130 C.3    52  LEU52       0.1561
     20  C         73.4190  -10.2450   12.3780 C.2    52  LEU52       0.2260
     21  O         73.2380  -11.4360   12.6350 O.2    52  LEU52      -0.2867
     22  CB        71.6290   -9.2570   10.9070 C.3    52  LEU52       0.0270
     23  CG        70.2740   -8.5540   10.7590 C.3    52  LEU52       0.0019
     24  CD1       69.8420   -8.5560    9.3140 C.3    52  LEU52       0.0001
     25  CD2       69.2380   -9.2480   11.6120 C.3    52  LEU52       0.0001
     26  N         73.8240  -13.2470   14.5570 N.3    55  LEU55      -0.1245
     27  CA        73.2010  -14.5340   14.2870 C.3    55  LEU55       0.1561
     28  C         74.2360  -15.6090   13.9510 C.2    55  LEU55       0.2260
     29  O         73.9840  -16.7980   14.1390 O.2    55  LEU55      -0.2867
     30  CB        72.1760  -14.4040   13.1490 C.3    55  LEU55       0.0270
     31  CG        70.8580  -13.6990   13.4880 C.3    55  LEU55       0.0019
     32  CD1       69.9790  -13.6180   12.2560 C.3    55  LEU55       0.0001
     33  CD2       70.1460  -14.4510   14.6010 C.3    55  LEU55       0.0001
     34  N         74.8440  -17.7780   16.9010 N.3    58  CYS58      -0.1235
     35  CA        73.8330  -18.6900   17.3970 C.3    58  CYS58       0.1677
     36  C         74.1540  -20.0940   16.9390 C.2    58  CYS58       0.2270
     37  O         74.4590  -20.3310   15.7710 O.2    58  CYS58      -0.2867
     38  CB        72.4490  -18.2850   16.9070 C.3    58  CYS58       0.0956
     39  SG        71.7730  -16.8930   17.8290 S.3    58  CYS58      -0.0801
     40  N         67.2460  -23.5470   17.2730 N.3    63  ILE63      -0.1231
     41  CA        67.2460  -22.2600   16.5980 C.3    63  ILE63       0.1692
     42  C         67.6040  -22.4320   15.1280 C.2    63  ILE63       0.2592
     43  O         68.5820  -23.0920   14.8000 O.2    63  ILE63      -0.2718
     44  CB        68.2760  -21.3120   17.2300 C.3    63  ILE63       0.0266
     45  CG1       67.9940  -21.1480   18.7230 C.3    63  ILE63       0.0019
     46  CG2       68.2400  -19.9680   16.5290 C.3    63  ILE63       0.0020
     47  CD1       66.6700  -20.5390   19.0270 C.3    63  ILE63       0.0001
     48  N         66.8270  -21.8220   14.2420 N.am   64  VAL64      -0.1966
     49  CA        67.0990  -21.9140   12.8120 C.3    64  VAL64       0.1727
     50  C         68.4740  -21.3480   12.4750 C.2    64  VAL64       0.2617
     51  O         68.8940  -20.3400   13.0390 O.2    64  VAL64      -0.2715
     52  CB        66.0350  -21.1550   11.9890 C.3    64  VAL64       0.0290
     53  CG1       66.4540  -21.1030   10.5260 C.3    64  VAL64       0.0023
     54  CG2       64.6810  -21.8450   12.1210 C.3    64  VAL64       0.0023
     55  N         69.1710  -21.9960   11.5470 N.am   65  GLY65      -0.1940
     56  CA        70.5020  -21.5530   11.1760 C.3    65  GLY65       0.2014
     57  C         70.5190  -20.2860   10.3450 C.2    65  GLY65       0.2638
     58  O         69.5650  -19.9930    9.6280 O.2    65  GLY65      -0.2714
     59  N         71.6180  -19.5410   10.4410 N.am   66  PHE66      -0.1973
     60  CA        71.7780  -18.2580    9.7620 C.3    66  PHE66       0.1639
     61  C         73.0090  -18.3070    8.8610 C.2    66  PHE66       0.2290
     62  O         74.0760  -18.7250    9.2940 O.2    66  PHE66      -0.2864
     63  CB        71.9440  -17.1510   10.8120 C.3    66  PHE66       0.0560
     64  CG        72.2500  -15.7880   10.2360 C.ar   66  PHE66      -0.0200
     65  CD1       73.4910  -15.1940   10.4410 C.ar   66  PHE66      -0.0042
     66  CD2       71.2800  -15.0780    9.5320 C.ar   66  PHE66      -0.0042
     67  CE1       73.7570  -13.9160    9.9610 C.ar   66  PHE66      -0.0003
     68  CE2       71.5420  -13.7980    9.0490 C.ar   66  PHE66      -0.0003
     69  CZ        72.7780  -13.2170    9.2650 C.ar   66  PHE66      -0.0000
     70  N         67.8620  -11.6020    4.4820 N.3    78  ILE78      -0.1245
     71  CA        68.3070  -12.4620    5.5620 C.3    78  ILE78       0.1561
     72  C         68.2800  -13.9120    5.0980 C.2    78  ILE78       0.2260
     73  O         67.2250  -14.4600    4.7960 O.2    78  ILE78      -0.2867
     74  CB        67.4160  -12.2950    6.7990 C.3    78  ILE78       0.0252
     75  CG1       67.5130  -10.8610    7.3120 C.3    78  ILE78       0.0019
     76  CG2       67.8410  -13.2550    7.8770 C.3    78  ILE78       0.0019
     77  CD1       66.5530  -10.5490    8.4360 C.3    78  ILE78       0.0001
     78  N         68.9220  -17.9530    5.4550 N.3    80  MET80      -0.1245
     79  CA        68.7190  -18.8740    6.5640 C.3    80  MET80       0.1570
     80  C         68.7710  -20.3240    6.1430 C.2    80  MET80       0.2261
     81  O         68.7070  -20.6620    4.9610 O.2    80  MET80      -0.2867
     82  CB        67.3620  -18.6410    7.2250 C.3    80  MET80       0.0387
     83  CG        67.2090  -17.3390    7.9590 C.3    80  MET80       0.0595
     84  SD        65.4590  -17.0680    8.2520 S.3    80  MET80      -0.1393
     85  CE        64.8420  -16.7500    6.5740 C.3    80  MET80       0.0692
     86  N         62.8950  -13.2370   22.3950 N.3   125  HIS125     -0.1226
     87  CA        62.4710  -13.5800   21.0530 C.3   125  HIS125      0.1752
     88  C         61.6190  -12.4570   20.5010 C.2   125  HIS125      0.2596
     89  O         61.8870  -11.9470   19.4120 O.2   125  HIS125     -0.2718
     90  CB        61.6650  -14.8800   21.0630 C.3   125  HIS125      0.0759
     91  CG        61.4030  -15.4250   19.6960 C.ar  125  HIS125      0.0818
     92  ND1       60.4580  -14.8860   18.8520 N.ar  125  HIS125     -0.2268
     93  CD2       62.0020  -16.4230   19.0050 C.ar  125  HIS125      0.1154
     94  CE1       60.4890  -15.5250   17.6970 C.ar  125  HIS125      0.1986
     95  NE2       61.4180  -16.4610   17.7640 N.ar  125  HIS125     -0.2212
     96  N         60.5980  -12.0860   21.2730 N.am  126  ARG126     -0.1966
     97  CA        59.7040  -10.9730   20.9580 C.3   126  ARG126      0.1729
     98  C         58.6460  -11.2910   19.9250 C.2   126  ARG126      0.2616
     99  O         57.7460  -10.4920   19.7110 O.2   126  ARG126     -0.2715
    100  CB        60.4880   -9.7530   20.4820 C.3   126  ARG126      0.0348
    101  CG        61.0400   -8.9200   21.5990 C.3   126  ARG126      0.0492
    102  CD        62.1270   -8.0240   21.0860 C.3   126  ARG126      0.2205
    103  NE        62.7820   -7.3460   22.1920 N.pl3 126  ARG126     -0.0865
    104  CZ        62.4120   -6.1560   22.6470 C.cat 126  ARG126      0.5346
    105  NH1       61.3950   -5.5160   22.0800 N.pl3 126  ARG126      0.1354
    106  NH2       63.0490   -5.6180   23.6770 N.pl3 126  ARG126      0.1354
    107  N         58.7500  -12.4450   19.2760 N.am  127  ASP127     -0.1971
    108  CA        57.7690  -12.8130   18.2640 C.3   127  ASP127      0.1709
    109  C         57.5150  -14.3190   18.1550 C.2   127  ASP127      0.2293
    110  O         57.5850  -14.8910   17.0650 O.2   127  ASP127     -0.2864
    111  CB        58.2010  -12.2660   16.9120 C.3   127  ASP127      0.1436
    112  CG        57.0380  -12.0650   15.9770 C.2   127  ASP127      0.3671
    113  OD1       55.8820  -12.1230   16.4550 O.co2 127  ASP127     -0.2456
    114  OD2       57.2770  -11.8480   14.7670 O.co2 127  ASP127     -0.2456
    115  N         62.4720  -19.0820   14.9700 N.3   144  CYS144     -0.1221
    116  CA        63.0170  -18.2030   13.9550 C.3   144  CYS144      0.1808
    117  C         62.5490  -16.7730   14.1790 C.2   144  CYS144      0.2601
    118  O         61.6500  -16.5290   14.9820 O.2   144  CYS144     -0.2717
    119  CB        62.5690  -18.6640   12.5760 C.3   144  CYS144      0.0970
    120  SG        63.7540  -18.2180   11.3160 S.3   144  CYS144     -0.0800
    121  N         63.1670  -15.8340   13.4670 N.am  145  ASP145     -0.1959
    122  CA        62.7130  -14.4480   13.4450 C.3   145  ASP145      0.1840
    123  C         62.6490  -13.8180   14.8240 C.2   145  ASP145      0.2622
    124  O         61.6800  -13.1380   15.1350 O.2   145  ASP145     -0.2715
    125  CB        61.3210  -14.3490   12.8190 C.3   145  ASP145      0.1450
    126  CG        61.3260  -14.5880   11.3190 C.2   145  ASP145      0.3671
    127  OD1       62.4060  -14.8530   10.7500 O.co2 145  ASP145     -0.2456
    128  OD2       60.2400  -14.5080   10.7050 O.co2 145  ASP145     -0.2456
    129  N         63.6520  -14.0370   15.6640 N.am  146  PHE146     -0.1960
    130  CA        63.6350  -13.3720   16.9570 C.3   146  PHE146      0.1771
    131  C         64.2840  -12.0070   16.8500 C.2   146  PHE146      0.2620
    132  O         64.9190  -11.6910   15.8410 O.2   146  PHE146     -0.2715
    133  CB        64.3370  -14.2080   18.0290 C.3   146  PHE146      0.0574
    134  CG        65.5100  -14.9750   17.5250 C.ar  146  PHE146     -0.0200
    135  CD1       65.3460  -16.2450   17.0080 C.ar  146  PHE146     -0.0042
    136  CD2       66.7820  -14.4370   17.5820 C.ar  146  PHE146     -0.0042
    137  CE1       66.4330  -16.9670   16.5570 C.ar  146  PHE146     -0.0003
    138  CE2       67.8740  -15.1520   17.1320 C.ar  146  PHE146     -0.0003
    139  CZ        67.7000  -16.4170   16.6190 C.ar  146  PHE146     -0.0000
    140  N         64.1020  -11.2010   17.8940 N.am  147  GLY147     -0.1940
    141  CA        64.4980   -9.8040   17.8440 C.3   147  GLY147      0.2014
    142  C         65.9700   -9.6240   18.1000 C.2   147  GLY147      0.2639
    143  O         66.3760   -9.2970   19.2110 O.2   147  GLY147     -0.2714
    144  N         66.7760   -9.8410   17.0700 N.am  148  VAL148     -0.1963
    145  CA        68.2140   -9.8120   17.2380 C.3   148  VAL148      0.1727
    146  C         68.7310   -8.3830   17.0280 C.2   148  VAL148      0.2616
    147  O         69.7040   -7.9710   17.6530 O.2   148  VAL148     -0.2715
    148  CB        68.8980  -10.7870   16.2480 C.3   148  VAL148      0.0290
    149  CG1       68.9090  -10.2000   14.8490 C.3   148  VAL148      0.0023
    150  CG2       70.2960  -11.0920   16.7090 C.3   148  VAL148      0.0023
    151  N         68.0560   -7.6260   16.1660 N.am  149  SER149     -0.1950
    152  CA        68.4530   -6.2540   15.8390 C.3   149  SER149      0.1924
    153  C         67.4660   -5.1840   16.3380 C.2   149  SER149      0.2314
    154  O         66.3590   -5.0420   15.8070 O.2   149  SER149     -0.2863
    155  CB        68.6240   -6.1180   14.3230 C.3   149  SER149      0.2116
    156  OG        68.4330   -4.7820   13.8950 O.3   149  SER149     -0.2180
    157  N         66.1310   -3.0120   13.5680 N.3   152  LEU152     -0.1231
    158  CA        65.1560   -3.6500   12.6950 C.3   152  LEU152      0.1693
    159  C         63.7970   -3.6680   13.3860 C.2   152  LEU152      0.2591
    160  O         62.7780   -3.3310   12.7810 O.2   152  LEU152     -0.2718
    161  CB        65.5980   -5.0760   12.3540 C.3   152  LEU152      0.0284
    162  CG        64.8100   -5.7810   11.2390 C.3   152  LEU152      0.0019
    163  CD1       64.6730   -4.8510   10.0330 C.3   152  LEU152      0.0001
    164  CD2       65.5240   -7.0650   10.8330 C.3   152  LEU152      0.0001
    165  N         63.7860   -4.0500   14.6600 N.am  153  ILE153     -0.1980
    166  CA        62.5560   -4.0220   15.4420 C.3   153  ILE153      0.1595
    167  C         61.9140   -2.6430   15.3500 C.2   153  ILE153      0.2287
    168  O         60.7400   -2.5160   15.0100 O.2   153  ILE153     -0.2864
    169  CB        62.8210   -4.3350   16.9330 C.3   153  ILE153      0.0276
    170  CG1       63.2990   -5.7800   17.0940 C.3   153  ILE153      0.0022
    171  CG2       61.5620   -4.1030   17.7350 C.3   153  ILE153      0.0022
    172  CD1       63.9250   -6.0690   18.4430 C.3   153  ILE153      0.0001
    173  N         60.2900   -1.7190   11.9580 N.3   156  MET156     -0.1245
    174  CA        59.1840   -2.5110   11.4300 C.3   156  MET156      0.1570
    175  C         57.8590   -2.1770   12.1010 C.2   156  MET156      0.2261
    176  O         56.7900   -2.3870   11.5210 O.2   156  MET156     -0.2867
    177  CB        59.4820   -4.0120   11.5720 C.3   156  MET156      0.0387
    178  CG        60.7100   -4.4750   10.7940 C.3   156  MET156      0.0595
    179  SD        60.8640   -6.2830   10.6850 S.3   156  MET156     -0.1393
    180  CE        59.4160   -6.6510    9.7750 C.3   156  MET156      0.0692
    181  N         56.0230   -3.5070   14.3780 N.3   158  ASN158     -0.1225
    182  CA        55.1700   -4.6620   14.1350 C.3   158  ASN158      0.1785
    183  C         53.9090   -4.6820   14.9890 C.2   158  ASN158      0.2597
    184  O         52.9160   -5.2890   14.6070 O.2   158  ASN158     -0.2718
    185  CB        55.9620   -5.9590   14.3430 C.3   158  ASN158      0.1169
    186  CG        56.8360   -6.3120   13.1450 C.2   158  ASN158      0.2627
    187  OD1       57.9210   -6.8830   13.2960 O.2   158  ASN158     -0.2716
    188  ND2       56.3640   -5.9750   11.9450 N.am  158  ASN158     -0.0877
    189  N         53.9410   -4.0080   16.1320 N.am  159  SER159     -0.1952
    190  CA        52.8380   -4.0780   17.0830 C.3   159  SER159      0.1924
    191  C         51.4740   -3.7080   16.5080 C.2   159  SER159      0.2314
    192  O         50.4410   -4.1060   17.0480 O.2   159  SER159     -0.2863
    193  CB        53.1330   -3.1820   18.2780 C.3   159  SER159      0.2116
    194  OG        54.2710   -3.6480   18.9730 O.3   159  SER159     -0.2180
    195  N         50.7730  -10.2910   21.6130 N.3   167  MET167     -0.1245
    196  CA        51.3700   -9.3980   22.5960 C.3   167  MET167      0.1570
    197  C         50.7590   -9.6550   23.9610 C.2   167  MET167      0.2261
    198  O         49.6230  -10.1050   24.0610 O.2   167  MET167     -0.2867
    199  CB        51.1540   -7.9400   22.1920 C.3   167  MET167      0.0387
    200  CG        52.1310   -7.4480   21.1370 C.3   167  MET167      0.0595
    201  SD        52.2740   -5.6480   21.1210 S.3   167  MET167     -0.1393
    202  CE        51.2450   -5.3000   19.7380 C.3   167  MET167      0.0692
    203  N         59.9250   -5.1550   28.0160 N.3   177  TYR177     -0.1241
    204  CA        59.7860   -6.5100   27.5140 C.3   177  TYR177      0.1605
    205  C         60.6380   -7.4300   28.3600 C.2   177  TYR177      0.2264
    206  O         61.7310   -7.0560   28.7660 O.2   177  TYR177     -0.2867
    207  CB        60.2430   -6.5980   26.0620 C.3   177  TYR177      0.0534
    208  CG        59.6530   -7.7810   25.3460 C.ar  177  TYR177     -0.0201
    209  CD1       58.4040   -7.6900   24.7450 C.ar  177  TYR177     -0.0009
    210  CD2       60.3150   -9.0080   25.3150 C.ar  177  TYR177     -0.0009
    211  CE1       57.8180   -8.7880   24.1350 C.ar  177  TYR177      0.0417
    212  CE2       59.7380  -10.1180   24.7080 C.ar  177  TYR177      0.0417
    213  CZ        58.4830   -9.9990   24.1190 C.ar  177  TYR177      0.1957
    214  OH        57.8840  -11.0850   23.5210 O.3   177  TYR177     -0.2866
@<TRIPOS>BOND
     1     3     4    2
     2     3     2    1
     3     1     2    1
     4    13    12    2
     5    10    11    1
     6    12    11    1
     7     2     5    1
     8    11    14    1
     9    70    71    1
    10    73    72    2
    11    81    80    2
    12     5     6    1
    13    72    71    1
    14     6     7    1
    15    78    79    1
    16    14    16    1
    17    14    15    1
    18    71    74    1
    19    80    79    1
    20    15    17    1
    21    79    82    1
    22    85    84    1
    23    74    75    1
    24    74    76    1
    25     7     8    1
    26     8     9    1
    27    82    83    1
    28    75    77    1
    29    83    84    1
    30    61    62    2
    31    61    60    1
    32    68    69   ar
    33    68    66   ar
    34    69    67   ar
    35    24    23    1
    36    66    64   ar
    37    58    57    2
    38    60    59    1
    39    60    63    1
    40   180   179    1
    41    67    65   ar
    42   163   162    1
    43    64    65   ar
    44    64    63    1
    45    57    59   am
    46    57    56    1
    47    53    52    1
    48   179   178    1
    49   128   126   ar
    50   127   126   ar
    51    23    22    1
    52    23    25    1
    53   178   177    1
    54   164   162    1
    55    22    19    1
    56    56    55    1
    57   162   161    1
    58   120   119    1
    59   126   125    1
    60   174   177    1
    61   174   173    1
    62   174   175    1
    63   176   175    2
    64    55    50   am
    65   188   186   am
    66    52    54    1
    67    52    49    1
    68    32    31    1
    69    19    20    1
    70    19    18    1
    71   161   158    1
    72    20    21    2
    73    50    49    1
    74    50    51    2
    75   119   116    1
    76   158   159    1
    77   158   157    1
    78   160   159    2
    79    49    48    1
    80   125   122    1
    81   186   187    2
    82   186   185    1
    83    30    31    1
    84    30    27    1
    85   159   165   am
    86   122   121    1
    87   122   123    1
    88   121   117   am
    89    31    33    1
    90   156   155    1
    91    28    29    2
    92    28    27    1
    93   116   117    1
    94   116   115    1
    95   182   185    1
    96   182   181    1
    97   182   183    1
    98   117   118    2
    99    48    42   am
   100    27    26    1
   101   155   152    1
   102   184   183    2
   103   165   166    1
   104   114   112   ar
   105    43    42    2
   106   123   124    2
   107   123   129   am
   108   149   148    1
   109   183   189   am
   110   168   167    2
   111    42    41    1
   112   167   166    1
   113   166   169    1
   114   129   130    1
   115    37    36    2
   116   154   153    2
   117   152   151    1
   118   152   153    1
   119   132   131    2
   120   112   113   ar
   121   112   111    1
   122   189   190    1
   123   151   146   am
   124   148   150    1
   125   148   145    1
   126   191   192    2
   127   191   190    1
   128    46    44    1
   129   137   139   ar
   130   137   135   ar
   131    41    44    1
   132    41    40    1
   133   139   138   ar
   134   131   130    1
   135   131   140   am
   136    34    35    1
   137    38    35    1
   138    38    39    1
   139   111   108    1
   140   169   170    1
   141   169   171    1
   142    36    35    1
   143   130   133    1
   144   135   134   ar
   145   146   145    1
   146   146   147    2
   147   110   109    2
   148   144   145    1
   149   144   142   am
   150   190   193    1
   151   170   172    1
   152   138   136   ar
   153    44    45    1
   154   134   136   ar
   155   134   133    1
   156    94    95   ar
   157    94    92   ar
   158    95    93   ar
   159   141   140    1
   160   141   142    1
   161   142   143    2
   162   109   108    1
   163   108   107    1
   164   193   194    1
   165    45    47    1
   166    92    91   ar
   167    93    91   ar
   168   107    98   am
   169    89    88    2
   170    91    90    1
   171    99    98    2
   172   202   201    1
   173    98    97    1
   174   100    97    1
   175   100   101    1
   176    88    87    1
   177    88    96   am
   178    97    96    1
   179    87    90    1
   180    87    86    1
   181   102   101    1
   182   102   103    1
   183   201   200    1
   184   200   199    1
   185   195   196    1
   186   105   104    1
   187   103   104    2
   188   199   196    1
   189   196   197    1
   190   104   106    1
   191   214   213    1
   192   197   198    2
   193   213   211   ar
   194   213   212   ar
   195   211   209   ar
   196   212   210   ar
   197   209   208   ar
   198   210   208   ar
   199   208   207    1
   200   207   204    1
   201   204   203    1
   202   204   205    1
   203   205   206    2
