@<TRIPOS>MOLECULE
tmp/3wijA00.pdb
 173 175 0 0 0
SMALL
GASTEIGER

@<TRIPOS>ATOM
      1  N         -8.7320   12.1120  -25.6300 N.3    75  GLY75      -0.1225
      2  CA        -7.7700   13.1520  -25.3230 C.3    75  GLY75       0.1811
      3  C         -6.7870   13.2160  -26.4590 C.2    75  GLY75       0.2280
      4  O         -6.5680   12.2330  -27.1650 O.2    75  GLY75      -0.2866
      5  N        -10.9900   17.4570  -25.2440 N.3   117  GLN117     -0.1231
      6  CA       -10.0520   18.0430  -24.2930 C.3   117  GLN117      0.1698
      7  C         -9.2630   19.1320  -24.9770 C.2   117  GLN117      0.2592
      8  O         -8.2130   18.8450  -25.5500 O.2   117  GLN117     -0.2718
      9  CB        -9.1410   16.9530  -23.7280 C.3   117  GLN117      0.0381
     10  CG        -9.9520   15.8650  -23.0110 C.3   117  GLN117      0.0905
     11  CD        -9.1200   14.7900  -22.3550 C.2   117  GLN117      0.2608
     12  OE1       -8.0080   15.0410  -21.9060 O.2   117  GLN117     -0.2717
     13  NE2       -9.6650   13.5860  -22.2740 N.am  117  GLN117     -0.0878
     14  N         -9.7020   20.3920  -24.9350 N.am  118  TYR118     -0.1976
     15  CA       -10.8380   20.9030  -24.1410 C.3   118  TYR118      0.1639
     16  C        -11.5310   22.0150  -24.9320 C.2   118  TYR118      0.2290
     17  O        -10.9000   22.6270  -25.8000 O.2   118  TYR118     -0.2864
     18  CB       -10.3490   21.5170  -22.8290 C.3   118  TYR118      0.0560
     19  CG        -9.6620   20.5130  -21.9460 C.ar  118  TYR118     -0.0198
     20  CD1      -10.3870   19.6820  -21.0850 C.ar  118  TYR118     -0.0009
     21  CD2       -8.2780   20.3770  -21.9790 C.ar  118  TYR118     -0.0009
     22  CE1       -9.7330   18.7510  -20.2780 C.ar  118  TYR118      0.0417
     23  CE2       -7.6260   19.4460  -21.1950 C.ar  118  TYR118      0.0417
     24  CZ        -8.3530   18.6490  -20.3600 C.ar  118  TYR118      0.1957
     25  OH        -7.6670   17.7350  -19.5590 O.3   118  TYR118     -0.2866
     26  N        -12.9630   18.3660  -17.6610 N.3   158  TYR158     -0.1227
     27  CA       -11.8000   18.6550  -16.8370 C.3   158  TYR158      0.1736
     28  C        -12.1700   18.5130  -15.3540 C.2   158  TYR158      0.2595
     29  O        -13.3470   18.5900  -14.9770 O.2   158  TYR158     -0.2718
     30  CB       -11.3850   20.0850  -17.1450 C.3   158  TYR158      0.0548
     31  CG       -10.0600   20.5470  -16.5730 C.ar  158  TYR158     -0.0200
     32  CD1      -10.0040   21.6670  -15.7400 C.ar  158  TYR158     -0.0009
     33  CD2       -8.8600   19.8920  -16.8810 C.ar  158  TYR158     -0.0009
     34  CE1       -8.7960   22.1180  -15.2290 C.ar  158  TYR158      0.0417
     35  CE2       -7.6450   20.3390  -16.3630 C.ar  158  TYR158      0.0417
     36  CZ        -7.6310   21.4630  -15.5550 C.ar  158  TYR158      0.1957
     37  OH        -6.4480   21.9520  -15.0170 O.3   158  TYR158     -0.2866
     38  N        -11.1540   18.3350  -14.4940 N.am  159  PHE159     -0.1976
     39  CA       -11.4330   18.1170  -13.0750 C.3   159  PHE159      0.1639
     40  C        -12.1430   19.2860  -12.4220 C.2   159  PHE159      0.2290
     41  O        -12.8010   19.1000  -11.3900 O.2   159  PHE159     -0.2864
     42  CB       -10.1570   17.7800  -12.2890 C.3   159  PHE159      0.0560
     43  CG        -9.4310   18.9690  -11.7450 C.ar  159  PHE159     -0.0200
     44  CD1       -8.6270   19.7660  -12.5590 C.ar  159  PHE159     -0.0042
     45  CD2       -9.5160   19.2640  -10.3910 C.ar  159  PHE159     -0.0042
     46  CE1       -7.9490   20.8760  -12.0440 C.ar  159  PHE159     -0.0003
     47  CE2       -8.8480   20.3530   -9.8650 C.ar  159  PHE159     -0.0003
     48  CZ        -8.0570   21.1560  -10.6680 C.ar  159  PHE159     -0.0000
     49  N         -8.9230   27.7630  -17.1200 N.3   164  PHE164     -0.1241
     50  CA        -8.3750   26.8360  -16.1220 C.3   164  PHE164      0.1605
     51  C         -8.2900   27.5880  -14.7980 C.2   164  PHE164      0.2264
     52  O         -8.3220   28.8320  -14.7960 O.2   164  PHE164     -0.2867
     53  CB        -7.0130   26.3450  -16.6150 C.3   164  PHE164      0.0534
     54  CG        -7.1190   25.5240  -17.8670 C.ar  164  PHE164     -0.0203
     55  CD1       -7.0840   26.1180  -19.1370 C.ar  164  PHE164     -0.0042
     56  CD2       -7.3460   24.1610  -17.7830 C.ar  164  PHE164     -0.0042
     57  CE1       -7.2450   25.3340  -20.3050 C.ar  164  PHE164     -0.0003
     58  CE2       -7.5310   23.3770  -18.9360 C.ar  164  PHE164     -0.0003
     59  CZ        -7.4770   23.9660  -20.1940 C.ar  164  PHE164     -0.0000
     60  N         -6.0740   28.5200  -12.6860 N.3   166  TRP166     -0.1241
     61  CA        -5.0120   29.5320  -12.5220 C.3   166  TRP166      0.1605
     62  C         -5.1340   30.7080  -13.5060 C.2   166  TRP166      0.2264
     63  O         -4.4830   31.7420  -13.3280 O.2   166  TRP166     -0.2867
     64  CB        -3.6360   28.8730  -12.6410 C.3   166  TRP166      0.0550
     65  CG        -3.3480   28.2820  -13.9950 C.ar  166  TRP166      0.0003
     66  CD1       -2.7720   28.9180  -15.0660 C.ar  166  TRP166      0.0946
     67  CD2       -3.6380   26.9500  -14.4350 C.ar  166  TRP166      0.0152
     68  NE1       -2.6820   28.0610  -16.1350 N.ar  166  TRP166     -0.2442
     69  CE2       -3.2000   26.8450  -15.7750 C.ar  166  TRP166      0.0810
     70  CE3       -4.2110   25.8260  -13.8240 C.ar  166  TRP166      0.0012
     71  CZ2       -3.3320   25.6680  -16.5150 C.ar  166  TRP166      0.0191
     72  CZ3       -4.3400   24.6570  -14.5620 C.ar  166  TRP166      0.0001
     73  CH2       -3.8980   24.5890  -15.8940 C.ar  166  TRP166      0.0015
     74  N        -12.8480   14.2010  -14.9150 N.3   187  MET187     -0.1245
     75  CA       -11.5100   13.5850  -15.0420 C.3   187  MET187      0.1570
     76  C        -10.5910   14.0180  -13.8990 C.2   187  MET187      0.2261
     77  O         -9.6790   14.8280  -14.0720 O.2   187  MET187     -0.2867
     78  CB       -10.9280   13.9000  -16.4160 C.3   187  MET187      0.0387
     79  CG       -11.7820   13.3180  -17.5510 C.3   187  MET187      0.0595
     80  SD       -11.0740   13.5620  -19.1890 S.3   187  MET187     -0.1393
     81  CE       -11.5000   15.2850  -19.4260 C.3   187  MET187      0.0692
     82  N         -7.9320   13.3090  -12.3050 N.3   189  TYR189     -0.1227
     83  CA        -6.6260   12.6420  -12.3060 C.3   189  TYR189      0.1736
     84  C         -5.6710   13.4550  -13.1780 C.2   189  TYR189      0.2595
     85  O         -6.0550   14.5010  -13.7420 O.2   189  TYR189     -0.2718
     86  CB        -6.7300   11.1540  -12.7250 C.3   189  TYR189      0.0548
     87  CG        -7.6700   10.8530  -13.8680 C.ar  189  TYR189     -0.0200
     88  CD1       -7.3220   11.1090  -15.1880 C.ar  189  TYR189     -0.0009
     89  CD2       -8.9390   10.3370  -13.6190 C.ar  189  TYR189     -0.0009
     90  CE1       -8.2170   10.8340  -16.2550 C.ar  189  TYR189      0.0417
     91  CE2       -9.8340   10.0580  -14.6740 C.ar  189  TYR189      0.0417
     92  CZ        -9.4520   10.2930  -15.9850 C.ar  189  TYR189      0.1957
     93  OH       -10.3600    9.9900  -16.9740 O.3   189  TYR189     -0.2866
     94  N         -4.4290   12.9910  -13.2660 N.am  190  ASP190     -0.1960
     95  CA        -3.3510   13.6850  -13.9520 C.3   190  ASP190      0.1840
     96  C         -3.0870   15.0670  -13.3480 C.2   190  ASP190      0.2622
     97  O         -2.7800   16.0220  -14.0550 O.2   190  ASP190     -0.2715
     98  CB        -3.5680   13.7240  -15.4750 C.3   190  ASP190      0.1450
     99  CG        -3.4410   12.3510  -16.1240 C.2   190  ASP190      0.3671
    100  OD1       -2.8050   11.4640  -15.5220 O.co2 190  ASP190     -0.2456
    101  OD2       -3.9760   12.1700  -17.2530 O.co2 190  ASP190     -0.2456
    102  N         -3.1880   15.1520  -12.0330 N.am  191  PHE191     -0.1960
    103  CA        -2.8360   16.3740  -11.3270 C.3   191  PHE191      0.1771
    104  C         -1.3360   16.5980  -11.2200 C.2   191  PHE191      0.2619
    105  O         -0.9070   17.7340  -11.1080 O.2   191  PHE191     -0.2715
    106  CB        -3.4160   16.3710   -9.9100 C.3   191  PHE191      0.0574
    107  CG        -4.8940   16.1400   -9.8340 C.ar  191  PHE191     -0.0200
    108  CD1       -5.7540   16.6440  -10.8010 C.ar  191  PHE191     -0.0042
    109  CD2       -5.4370   15.4740   -8.7560 C.ar  191  PHE191     -0.0042
    110  CE1       -7.1410   16.4490  -10.6980 C.ar  191  PHE191     -0.0003
    111  CE2       -6.8150   15.2800   -8.6520 C.ar  191  PHE191     -0.0003
    112  CZ        -7.6680   15.7770   -9.6250 C.ar  191  PHE191     -0.0000
    113  N         -0.5720   15.5020  -11.2330 N.am  192  HIS192     -0.1973
    114  CA         0.8840   15.4930  -11.0530 C.3   192  HIS192      0.1656
    115  C          1.4650   14.3820  -11.8650 C.2   192  HIS192      0.2291
    116  O          0.7910   13.3900  -12.1440 O.2   192  HIS192     -0.2864
    117  CB         1.1940   15.2990   -9.5740 C.3   192  HIS192      0.0771
    118  CG         0.7620   16.4730   -8.7640 C.ar  192  HIS192      0.0820
    119  ND1       -0.2140   16.4280   -7.7910 N.ar  192  HIS192     -0.2267
    120  CD2        1.1260   17.7680   -8.8760 C.ar  192  HIS192      0.1154
    121  CE1       -0.3970   17.6510   -7.3100 C.ar  192  HIS192      0.1986
    122  NE2        0.3860   18.4820   -7.9700 N.ar  192  HIS192     -0.2212
    123  N          5.2700   13.3780  -14.5480 N.3   194  SER194     -0.1202
    124  CA         6.6610   13.5570  -14.9560 C.3   194  SER194      0.2020
    125  C          7.0020   14.9110  -15.5520 C.2   194  SER194      0.2619
    126  O          8.1820   15.1900  -15.7750 O.2   194  SER194     -0.2717
    127  CB         7.0850   12.4450  -15.9170 C.3   194  SER194      0.2103
    128  OG         6.2340   12.3670  -17.0420 O.3   194  SER194     -0.2182
    129  N          5.9960   15.7380  -15.8200 N.am  195  TRP195     -0.1961
    130  CA         6.2450   17.1220  -16.2200 C.3   195  TRP195      0.1771
    131  C          6.7990   17.9470  -15.0600 C.2   195  TRP195      0.2619
    132  O          7.3070   19.0600  -15.2690 O.2   195  TRP195     -0.2715
    133  CB         4.9790   17.7680  -16.7860 C.3   195  TRP195      0.0590
    134  CG         3.8050   17.8150  -15.8400 C.ar  195  TRP195      0.0006
    135  CD1        3.4630   18.8420  -14.9960 C.ar  195  TRP195      0.0946
    136  CD2        2.7960   16.8090  -15.6820 C.ar  195  TRP195      0.0152
    137  NE1        2.3020   18.5230  -14.3150 N.ar  195  TRP195     -0.2442
    138  CE2        1.8700   17.2910  -14.7240 C.ar  195  TRP195      0.0810
    139  CE3        2.5770   15.5560  -16.2640 C.ar  195  TRP195      0.0012
    140  CZ2        0.7450   16.5510  -14.3290 C.ar  195  TRP195      0.0191
    141  CZ3        1.4510   14.8200  -15.8730 C.ar  195  TRP195      0.0001
    142  CH2        0.5580   15.3260  -14.9070 C.ar  195  TRP195      0.0015
    143  N          6.6910   17.4040  -13.8470 N.am  196  GLU196     -0.1977
    144  CA         7.1890   18.0200  -12.6180 C.3   196  GLU196      0.1602
    145  C          8.4440   17.3340  -12.0810 C.2   196  GLU196      0.2287
    146  O          8.5930   16.1160  -12.2170 O.2   196  GLU196     -0.2864
    147  CB         6.1340   17.9580  -11.5060 C.3   196  GLU196      0.0415
    148  CG         4.8260   18.6660  -11.8230 C.3   196  GLU196      0.1163
    149  CD         3.6730   18.1940  -10.9430 C.2   196  GLU196      0.3649
    150  OE1        3.6100   16.9900  -10.6030 O.co2 196  GLU196     -0.2457
    151  OE2        2.8050   19.0210  -10.6070 O.co2 196  GLU196     -0.2457
    152  N         -5.0190   21.4280   -6.8700 N.3   208  PHE208     -0.1241
    153  CA        -5.1880   20.3300   -7.8300 C.3   208  PHE208      0.1605
    154  C         -5.5750   19.0440   -7.1220 C.2   208  PHE208      0.2264
    155  O         -4.7510   18.1530   -6.9160 O.2   208  PHE208     -0.2867
    156  CB        -3.9240   20.1430   -8.6590 C.3   208  PHE208      0.0534
    157  CG        -3.6340   21.3090   -9.5340 C.ar  208  PHE208     -0.0203
    158  CD1       -2.6280   22.2090   -9.2100 C.ar  208  PHE208     -0.0042
    159  CD2       -4.4110   21.5430  -10.6680 C.ar  208  PHE208     -0.0042
    160  CE1       -2.3810   23.3290  -10.0280 C.ar  208  PHE208     -0.0003
    161  CE2       -4.1710   22.6470  -11.4770 C.ar  208  PHE208     -0.0003
    162  CZ        -3.1640   23.5390  -11.1640 C.ar  208  PHE208     -0.0000
    163  N          0.9910    7.5310  -12.2980 N.3   236  ARG236     -0.1245
    164  CA         2.0330    8.3290  -12.9300 C.3   236  ARG236      0.1563
    165  C          3.3750    8.0150  -12.2750 C.2   236  ARG236      0.2260
    166  O          3.4640    7.9490  -11.0450 O.2   236  ARG236     -0.2867
    167  CB         1.6920    9.8190  -12.8230 C.3   236  ARG236      0.0307
    168  CG         0.5030   10.2130  -13.6930 C.3   236  ARG236      0.0489
    169  CD         0.9690   10.4580  -15.1270 C.3   236  ARG236      0.2205
    170  NE        -0.1720   10.6370  -16.0180 N.pl3 236  ARG236     -0.0865
    171  CZ        -0.1370   10.4020  -17.3250 C.cat 236  ARG236      0.5346
    172  NH1        0.9880    9.9920  -17.9180 N.pl3 236  ARG236      0.1354
    173  NH2       -1.2400   10.5800  -18.0400 N.pl3 236  ARG236      0.1354
@<TRIPOS>BOND
     1     4     3    2
     2     3     2    1
     3    17    16    2
     4     1     2    1
     5     8     7    2
     6     5     6    1
     7     7    14   am
     8     7     6    1
     9    14    15    1
    10    16    15    1
    11     6     9    1
    12    15    18    1
    13     9    10    1
    14    10    11    1
    15    18    19    1
    16    11    13   am
    17    11    12    2
    18    21    19   ar
    19    21    23   ar
    20    19    20   ar
    21    23    24   ar
    22    20    22   ar
    23    24    22   ar
    24    24    25    1
    25    57    59   ar
    26    57    55   ar
    27    59    58   ar
    28    81    80    1
    29    80    79    1
    30    55    54   ar
    31    58    56   ar
    32   173   171    1
    33   172   171    1
    34    54    56   ar
    35    54    53    1
    36    26    27    1
    37    79    78    1
    38   171   170    2
    39   101    99   ar
    40    30    27    1
    41    30    31    1
    42    49    50    1
    43   128   127    1
    44    93    92    1
    45    33    31   ar
    46    33    35   ar
    47    27    28    1
    48   133   130    1
    49   133   134    1
    50    53    50    1
    51    31    32   ar
    52    71    73   ar
    53    71    69   ar
    54    78    75    1
    55    35    36   ar
    56   139   141   ar
    57   139   136   ar
    58    90    92   ar
    59    90    88   ar
    60   130   129    1
    61   130   131    1
    62    68    69   ar
    63    68    66   ar
    64    99   100   ar
    65    99    98    1
    66    50    51    1
    67   170   169    1
    68    92    91   ar
    69   127   124    1
    70    73    72   ar
    71   141   142   ar
    72   134   136   ar
    73   134   135   ar
    74   129   125   am
    75   126   125    2
    76    69    67   ar
    77    32    34   ar
    78   136   138   ar
    79    36    34   ar
    80    36    37    1
    81   125   124    1
    82    98    95    1
    83    28    29    2
    84    28    38   am
    85   132   131    2
    86    88    87   ar
    87   169   168    1
    88    66    65   ar
    89   131   143   am
    90    75    74    1
    91    75    76    1
    92   135   137   ar
    93   124   123    1
    94   142   140   ar
    95    51    52    2
    96   138   140   ar
    97   138   137   ar
    98    91    89   ar
    99    72    70   ar
   100    38    39    1
   101    67    65   ar
   102    67    70   ar
   103    77    76    2
   104    97    96    2
   105    65    64    1
   106    95    96    1
   107    95    94    1
   108    87    89   ar
   109    87    86    1
   110   143   144    1
   111    85    84    2
   112   168   167    1
   113    62    63    2
   114    62    61    1
   115    96   102   am
   116    94    84   am
   117    84    83    1
   118    39    40    1
   119    39    42    1
   120   164   167    1
   121   164   163    1
   122   164   165    1
   123    86    83    1
   124    60    61    1
   125    64    61    1
   126   144   145    1
   127   144   147    1
   128    44    46   ar
   129    44    43   ar
   130    40    41    2
   131    83    82    1
   132    42    43    1
   133   165   166    2
   134   146   145    2
   135   116   115    2
   136    46    48   ar
   137   102   103    1
   138   115   114    1
   139   148   147    1
   140   148   149    1
   141    43    45   ar
   142   161   162   ar
   143   161   159   ar
   144   103   104    1
   145   103   106    1
   146   113   104   am
   147   113   114    1
   148   104   105    2
   149   162   160   ar
   150   114   117    1
   151   149   151   ar
   152   149   150   ar
   153   108   110   ar
   154   108   107   ar
   155   110   112   ar
   156   159   157   ar
   157    48    47   ar
   158    45    47   ar
   159   160   158   ar
   160   106   107    1
   161   107   109   ar
   162   112   111   ar
   163   117   118    1
   164   157   158   ar
   165   157   156    1
   166   120   118   ar
   167   120   122   ar
   168   118   119   ar
   169   109   111   ar
   170   156   153    1
   171   122   121   ar
   172   153   154    1
   173   153   152    1
   174   119   121   ar
   175   154   155    2
