@<TRIPOS>MOLECULE
tmp/3wikA00.pdb
 178 170 0 0 0
SMALL
GASTEIGER

@<TRIPOS>ATOM
      1  N          0.2190    9.9840   -9.6450 N.3    42  ARG42      -0.1245
      2  CA         0.1080    9.4180   -8.2820 C.3    42  ARG42       0.1563
      3  C         -0.8320    8.2280   -8.2770 C.2    42  ARG42       0.2260
      4  O         -1.7490    8.1540   -9.1020 O.2    42  ARG42      -0.2867
      5  CB        -0.4030   10.4520   -7.2930 C.3    42  ARG42       0.0307
      6  CG        -1.6660   11.1060   -7.7110 C.3    42  ARG42       0.0489
      7  CD        -1.9190   12.3620   -6.8710 C.3    42  ARG42       0.2205
      8  NE        -3.3490   12.6300   -6.8130 N.pl3  42  ARG42      -0.0865
      9  CZ        -4.1590   12.0740   -5.9220 C.cat  42  ARG42       0.5346
     10  NH1       -5.4520   12.3630   -5.9390 N.pl3  42  ARG42       0.1354
     11  NH2       -3.6710   11.2260   -5.0160 N.pl3  42  ARG42       0.1354
     12  N         -3.7780    5.9630   -7.1240 N.3    44  LEU44      -0.1245
     13  CA        -5.0730    6.3300   -6.5420 C.3    44  LEU44       0.1561
     14  C         -5.5780    5.1660   -5.7500 C.2    44  LEU44       0.2260
     15  O         -6.2430    5.3090   -4.7180 O.2    44  LEU44      -0.2867
     16  CB        -6.0900    6.7070   -7.6140 C.3    44  LEU44       0.0270
     17  CG        -5.8460    8.0210   -8.3550 C.3    44  LEU44       0.0019
     18  CD1       -6.8740    8.1380   -9.4580 C.3    44  LEU44       0.0001
     19  CD2       -5.9340    9.2140   -7.4380 C.3    44  LEU44       0.0001
     20  N         -6.9630   -6.0440   -6.1390 N.3    48  LYS48      -0.1245
     21  CA        -7.2140   -6.9860   -7.1900 C.3    48  LYS48       0.1561
     22  C         -6.0340   -7.3850   -8.0240 C.2    48  LYS48       0.2260
     23  O         -5.0840   -8.1070   -7.6470 O.2    48  LYS48      -0.2867
     24  CB        -8.2570   -6.3830   -8.1790 C.3    48  LYS48       0.0271
     25  CG        -8.1230   -4.8550   -8.4180 C.3    48  LYS48       0.0035
     26  CD        -8.9970   -4.2010   -9.4690 C.3    48  LYS48       0.0206
     27  CE       -10.5340   -4.1980   -9.1180 C.3    48  LYS48       0.1093
     28  NZ       -11.0840   -3.3270  -10.2020 N.3    48  LYS48      -0.1314
     29  N         -4.2640    1.6470  -10.0780 N.3    52  VAL52      -0.1245
     30  CA        -4.9150    2.7470  -10.7390 C.3    52  VAL52       0.1561
     31  C         -4.1910    4.0160  -10.3920 C.2    52  VAL52       0.2260
     32  O         -3.9250    4.2900   -9.2010 O.2    52  VAL52      -0.2867
     33  CB        -6.3880    2.8410  -10.2660 C.3    52  VAL52       0.0252
     34  CG1       -7.1310    3.9460  -11.0000 C.3    52  VAL52       0.0019
     35  CG2       -7.0510    1.4870  -10.4250 C.3    52  VAL52       0.0019
     36  N         -3.7330    8.3790  -11.1710 N.3    54  GLU54      -0.1245
     37  CA        -3.9620    9.6130  -11.9140 C.3    54  GLU54       0.1567
     38  C         -2.7770    9.8150  -12.8510 C.2    54  GLU54       0.2260
     39  O         -1.6210    9.6050  -12.4520 O.2    54  GLU54      -0.2867
     40  CB        -4.0940   10.8050  -10.9790 C.3    54  GLU54       0.0388
     41  CG        -4.3940   12.1100  -11.6840 C.3    54  GLU54       0.1160
     42  CD        -4.5390   13.2680  -10.6880 C.2    54  GLU54       0.3649
     43  OE1       -5.2400   13.0940   -9.6570 O.co2  54  GLU54      -0.2457
     44  OE2       -3.9350   14.3430  -10.9280 O.co2  54  GLU54      -0.2457
     45  N         -7.0890    8.6890  -16.2080 N.3    65  VAL65      -0.1245
     46  CA        -6.8590    7.6940  -15.1760 C.3    65  VAL65       0.1561
     47  C         -6.3310    6.4630  -15.8800 C.2    65  VAL65       0.2260
     48  O         -6.8600    6.0390  -16.9230 O.2    65  VAL65      -0.2867
     49  CB        -8.1260    7.4010  -14.3570 C.3    65  VAL65       0.0252
     50  CG1       -7.9390    6.1720  -13.4810 C.3    65  VAL65       0.0019
     51  CG2       -8.4260    8.5870  -13.4980 C.3    65  VAL65       0.0019
     52  N         -5.2790    2.5100  -15.5260 N.3    67  LYS67      -0.1245
     53  CA        -5.3310    1.2360  -14.8040 C.3    67  LYS67       0.1561
     54  C         -4.4040    0.2300  -15.4500 C.2    67  LYS67       0.2260
     55  O         -4.6470   -0.1880  -16.5740 O.2    67  LYS67      -0.2867
     56  CB        -6.7690    0.6960  -14.8110 C.3    67  LYS67       0.0271
     57  CG        -6.8590   -0.6910  -14.2610 C.3    67  LYS67       0.0035
     58  CD        -8.2930   -1.0860  -13.8910 C.3    67  LYS67       0.0206
     59  CE        -9.0560   -1.7560  -15.0140 C.3    67  LYS67       0.1093
     60  NZ       -10.3550   -2.3320  -14.4940 N.3    67  LYS67      -0.1314
     61  N        -13.0670   -7.2040  -20.7680 N.3    80  GLU80      -0.1245
     62  CA       -13.2630   -5.8120  -20.2950 C.3    80  GLU80       0.1567
     63  C        -13.0640   -4.7910  -21.4210 C.2    80  GLU80       0.2260
     64  O        -13.8780   -3.8370  -21.5920 O.2    80  GLU80      -0.2867
     65  CB       -12.3150   -5.4930  -19.1180 C.3    80  GLU80       0.0388
     66  CG       -12.6140   -4.1290  -18.4950 C.3    80  GLU80       0.1160
     67  CD       -11.7560   -3.7560  -17.2700 C.2    80  GLU80       0.3649
     68  OE1      -10.9180   -4.5770  -16.8140 O.co2  80  GLU80      -0.2457
     69  OE2      -11.9460   -2.6170  -16.7530 O.co2  80  GLU80      -0.2457
     70  N        -18.3680    5.1840  -18.3270 N.3    94  ILE94      -0.1245
     71  CA       -17.0180    5.7330  -18.3520 C.3    94  ILE94       0.1561
     72  C        -16.4040    5.4810  -19.7500 C.2    94  ILE94       0.2260
     73  O        -16.6010    4.4050  -20.3840 O.2    94  ILE94      -0.2867
     74  CB       -16.0870    5.1100  -17.2570 C.3    94  ILE94       0.0252
     75  CG1      -14.7790    5.9110  -17.1610 C.3    94  ILE94       0.0019
     76  CG2      -15.7930    3.6120  -17.5940 C.3    94  ILE94       0.0019
     77  CD1      -14.9250    7.2410  -16.3290 C.3    94  ILE94       0.0001
     78  N         -8.5670    5.9240  -19.0830 N.3   112  PHE112     -0.1227
     79  CA        -9.9610    6.4260  -19.0150 C.3   112  PHE112      0.1736
     80  C        -10.0200    7.9070  -18.8820 C.2   112  PHE112      0.2595
     81  O         -9.0770    8.5170  -18.3880 O.2   112  PHE112     -0.2718
     82  CB       -10.6900    5.8480  -17.8050 C.3   112  PHE112      0.0547
     83  CG       -10.7510    4.3790  -17.7960 C.ar  112  PHE112     -0.0202
     84  CD1      -11.8180    3.7230  -18.4130 C.ar  112  PHE112     -0.0042
     85  CD2       -9.7420    3.6410  -17.1990 C.ar  112  PHE112     -0.0042
     86  CE1      -11.9070    2.3360  -18.3750 C.ar  112  PHE112     -0.0003
     87  CE2       -9.7930    2.2650  -17.1640 C.ar  112  PHE112     -0.0003
     88  CZ       -10.8970    1.5950  -17.7650 C.ar  112  PHE112     -0.0000
     89  N        -11.1570    8.4890  -19.2350 N.am  113  GLU113     -0.1965
     90  CA       -11.4090    9.8770  -18.9140 C.3   113  GLU113      0.1733
     91  C        -11.3370   10.0600  -17.4040 C.2   113  GLU113      0.2616
     92  O        -11.6200    9.1500  -16.6380 O.2   113  GLU113     -0.2715
     93  CB       -12.7990   10.3090  -19.4430 C.3   113  GLU113      0.0429
     94  CG       -13.9360    9.5390  -18.7490 C.3   113  GLU113      0.1163
     95  CD       -15.3680   10.0320  -19.1500 C.2   113  GLU113      0.3649
     96  OE1      -15.5520   11.2490  -19.3540 O.co2 113  GLU113     -0.2457
     97  OE2      -16.2820    9.1760  -19.2710 O.co2 113  GLU113     -0.2457
     98  N        -10.9740   11.2640  -16.9850 N.am  114  HIS114     -0.1959
     99  CA       -10.8390   11.5550  -15.5860 C.3   114  HIS114      0.1787
    100  C        -12.1810   12.0780  -15.0460 C.2   114  HIS114      0.2620
    101  O        -12.8330   12.8960  -15.6760 O.2   114  HIS114     -0.2715
    102  CB        -9.7090   12.5790  -15.3880 C.3   114  HIS114      0.0785
    103  CG        -9.6030   13.1010  -13.9970 C.ar  114  HIS114      0.0821
    104  ND1       -8.8870   12.4570  -13.0120 N.ar  114  HIS114     -0.2267
    105  CD2      -10.0960   14.2230  -13.4370 C.ar  114  HIS114      0.1154
    106  CE1       -8.9600   13.1520  -11.8940 C.ar  114  HIS114      0.1986
    107  NE2       -9.6990   14.2230  -12.1250 N.ar  114  HIS114     -0.2212
    108  N        -12.6010   11.5700  -13.8970 N.am  115  VAL115     -0.1963
    109  CA       -13.7410   12.1530  -13.2040 C.3   115  VAL115      0.1727
    110  C        -13.2620   12.7470  -11.8920 C.2   115  VAL115      0.2616
    111  O        -12.7260   12.0440  -11.0300 O.2   115  VAL115     -0.2715
    112  CB       -14.8460   11.1240  -12.9390 C.3   115  VAL115      0.0290
    113  CG1      -16.0040   11.7990  -12.1120 C.3   115  VAL115      0.0023
    114  CG2      -15.3460   10.5360  -14.2850 C.3   115  VAL115      0.0023
    115  N        -13.4350   14.0440  -11.7260 N.am  116  ASN116     -0.1958
    116  CA       -13.0670   14.6500  -10.4380 C.3   116  ASN116      0.1819
    117  C        -14.1050   14.3560   -9.3500 C.2   116  ASN116      0.2621
    118  O        -14.9770   15.1840   -9.0650 O.2   116  ASN116     -0.2715
    119  CB       -12.9050   16.1730  -10.6040 C.3   116  ASN116      0.1195
    120  CG       -12.3980   16.8270   -9.3450 C.2   116  ASN116      0.2630
    121  OD1      -11.5810   16.2480   -8.6440 O.2   116  ASN116     -0.2716
    122  ND2      -12.9040   18.0140   -9.0280 N.am  116  ASN116     -0.0877
    123  N        -14.0160   13.2050   -8.7030 N.am  117  ASN117     -0.1972
    124  CA       -15.1740   12.7470   -7.9810 C.3   117  ASN117      0.1688
    125  C        -15.2030   13.2540   -6.5310 C.2   117  ASN117      0.2292
    126  O        -14.1960   13.3440   -5.8540 O.2   117  ASN117     -0.2864
    127  CB       -15.2710   11.2240   -8.0560 C.3   117  ASN117      0.1181
    128  CG       -14.2870   10.5450   -7.1950 C.2   117  ASN117      0.2629
    129  OD1      -13.0860   10.7500   -7.3330 O.2   117  ASN117     -0.2716
    130  ND2      -14.7870    9.7510   -6.2370 N.am  117  ASN117     -0.0877
    131  N        -18.7230    2.7240   -4.6620 N.3   159  HIS159     -0.1241
    132  CA       -17.3640    2.9870   -5.1780 C.3   159  HIS159      0.1621
    133  C        -17.2950    2.9800   -6.7170 C.2   159  HIS159      0.2264
    134  O        -16.4230    3.6230   -7.3070 O.2   159  HIS159     -0.2867
    135  CB       -16.3510    1.9740   -4.6440 C.3   159  HIS159      0.0745
    136  CG       -14.9430    2.2810   -5.0570 C.ar  159  HIS159      0.0817
    137  ND1      -14.4490    1.9610   -6.3070 N.ar  159  HIS159     -0.2268
    138  CD2      -13.9350    2.9030   -4.4010 C.ar  159  HIS159      0.1154
    139  CE1      -13.1970    2.3680   -6.4010 C.ar  159  HIS159      0.1986
    140  NE2      -12.8590    2.9400   -5.2580 N.ar  159  HIS159     -0.2212
    141  N        -18.9440    7.0190   -9.8410 N.3   162  MET162     -0.1245
    142  CA       -18.1410    8.2330   -9.5960 C.3   162  MET162      0.1570
    143  C        -19.0610    9.4280   -9.7830 C.2   162  MET162      0.2261
    144  O        -19.6850    9.5290  -10.8170 O.2   162  MET162     -0.2867
    145  CB       -16.9790    8.3380  -10.5840 C.3   162  MET162      0.0387
    146  CG       -15.7940    7.3310  -10.4330 C.3   162  MET162      0.0595
    147  SD       -14.5590    7.8450   -9.2440 S.3   162  MET162     -0.1393
    148  CE       -14.2710    6.3430   -8.3170 C.3   162  MET162      0.0692
    149  N        -18.2820    3.0040  -13.4200 N.3   173  ILE173     -0.1231
    150  CA       -16.9150    2.5830  -13.7280 C.3   173  ILE173      0.1692
    151  C        -16.6980    1.1340  -13.2950 C.2   173  ILE173      0.2592
    152  O        -17.6340    0.4430  -12.8160 O.2   173  ILE173     -0.2718
    153  CB       -15.7980    3.4630  -13.0240 C.3   173  ILE173      0.0266
    154  CG1      -15.8680    3.2400  -11.5150 C.3   173  ILE173      0.0019
    155  CG2      -15.9280    4.9760  -13.3990 C.3   173  ILE173      0.0020
    156  CD1      -14.7090    3.8990  -10.7440 C.3   173  ILE173      0.0001
    157  N        -15.4640    0.6990  -13.5260 N.am  174  ASP174     -0.1960
    158  CA       -14.9300   -0.6320  -13.1980 C.3   174  ASP174      0.1840
    159  C        -15.7860   -1.7640  -13.7720 C.2   174  ASP174      0.2622
    160  O        -16.5760   -2.4240  -13.1020 O.2   174  ASP174     -0.2715
    161  CB       -14.7520   -0.8430  -11.7210 C.3   174  ASP174      0.1450
    162  CG       -13.8660   -2.0770  -11.4470 C.2   174  ASP174      0.3671
    163  OD1      -13.3390   -2.7080  -12.4380 O.co2 174  ASP174     -0.2456
    164  OD2      -13.6830   -2.4180  -10.2460 O.co2 174  ASP174     -0.2456
    165  N        -15.5690   -1.9770  -15.0470 N.am  175  TRP175     -0.1974
    166  CA       -16.2800   -2.9850  -15.8420 C.3   175  TRP175      0.1640
    167  C        -15.5140   -4.3240  -15.8590 C.2   175  TRP175      0.2290
    168  O        -15.8210   -5.2090  -16.6340 O.2   175  TRP175     -0.2864
    169  CB       -16.4900   -2.4170  -17.2560 C.3   175  TRP175      0.0576
    170  CG       -17.4430   -1.2650  -17.2080 C.ar  175  TRP175      0.0006
    171  CD1      -17.1600    0.0310  -16.8470 C.ar  175  TRP175      0.0946
    172  CD2      -18.8640   -1.3290  -17.3920 C.ar  175  TRP175      0.0152
    173  NE1      -18.3170    0.7930  -16.8530 N.ar  175  TRP175     -0.2442
    174  CE2      -19.3760   -0.0240  -17.1980 C.ar  175  TRP175      0.0810
    175  CE3      -19.7480   -2.3590  -17.7380 C.ar  175  TRP175      0.0012
    176  CZ2      -20.7180    0.2760  -17.3190 C.ar  175  TRP175      0.0191
    177  CZ3      -21.0930   -2.0640  -17.8660 C.ar  175  TRP175      0.0001
    178  CH2      -21.5750   -0.7520  -17.6560 C.ar  175  TRP175      0.0015
@<TRIPOS>BOND
     1    64    63    2
     2    63    62    1
     3    61    62    1
     4    73    72    2
     5    62    65    1
     6    72    71    1
     7    93    90    1
     8    93    94    1
     9    96    95   ar
    10    97    95   ar
    11    89    90    1
    12    89    80   am
    13    95    94    1
    14    65    66    1
    15    78    79    1
    16    79    80    1
    17    79    82    1
    18    90    91    1
    19    80    81    2
    20    66    67    1
    21    84    86   ar
    22    84    83   ar
    23    86    88   ar
    24    71    70    1
    25    71    74    1
    26   177   175   ar
    27   177   178   ar
    28    82    83    1
    29    83    85   ar
    30    88    87   ar
    31   175   172   ar
    32   178   176   ar
    33    76    74    1
    34    91    98   am
    35    91    92    2
    36   172   170   ar
    37   172   174   ar
    38   176   174   ar
    39    67    68   ar
    40    67    69   ar
    41    74    75    1
    42   169   170    1
    43   169   166    1
    44   170   171   ar
    45    85    87   ar
    46   174   173   ar
    47    75    77    1
    48    98    99    1
    49    48    47    2
    50   173   171   ar
    51   168   167    2
    52    55    54    2
    53    45    46    1
    54    47    46    1
    55   167   166    1
    56   166   165    1
    57   101   100    2
    58    99   102    1
    59    99   100    1
    60    52    53    1
    61    54    53    1
    62   102   103    1
    63    46    49    1
    64   165   159   am
    65   100   108   am
    66    59    60    1
    67    59    58    1
    68    56    53    1
    69    56    57    1
    70    49    51    1
    71    49    50    1
    72   114   112    1
    73    57    58    1
    74   103   105   ar
    75   103   104   ar
    76   108   109    1
    77   159   158    1
    78   159   160    2
    79   150   149    1
    80   150   151    1
    81   150   153    1
    82   157   151   am
    83   157   158    1
    84   105   107   ar
    85   155   153    1
    86   151   152    2
    87   109   112    1
    88   109   110    1
    89   158   161    1
    90   153   154    1
    91   104   106   ar
    92   112   113    1
    93    38    39    2
    94    38    37    1
    95   163   162   ar
    96   107   106   ar
    97    37    36    1
    98    37    40    1
    99   110   115   am
   100   110   111    2
   101   115   116    1
   102   161   162    1
   103    41    40    1
   104    41    42    1
   105   154   156    1
   106   162   164   ar
   107    34    33    1
   108    44    42   ar
   109   144   143    2
   110    30    31    1
   111    30    33    1
   112    30    29    1
   113    42    43   ar
   114   119   116    1
   115   119   120    1
   116   145   146    1
   117   145   142    1
   118   116   117    1
   119   146   147    1
   120    35    33    1
   121    31    32    2
   122    28    27    1
   123   141   142    1
   124   143   142    1
   125     1     2    1
   126    26    27    1
   127    26    25    1
   128    18    17    1
   129   117   118    2
   130   117   123   am
   131   120   122   am
   132   120   121    2
   133   147   148    1
   134     4     3    2
   135   123   124    1
   136    25    24    1
   137    17    16    1
   138    17    19    1
   139     2     3    1
   140     2     5    1
   141    24    21    1
   142   127   124    1
   143   127   128    1
   144    22    23    2
   145    22    21    1
   146   124   125    1
   147     6     5    1
   148     6     7    1
   149    16    13    1
   150   129   128    2
   151   134   133    2
   152   128   130   am
   153    21    20    1
   154    12    13    1
   155     7     8    1
   156     8     9    2
   157   133   132    1
   158    13    14    1
   159   125   126    2
   160   139   137   ar
   161   139   140   ar
   162   137   136   ar
   163    10     9    1
   164     9    11    1
   165    14    15    2
   166   140   138   ar
   167   132   131    1
   168   132   135    1
   169   136   135    1
   170   136   138   ar
