@<TRIPOS>MOLECULE
tmp/3wilA00.pdb
 167 159 0 0 0
SMALL
GASTEIGER

@<TRIPOS>ATOM
      1  N        -48.0250  -10.3530   -9.6210 N.3    42  ARG42      -0.1245
      2  CA       -47.8560   -9.7850   -8.2980 C.3    42  ARG42       0.1563
      3  C        -47.2180   -8.4220   -8.4510 C.2    42  ARG42       0.2260
      4  O        -46.5280   -8.1900   -9.4240 O.2    42  ARG42      -0.2867
      5  CB       -46.9100  -10.6600   -7.4290 C.3    42  ARG42       0.0307
      6  CG       -47.1020  -12.1940   -7.5230 C.3    42  ARG42       0.0489
      7  CD       -46.2300  -12.9430   -6.4960 C.3    42  ARG42       0.2205
      8  NE       -44.8050  -12.9990   -6.8580 N.pl3  42  ARG42      -0.0865
      9  CZ       -43.8070  -13.1710   -5.9870 C.cat  42  ARG42       0.5346
     10  NH1      -42.5530  -13.2130   -6.4190 N.pl3  42  ARG42       0.1354
     11  NH2      -44.0540  -13.2990   -4.6820 N.pl3  42  ARG42       0.1354
     12  N        -44.1350   -6.2690   -7.0880 N.3    44  LEU44      -0.1245
     13  CA       -42.8500   -6.6920   -6.5380 C.3    44  LEU44       0.1561
     14  C        -42.1090   -5.5520   -5.8390 C.2    44  LEU44       0.2260
     15  O        -41.0860   -5.7850   -5.1590 O.2    44  LEU44      -0.2867
     16  CB       -41.9500   -7.3190   -7.6080 C.3    44  LEU44       0.0270
     17  CG       -42.2090   -8.6740   -8.2880 C.3    44  LEU44       0.0019
     18  CD1      -41.2190   -8.8310   -9.4550 C.3    44  LEU44       0.0001
     19  CD2      -42.1240   -9.8510   -7.3450 C.3    44  LEU44       0.0001
     20  N        -43.4680   -1.6050   -9.9430 N.3    52  VAL52      -0.1245
     21  CA       -42.8630   -2.7610  -10.5550 C.3    52  VAL52       0.1561
     22  C        -43.7170   -3.9900  -10.2980 C.2    52  VAL52       0.2260
     23  O        -44.0520   -4.3000   -9.1650 O.2    52  VAL52      -0.2867
     24  CB       -41.4030   -2.8990  -10.0500 C.3    52  VAL52       0.0252
     25  CG1      -40.8280   -4.2820  -10.3070 C.3    52  VAL52       0.0019
     26  CG2      -40.5430   -1.8140  -10.7030 C.3    52  VAL52       0.0019
     27  N        -44.2900   -8.2620  -11.0530 N.3    54  GLU54      -0.1245
     28  CA       -44.0790   -9.5380  -11.7250 C.3    54  GLU54       0.1567
     29  C        -45.1530   -9.6950  -12.7940 C.2    54  GLU54       0.2260
     30  O        -46.3380   -9.5090  -12.4920 O.2    54  GLU54      -0.2867
     31  CB       -44.1580  -10.7040  -10.7460 C.3    54  GLU54       0.0388
     32  CG       -44.1640  -12.0230  -11.4620 C.3    54  GLU54       0.1160
     33  CD       -43.7080  -13.1620  -10.6040 C.2    54  GLU54       0.3649
     34  OE1      -42.7320  -12.9700   -9.8200 O.co2  54  GLU54      -0.2457
     35  OE2      -44.3290  -14.2520  -10.7240 O.co2  54  GLU54      -0.2457
     36  N        -40.9690   -8.8140  -16.2080 N.3    65  VAL65      -0.1245
     37  CA       -41.1750   -7.7790  -15.2240 C.3    65  VAL65       0.1561
     38  C        -41.7610   -6.5500  -15.9390 C.2    65  VAL65       0.2260
     39  O        -41.2990   -6.1850  -17.0200 O.2    65  VAL65      -0.2867
     40  CB       -39.8650   -7.4870  -14.4480 C.3    65  VAL65       0.0252
     41  CG1      -40.0900   -6.4000  -13.4000 C.3    65  VAL65       0.0019
     42  CG2      -39.3740   -8.7630  -13.8000 C.3    65  VAL65       0.0019
     43  N        -42.7130   -2.6180  -15.6690 N.3    67  LYS67      -0.1245
     44  CA       -42.5470   -1.3250  -15.0260 C.3    67  LYS67       0.1561
     45  C        -43.5630   -0.3500  -15.5430 C.2    67  LYS67       0.2260
     46  O        -43.3710    0.1830  -16.6160 O.2    67  LYS67      -0.2867
     47  CB       -41.1780   -0.7720  -15.3360 C.3    67  LYS67       0.0271
     48  CG       -40.7620    0.3250  -14.4150 C.3    67  LYS67       0.0035
     49  CD       -39.4350    0.8590  -14.8470 C.3    67  LYS67       0.0206
     50  CE       -38.7890    1.6720  -13.7920 C.3    67  LYS67       0.1093
     51  NZ       -37.4160    1.8910  -14.2920 N.3    67  LYS67      -0.1314
     52  N        -34.8740    6.9630  -20.5880 N.3    80  GLU80      -0.1245
     53  CA       -34.6750    5.6120  -20.0570 C.3    80  GLU80       0.1567
     54  C        -34.7670    4.5540  -21.1540 C.2    80  GLU80       0.2260
     55  O        -33.9740    3.5790  -21.2340 O.2    80  GLU80      -0.2867
     56  CB       -35.7320    5.3340  -18.9660 C.3    80  GLU80       0.0388
     57  CG       -35.9070    3.8370  -18.6370 C.3    80  GLU80       0.1160
     58  CD       -36.4540    3.5590  -17.2390 C.2    80  GLU80       0.3649
     59  OE1      -37.1090    4.4760  -16.6960 O.co2  80  GLU80      -0.2457
     60  OE2      -36.2100    2.4310  -16.6880 O.co2  80  GLU80      -0.2457
     61  N        -29.8060   -5.4130  -18.2010 N.3    94  ILE94      -0.1245
     62  CA       -31.2010   -5.8620  -18.2530 C.3    94  ILE94       0.1561
     63  C        -31.8320   -5.6630  -19.6370 C.2    94  ILE94       0.2260
     64  O        -31.7740   -4.5630  -20.1790 O.2    94  ILE94      -0.2867
     65  CB       -32.0770   -5.1490  -17.1470 C.3    94  ILE94       0.0252
     66  CG1      -33.3790   -5.9170  -16.9140 C.3    94  ILE94       0.0019
     67  CG2      -32.3360   -3.6680  -17.4950 C.3    94  ILE94       0.0019
     68  CD1      -33.1220   -7.3040  -16.4520 C.3    94  ILE94       0.0001
     69  N        -39.4850   -6.0840  -19.1060 N.3   112  PHE112     -0.1227
     70  CA       -38.0690   -6.5340  -18.9690 C.3   112  PHE112      0.1736
     71  C        -37.9450   -8.0320  -18.8170 C.2   112  PHE112      0.2595
     72  O        -38.9340   -8.6900  -18.5370 O.2   112  PHE112     -0.2718
     73  CB       -37.4090   -5.8940  -17.7340 C.3   112  PHE112      0.0547
     74  CG       -37.3720   -4.4010  -17.7760 C.ar  112  PHE112     -0.0202
     75  CD1      -36.3300   -3.7540  -18.4020 C.ar  112  PHE112     -0.0042
     76  CD2      -38.4060   -3.6370  -17.2170 C.ar  112  PHE112     -0.0042
     77  CE1      -36.2750   -2.3900  -18.4700 C.ar  112  PHE112     -0.0003
     78  CE2      -38.3630   -2.2360  -17.2900 C.ar  112  PHE112     -0.0003
     79  CZ       -37.2750   -1.6140  -17.9230 C.ar  112  PHE112     -0.0000
     80  N        -36.7350   -8.5630  -19.0140 N.am  113  GLU113     -0.1965
     81  CA       -36.3530   -9.9160  -18.5530 C.3   113  GLU113      0.1733
     82  C        -36.7490  -10.1450  -17.1090 C.2   113  GLU113      0.2616
     83  O        -36.5540   -9.2620  -16.2770 O.2   113  GLU113     -0.2715
     84  CB       -34.8310  -10.0520  -18.5100 C.3   113  GLU113      0.0429
     85  CG       -34.1330  -10.5490  -19.7480 C.3   113  GLU113      0.1163
     86  CD       -32.6350  -10.3800  -19.6480 C.2   113  GLU113      0.3649
     87  OE1      -32.1360   -9.2760  -19.3140 O.co2 113  GLU113     -0.2457
     88  OE2      -31.9490  -11.3700  -19.9150 O.co2 113  GLU113     -0.2457
     89  N        -37.2470  -11.3410  -16.7960 N.am  114  HIS114     -0.1959
     90  CA       -37.3440  -11.7680  -15.3950 C.3   114  HIS114      0.1787
     91  C        -35.9540  -12.1950  -14.9740 C.2   114  HIS114      0.2620
     92  O        -35.2800  -12.8940  -15.7220 O.2   114  HIS114     -0.2715
     93  CB       -38.3150  -12.9330  -15.2150 C.3   114  HIS114      0.0785
     94  CG       -38.6760  -13.1980  -13.7880 C.ar  114  HIS114      0.0821
     95  ND1      -37.8980  -13.9710  -12.9540 N.ar  114  HIS114     -0.2267
     96  CD2      -39.7210  -12.7730  -13.0370 C.ar  114  HIS114      0.1154
     97  CE1      -38.4480  -14.0140  -11.7530 C.ar  114  HIS114      0.1986
     98  NE2      -39.5590  -13.3010  -11.7780 N.ar  114  HIS114     -0.2212
     99  N        -35.5000  -11.7080  -13.8200 N.am  115  VAL115     -0.1963
    100  CA       -34.3180  -12.2500  -13.1710 C.3   115  VAL115      0.1727
    101  C        -34.7630  -12.7590  -11.8290 C.2   115  VAL115      0.2616
    102  O        -35.1520  -12.0040  -10.9390 O.2   115  VAL115     -0.2715
    103  CB       -33.1730  -11.2620  -13.0020 C.3   115  VAL115      0.0290
    104  CG1      -32.0720  -11.8760  -12.0750 C.3   115  VAL115      0.0023
    105  CG2      -32.6000  -10.9000  -14.3260 C.3   115  VAL115      0.0023
    106  N        -34.7350  -14.0800  -11.7220 N.am  116  ASN116     -0.1958
    107  CA       -35.2120  -14.7940  -10.5480 C.3   116  ASN116      0.1819
    108  C        -34.2620  -14.5090   -9.3600 C.2   116  ASN116      0.2621
    109  O        -33.4000  -15.3260   -9.0250 O.2   116  ASN116     -0.2715
    110  CB       -35.3070  -16.2610  -10.9150 C.3   116  ASN116      0.1195
    111  CG       -35.3040  -17.1210   -9.7400 C.2   116  ASN116      0.2630
    112  OD1      -36.1150  -16.9260   -8.8510 O.2   116  ASN116     -0.2716
    113  ND2      -34.3670  -18.0800   -9.6840 N.am  116  ASN116     -0.0877
    114  N        -34.4280  -13.3260   -8.7510 N.am  117  ASN117     -0.1972
    115  CA       -33.4100  -12.7020   -7.8930 C.3   117  ASN117      0.1688
    116  C        -33.2300  -13.4250   -6.5990 C.2   117  ASN117      0.2292
    117  O        -34.1290  -13.4390   -5.7930 O.2   117  ASN117     -0.2864
    118  CB       -33.7580  -11.2240   -7.6060 C.3   117  ASN117      0.1181
    119  CG       -32.6240  -10.4640   -6.8740 C.2   117  ASN117      0.2629
    120  OD1      -31.4820  -10.4360   -7.3270 O.2   117  ASN117     -0.2716
    121  ND2      -32.9570   -9.8400   -5.7430 N.am  117  ASN117     -0.0877
    122  N        -32.5490  -13.4350   -3.0560 N.3   119  ASP119     -0.1239
    123  CA       -32.6230  -12.2560   -2.1980 C.3   119  ASP119      0.1674
    124  C        -31.3770  -11.9760   -1.3650 C.2   119  ASP119      0.2266
    125  O        -30.8280  -12.8800   -0.7170 O.2   119  ASP119     -0.2867
    126  CB       -33.8940  -12.1170   -1.3410 C.3   119  ASP119      0.1410
    127  CG       -34.1620  -10.6270   -0.9490 C.2   119  ASP119      0.3668
    128  OD1      -34.1940   -9.7600   -1.8730 O.co2 119  ASP119     -0.2456
    129  OD2      -34.3090  -10.3280    0.2700 O.co2 119  ASP119     -0.2456
    130  N        -29.5980   -6.9830   -9.9070 N.3   162  MET162     -0.1245
    131  CA       -30.2730   -8.2550   -9.6170 C.3   162  MET162      0.1570
    132  C        -29.2700   -9.3850   -9.8410 C.2   162  MET162      0.2261
    133  O        -28.4090   -9.2540  -10.7090 O.2   162  MET162     -0.2867
    134  CB       -31.5300   -8.4700  -10.4760 C.3   162  MET162      0.0387
    135  CG       -32.5900   -7.3340  -10.4430 C.3   162  MET162      0.0595
    136  SD       -33.7140   -7.2750   -9.0130 S.3   162  MET162     -0.1393
    137  CE       -32.6900   -6.7730   -7.6340 C.3   162  MET162      0.0692
    138  N        -29.9480   -3.0870  -13.2810 N.3   173  ILE173     -0.1231
    139  CA       -31.2670   -2.5190  -13.5820 C.3   173  ILE173      0.1692
    140  C        -31.4530   -1.0450  -13.1970 C.2   173  ILE173      0.2592
    141  O        -30.5200   -0.3940  -12.7100 O.2   173  ILE173     -0.2718
    142  CB       -32.4100   -3.3390  -13.0100 C.3   173  ILE173      0.0266
    143  CG1      -32.4210   -3.2070  -11.4870 C.3   173  ILE173      0.0019
    144  CG2      -32.2790   -4.7950  -13.4510 C.3   173  ILE173      0.0020
    145  CD1      -33.7770   -3.2350  -10.8790 C.3   173  ILE173      0.0001
    146  N        -32.6470   -0.5270  -13.5140 N.am  174  ASP174     -0.1960
    147  CA       -33.0700    0.8120  -13.1510 C.3   174  ASP174      0.1840
    148  C        -32.1790    1.9300  -13.7390 C.2   174  ASP174      0.2622
    149  O        -31.2880    2.4960  -13.0780 O.2   174  ASP174     -0.2715
    150  CB       -33.1790    0.9000  -11.6370 C.3   174  ASP174      0.1450
    151  CG       -34.1930    1.8950  -11.1800 C.2   174  ASP174      0.3671
    152  OD1      -34.7070    2.7000  -12.0070 O.co2 174  ASP174     -0.2456
    153  OD2      -34.4540    1.8550   -9.9490 O.co2 174  ASP174     -0.2456
    154  N        -32.4650    2.2320  -15.0040 N.am  175  TRP175     -0.1974
    155  CA       -31.7900    3.2540  -15.7920 C.3   175  TRP175      0.1640
    156  C        -32.6570    4.5300  -15.9200 C.2   175  TRP175      0.2290
    157  O        -32.4260    5.3820  -16.7950 O.2   175  TRP175     -0.2864
    158  CB       -31.5120    2.6630  -17.1630 C.3   175  TRP175      0.0576
    159  CG       -30.6820    1.3890  -17.1040 C.ar  175  TRP175      0.0006
    160  CD1      -31.1300    0.1370  -16.8100 C.ar  175  TRP175      0.0946
    161  CD2      -29.2700    1.2580  -17.3700 C.ar  175  TRP175      0.0152
    162  NE1      -30.0850   -0.7750  -16.8650 N.ar  175  TRP175     -0.2442
    163  CE2      -28.9370   -0.1080  -17.2030 C.ar  175  TRP175      0.0810
    164  CE3      -28.2590    2.1670  -17.7030 C.ar  175  TRP175      0.0012
    165  CZ2      -27.6540   -0.5860  -17.3570 C.ar  175  TRP175      0.0191
    166  CZ3      -26.9800    1.6900  -17.8590 C.ar  175  TRP175      0.0001
    167  CH2      -26.6910    0.3080  -17.6810 C.ar  175  TRP175      0.0015
@<TRIPOS>BOND
     1    55    54    2
     2    54    53    1
     3    52    53    1
     4    64    63    2
     5    53    56    1
     6    88    86   ar
     7    85    86    1
     8    85    84    1
     9    86    87   ar
    10    63    62    1
    11    69    70    1
    12    80    71   am
    13    80    81    1
    14    70    71    1
    15    70    73    1
    16    56    57    1
    17    71    72    2
    18    57    58    1
    19    81    84    1
    20    81    82    1
    21    77    75   ar
    22    77    79   ar
    23    75    74   ar
    24    62    61    1
    25    62    65    1
    26    79    78   ar
    27   166   164   ar
    28   166   167   ar
    29    74    73    1
    30    74    76   ar
    31   164   161   ar
    32   167   165   ar
    33    67    65    1
    34   161   163   ar
    35   161   159   ar
    36   165   163   ar
    37    78    76   ar
    38    58    59   ar
    39    58    60   ar
    40   163   162   ar
    41   158   159    1
    42   158   155    1
    43    65    66    1
    44    82    89   am
    45    82    83    2
    46   159   160   ar
    47    39    38    2
    48    66    68    1
    49   162   160   ar
    50    89    90    1
    51   157   156    2
    52    46    45    2
    53    36    37    1
    54    38    37    1
    55   156   155    1
    56   155   154    1
    57    92    91    2
    58    43    44    1
    59    45    44    1
    60    90    93    1
    61    90    91    1
    62    47    44    1
    63    47    48    1
    64    37    40    1
    65    93    94    1
    66   154   148   am
    67    91    99   am
    68    49    48    1
    69    49    50    1
    70    40    42    1
    71    40    41    1
    72   105   103    1
    73    51    50    1
    74    99   100    1
    75    94    96   ar
    76    94    95   ar
    77   148   147    1
    78   148   149    2
    79   139   138    1
    80   139   140    1
    81   139   142    1
    82   146   140   am
    83   146   147    1
    84   144   142    1
    85   140   141    2
    86   100   103    1
    87   100   101    1
    88   147   150    1
    89    96    98   ar
    90   142   143    1
    91   103   104    1
    92    95    97   ar
    93    29    30    2
    94    29    28    1
    95   152   151   ar
    96   101   106   am
    97   101   102    2
    98    98    97   ar
    99    28    27    1
   100    28    31    1
   101   106   107    1
   102   150   151    1
   103   143   145    1
   104    32    31    1
   105    32    33    1
   106   151   153   ar
   107   110   107    1
   108   110   111    1
   109    35    33   ar
   110   133   132    2
   111    26    24    1
   112    33    34   ar
   113    21    22    1
   114    21    24    1
   115    21    20    1
   116   107   108    1
   117   134   135    1
   118   134   131    1
   119   135   136    1
   120    25    24    1
   121    22    23    2
   122   130   131    1
   123   132   131    1
   124   111   113   am
   125   111   112    2
   126     1     2    1
   127    18    17    1
   128     4     3    2
   129   108   109    2
   130   108   114   am
   131   136   137    1
   132   114   115    1
   133     3     2    1
   134     2     5    1
   135    17    16    1
   136    17    19    1
   137   115   118    1
   138   115   116    1
   139    16    13    1
   140   118   119    1
   141     6     5    1
   142     6     7    1
   143   120   119    2
   144    12    13    1
   145   119   121   am
   146     8     7    1
   147     8     9    2
   148   116   117    2
   149    13    14    1
   150    10     9    1
   151     9    11    1
   152    14    15    2
   153   122   123    1
   154   123   124    1
   155   123   126    1
   156   128   127   ar
   157   124   125    2
   158   126   127    1
   159   127   129   ar
