@<TRIPOS>MOLECULE
tmp/3wioA00.pdb
 101 97 0 0 0
SMALL
GASTEIGER

@<TRIPOS>ATOM
      1  N        -22.9210   12.0420  -16.7050 N.3    25  PHE25      -0.1241
      2  CA       -24.1180   11.7560  -16.0040 C.3    25  PHE25       0.1605
      3  C        -24.6050   10.3740  -16.3450 C.2    25  PHE25       0.2264
      4  O        -24.8290   10.0670  -17.5190 O.2    25  PHE25      -0.2867
      5  CB       -25.2110   12.7880  -16.3860 C.3    25  PHE25       0.0534
      6  CG       -26.5450   12.4580  -15.8070 C.ar   25  PHE25      -0.0203
      7  CD1      -26.7460   12.4920  -14.4210 C.ar   25  PHE25      -0.0042
      8  CD2      -27.5860   12.1000  -16.6190 C.ar   25  PHE25      -0.0042
      9  CE1      -27.9780   12.1540  -13.8890 C.ar   25  PHE25      -0.0003
     10  CE2      -28.8010   11.7800  -16.0930 C.ar   25  PHE25      -0.0003
     11  CZ       -29.0130   11.7910  -14.7480 C.ar   25  PHE25      -0.0000
     12  N        -33.3470   22.8970  -25.4100 N.3   133  PHE133     -0.1241
     13  CA       -34.3420   22.5890  -24.4000 C.3   133  PHE133      0.1605
     14  C        -35.1270   23.8220  -23.9280 C.2   133  PHE133      0.2264
     15  O        -34.5210   24.8590  -23.7120 O.2   133  PHE133     -0.2867
     16  CB       -33.6450   21.9940  -23.1930 C.3   133  PHE133      0.0534
     17  CG       -33.1190   20.6000  -23.3910 C.ar  133  PHE133     -0.0203
     18  CD1      -33.9430   19.4860  -23.1590 C.ar  133  PHE133     -0.0042
     19  CD2      -31.7720   20.3930  -23.7760 C.ar  133  PHE133     -0.0042
     20  CE1      -33.4620   18.1920  -23.3280 C.ar  133  PHE133     -0.0003
     21  CE2      -31.2730   19.1260  -23.9080 C.ar  133  PHE133     -0.0003
     22  CZ       -32.1140   18.0060  -23.6830 C.ar  133  PHE133     -0.0000
     23  N        -37.6380   20.3300  -19.6560 N.3   138  ILE138     -0.1245
     24  CA       -36.8500   19.7720  -18.5800 C.3   138  ILE138      0.1561
     25  C        -37.7480   19.4380  -17.4230 C.2   138  ILE138      0.2260
     26  O        -37.6630   18.3430  -16.8770 O.2   138  ILE138     -0.2867
     27  CB       -35.7310   20.6930  -18.0680 C.3   138  ILE138      0.0252
     28  CG1      -35.4890   21.8500  -19.0020 C.3   138  ILE138      0.0019
     29  CG2      -34.4380   19.8620  -17.7730 C.3   138  ILE138      0.0019
     30  CD1      -34.8550   21.4260  -20.3160 C.3   138  ILE138      0.0001
     31  N        -39.2180   16.1550  -17.4580 N.3   141  VAL141     -0.1245
     32  CA       -38.1760   15.1740  -17.1860 C.3   141  VAL141      0.1561
     33  C        -37.9150   15.1220  -15.6800 C.2   141  VAL141      0.2260
     34  O        -37.9620   14.0510  -15.1230 O.2   141  VAL141     -0.2867
     35  CB       -36.9120   15.5210  -18.0090 C.3   141  VAL141      0.0252
     36  CG1      -35.6520   14.8110  -17.4740 C.3   141  VAL141      0.0019
     37  CG2      -37.1780   15.2170  -19.5170 C.3   141  VAL141      0.0019
     38  N        -38.2570    6.2220  -16.1370 N.3   152  TRP152     -0.1241
     39  CA       -37.5920    7.2940  -16.8150 C.3   152  TRP152      0.1605
     40  C        -36.2630    6.7570  -17.3540 C.2   152  TRP152      0.2264
     41  O        -35.9450    7.0170  -18.4990 O.2   152  TRP152     -0.2867
     42  CB       -37.3750    8.5240  -15.9010 C.3   152  TRP152      0.0550
     43  CG       -36.3730    9.4210  -16.5160 C.ar  152  TRP152      0.0003
     44  CD1      -36.6060   10.3590  -17.4610 C.ar  152  TRP152      0.0946
     45  CD2      -34.9400    9.4250  -16.2750 C.ar  152  TRP152      0.0152
     46  NE1      -35.4090   10.9520  -17.8460 N.ar  152  TRP152     -0.2442
     47  CE2      -34.3770   10.4020  -17.1300 C.ar  152  TRP152      0.0810
     48  CE3      -34.0840    8.6670  -15.4460 C.ar  152  TRP152      0.0012
     49  CZ2      -32.9730   10.6620  -17.1930 C.ar  152  TRP152      0.0191
     50  CZ3      -32.7110    8.9460  -15.4610 C.ar  152  TRP152      0.0001
     51  CH2      -32.1670    9.9390  -16.3660 C.ar  152  TRP152      0.0015
     52  N        -34.8110    6.7910  -21.0410 N.3   156  TYR156     -0.1241
     53  CA       -33.7270    7.7270  -21.3810 C.3   156  TYR156      0.1605
     54  C        -32.5410    6.9590  -22.0450 C.2   156  TYR156      0.2264
     55  O        -32.0030    7.3760  -23.0450 O.2   156  TYR156     -0.2867
     56  CB       -33.2780    8.5230  -20.1370 C.3   156  TYR156      0.0534
     57  CG       -32.0520    9.3390  -20.3620 C.ar  156  TYR156     -0.0201
     58  CD1      -32.0320   10.3180  -21.3300 C.ar  156  TYR156     -0.0009
     59  CD2      -30.8730    9.0740  -19.6610 C.ar  156  TYR156     -0.0009
     60  CE1      -30.9060   11.0770  -21.5570 C.ar  156  TYR156      0.0417
     61  CE2      -29.7270    9.8170  -19.8910 C.ar  156  TYR156      0.0417
     62  CZ       -29.7720   10.8130  -20.8570 C.ar  156  TYR156      0.1957
     63  OH       -28.6880   11.5570  -21.1260 O.3   156  TYR156     -0.2866
     64  N        -32.1340    6.7260  -25.7640 N.3   159  LEU159     -0.1245
     65  CA       -32.0550    8.0140  -26.4380 C.3   159  LEU159      0.1561
     66  C        -30.6580    8.5950  -26.2840 C.2   159  LEU159      0.2260
     67  O        -30.1330    9.1940  -27.2250 O.2   159  LEU159     -0.2867
     68  CB       -33.0750    9.0220  -25.8820 C.3   159  LEU159      0.0270
     69  CG       -34.5390    8.7530  -26.1990 C.3   159  LEU159      0.0019
     70  CD1      -35.4280    9.6770  -25.3310 C.3   159  LEU159      0.0001
     71  CD2      -34.8150    8.9030  -27.7170 C.3   159  LEU159      0.0001
     72  N        -29.0940   16.2240  -12.2310 N.3   188  CYS188     -0.1235
     73  CA       -29.7340   16.6550  -13.4270 C.3   188  CYS188      0.1677
     74  C        -30.2390   18.0910  -13.2570 C.2   188  CYS188      0.2270
     75  O        -30.0330   18.9160  -14.1480 O.2   188  CYS188     -0.2867
     76  CB       -30.8000   15.6520  -13.8940 C.3   188  CYS188      0.0956
     77  SG       -31.4450   16.0690  -15.4970 S.3   188  CYS188     -0.0801
     78  N        -28.7450   21.2990  -15.6490 N.3   192  PHE192     -0.1241
     79  CA       -29.7140   22.0720  -16.4410 C.3   192  PHE192      0.1605
     80  C        -29.8950   23.5360  -15.9880 C.2   192  PHE192      0.2264
     81  O        -30.3600   24.3460  -16.7620 O.2   192  PHE192     -0.2867
     82  CB       -31.0700   21.2910  -16.5920 C.3   192  PHE192      0.0534
     83  CG       -30.9920   20.2840  -17.6810 C.ar  192  PHE192     -0.0203
     84  CD1      -30.3470   19.0690  -17.4710 C.ar  192  PHE192     -0.0042
     85  CD2      -31.3780   20.6130  -18.9730 C.ar  192  PHE192     -0.0042
     86  CE1      -30.1550   18.1750  -18.5220 C.ar  192  PHE192     -0.0003
     87  CE2      -31.2290   19.7270  -20.0070 C.ar  192  PHE192     -0.0003
     88  CZ       -30.6180   18.5190  -19.8020 C.ar  192  PHE192     -0.0000
     89  N        -28.7880   13.7710  -28.2830 N.3   216  VAL216     -0.1231
     90  CA       -30.0580   14.1900  -27.6790 C.3   216  VAL216      0.1692
     91  C        -29.8900   15.4310  -26.8020 C.2   216  VAL216      0.2592
     92  O        -30.8370   16.1470  -26.6430 O.2   216  VAL216     -0.2718
     93  CB       -30.7710   13.0480  -26.8830 C.3   216  VAL216      0.0266
     94  CG1      -30.1220   12.7950  -25.5420 C.3   216  VAL216      0.0020
     95  CG2      -32.3210   13.3420  -26.7160 C.3   216  VAL216      0.0020
     96  N        -28.6990   15.7160  -26.2680 N.am  217  SER217     -0.1952
     97  CA       -28.6070   16.8520  -25.3320 C.3   217  SER217      0.1924
     98  C        -27.7910   18.0230  -25.8940 C.2   217  SER217      0.2314
     99  O        -27.5930   19.0460  -25.2300 O.2   217  SER217     -0.2863
    100  CB       -28.0610   16.4010  -23.9670 C.3   217  SER217      0.2116
    101  OG       -26.7300   15.8880  -24.0960 O.3   217  SER217     -0.2180
@<TRIPOS>BOND
     1    89    90    1
     2    71    69    1
     3    90    93    1
     4    90    91    1
     5    67    66    2
     6    93    95    1
     7    93    94    1
     8    91    92    2
     9    91    96   am
    10    65    66    1
    11    65    68    1
    12    65    64    1
    13    96    97    1
    14    69    68    1
    15    69    70    1
    16    98    97    1
    17    98    99    2
    18    12    13    1
    19    97   100    1
    20    13    14    1
    21    13    16    1
    22   101   100    1
    23    14    15    2
    24    21    19   ar
    25    21    22   ar
    26    19    17   ar
    27    22    20   ar
    28    17    16    1
    29    17    18   ar
    30    20    18   ar
    31    55    54    2
    32    54    53    1
    33    60    58   ar
    34    60    62   ar
    35    53    52    1
    36    53    56    1
    37    58    57   ar
    38    63    62    1
    39    62    61   ar
    40    57    56    1
    41    57    59   ar
    42    30    28    1
    43    87    88   ar
    44    87    85   ar
    45    61    59   ar
    46    88    86   ar
    47    23    24    1
    48    37    35    1
    49    28    27    1
    50    85    83   ar
    51    24    27    1
    52    24    25    1
    53    86    84   ar
    54    41    40    2
    55    27    29    1
    56    35    36    1
    57    35    32    1
    58    46    44   ar
    59    46    47   ar
    60    83    84   ar
    61    83    82    1
    62     4     3    2
    63    44    43   ar
    64    31    32    1
    65    25    26    2
    66    40    39    1
    67    49    47   ar
    68    49    51   ar
    69    32    33    1
    70    47    45   ar
    71    39    38    1
    72    39    42    1
    73    81    80    2
    74     1     2    1
    75     8    10   ar
    76     8     6   ar
    77    82    79    1
    78    43    45   ar
    79    43    42    1
    80    79    80    1
    81    79    78    1
    82     5     2    1
    83     5     6    1
    84    51    50   ar
    85     3     2    1
    86    45    48   ar
    87    10    11   ar
    88     6     7   ar
    89    33    34    2
    90    77    76    1
    91    50    48   ar
    92    11     9   ar
    93     7     9   ar
    94    75    74    2
    95    76    73    1
    96    73    74    1
    97    73    72    1
