@<TRIPOS>MOLECULE
tmp/3wipD02.pdb
 92 93 0 0 0
SMALL
GASTEIGER

@<TRIPOS>ATOM
      1  N         31.8420   10.2980   47.6170 N.3    16  PRO16      -0.2102
      2  CA        30.3850   10.2820   47.7820 C.3    16  PRO16       0.1504
      3  C         29.7670    8.8790   47.7450 C.2    16  PRO16       0.2576
      4  O         28.5700    8.7040   48.0130 O.2    16  PRO16      -0.2718
      5  CB        29.8870   11.1130   46.5850 C.3    16  PRO16       0.0282
      6  CG        30.9650   11.0500   45.5920 C.3    16  PRO16       0.0208
      7  CD        32.2410   10.9440   46.3570 C.3    16  PRO16       0.0893
      8  N         30.5810    7.8890   47.4090 N.am   17  ASP17      -0.1960
      9  CA        30.1250    6.5110   47.3370 C.3    17  ASP17       0.1840
     10  C         30.3840    5.7310   48.6420 C.2    17  ASP17       0.2622
     11  O         29.9370    4.6000   48.7850 O.2    17  ASP17      -0.2715
     12  CB        30.7760    5.8230   46.1300 C.3    17  ASP17       0.1450
     13  CG        32.3450    5.9830   46.1040 C.2    17  ASP17       0.3671
     14  OD1       32.8960    7.0620   46.4820 O.co2  17  ASP17      -0.2456
     15  OD2       33.0460    5.0160   45.6880 O.co2  17  ASP17      -0.2456
     16  N         31.0950    6.3390   49.5910 N.am   18  VAL18      -0.1963
     17  CA        31.5280    5.6510   50.8160 C.3    18  VAL18       0.1727
     18  C         30.7740    6.1100   52.0690 C.2    18  VAL18       0.2616
     19  O         30.8440    7.2650   52.4670 O.2    18  VAL18      -0.2715
     20  CB        33.0440    5.8430   51.0470 C.3    18  VAL18       0.0290
     21  CG1       33.5050    5.0960   52.2850 C.3    18  VAL18       0.0023
     22  CG2       33.8220    5.3970   49.8370 C.3    18  VAL18       0.0023
     23  N         30.0530    5.1990   52.6880 N.am   19  ILE19      -0.1977
     24  CA        29.2990    5.5150   53.8790 C.3    19  ILE19       0.1596
     25  C         30.3080    5.7910   54.9980 C.2    19  ILE19       0.2287
     26  O         31.2060    4.9880   55.2160 O.2    19  ILE19      -0.2864
     27  CB        28.3050    4.3530   54.2340 C.3    19  ILE19       0.0276
     28  CG1       27.4970    4.6720   55.4910 C.3    19  ILE19       0.0022
     29  CG2       29.0430    3.0060   54.3910 C.3    19  ILE19       0.0022
     30  CD1       26.4260    3.6290   55.8060 C.3    19  ILE19       0.0001
     31  N         28.7550   11.9900   50.3430 N.3    82  TRP82      -0.1227
     32  CA        27.9370   10.8470   50.6510 C.3    82  TRP82       0.1737
     33  C         26.6100   11.3430   51.2030 C.2    82  TRP82       0.2595
     34  O         26.5790   12.2310   52.0360 O.2    82  TRP82      -0.2718
     35  CB        28.5980    9.9110   51.6640 C.3    82  TRP82       0.0564
     36  CG        27.6970    8.7640   51.9930 C.ar   82  TRP82       0.0003
     37  CD1       27.5600    7.6140   51.2830 C.ar   82  TRP82       0.0946
     38  CD2       26.7610    8.6780   53.0760 C.ar   82  TRP82       0.0152
     39  NE1       26.6350    6.8080   51.8640 N.ar   82  TRP82      -0.2442
     40  CE2       26.1230    7.4330   52.9680 C.ar   82  TRP82       0.0810
     41  CE3       26.4140    9.5270   54.1370 C.ar   82  TRP82       0.0012
     42  CZ2       25.1630    7.0000   53.8860 C.ar   82  TRP82       0.0191
     43  CZ3       25.4520    9.0980   55.0520 C.ar   82  TRP82       0.0001
     44  CH2       24.8370    7.8420   54.9110 C.ar   82  TRP82       0.0015
     45  N         25.5210   10.7440   50.7480 N.am   83  VAL83      -0.1966
     46  CA        24.1880   11.0990   51.2150 C.3    83  VAL83       0.1712
     47  C         23.4420    9.8000   51.4750 C.2    83  VAL83       0.2458
     48  O         23.5670    8.8530   50.7130 O.2    83  VAL83      -0.2730
     49  CB        23.4530   11.9360   50.1480 C.3    83  VAL83       0.0289
     50  CG1       21.9560   11.8560   50.3120 C.3    83  VAL83       0.0023
     51  CG2       23.9160   13.3710   50.2270 C.3    83  VAL83       0.0023
     52  N         22.6860    9.7300   52.5690 N.am   84  PRO84      -0.2716
     53  CA        21.9920    8.4630   52.8710 C.3    84  PRO84       0.1536
     54  C         20.9480    8.1070   51.8220 C.2    84  PRO84       0.2598
     55  O         20.3070    9.0050   51.2860 O.2    84  PRO84      -0.2715
     56  CB        21.3390    8.7230   54.2350 C.3    84  PRO84       0.0310
     57  CG        21.3830   10.2350   54.4310 C.3    84  PRO84       0.0237
     58  CD        22.5610   10.7300   53.6440 C.3    84  PRO84       0.0939
     59  N         20.7940    6.8170   51.5230 N.am   85  ASP85      -0.1972
     60  CA        19.8580    6.3470   50.4900 C.3    85  ASP85       0.1709
     61  C         18.4560    6.1310   51.0640 C.2    85  ASP85       0.2293
     62  O         17.9450    5.0080   51.0950 O.2    85  ASP85      -0.2864
     63  CB        20.3560    5.0470   49.8460 C.3    85  ASP85       0.1436
     64  CG        20.5770    3.9090   50.8740 C.2    85  ASP85       0.3671
     65  OD1       20.7960    4.1990   52.0780 O.co2  85  ASP85      -0.2456
     66  OD2       20.5360    2.7210   50.4720 O.co2  85  ASP85      -0.2456
     67  N         19.1930    0.2470   51.1820 N.3   144  THR144     -0.1203
     68  CA        20.1320   -0.8670   51.1030 C.3   144  THR144      0.1994
     69  C         21.0770   -1.0370   52.2870 C.2   144  THR144      0.2617
     70  O         21.8760   -1.9750   52.2960 O.2   144  THR144     -0.2717
     71  CB        21.0340   -0.7620   49.8620 C.3   144  THR144      0.1784
     72  OG1       21.9080    0.3640   50.0130 O.3   144  THR144     -0.2211
     73  CG2       20.1990   -0.6240   48.5830 C.3   144  THR144      0.0376
     74  N         21.0060   -0.1520   53.2760 N.am  145  HIS145     -0.1975
     75  CA        21.8670   -0.2910   54.4540 C.3   145  HIS145      0.1656
     76  C         21.0980   -0.7300   55.6830 C.2   145  HIS145      0.2291
     77  O         20.1380   -0.0600   56.0960 O.2   145  HIS145     -0.2864
     78  CB        22.5800    1.0150   54.7610 C.3   145  HIS145      0.0771
     79  CG        23.5620    1.4250   53.7200 C.ar  145  HIS145      0.0820
     80  ND1       24.8510    0.9120   53.6680 N.ar  145  HIS145     -0.2267
     81  CD2       23.4630    2.3020   52.6980 C.ar  145  HIS145      0.1154
     82  CE1       25.4940    1.4610   52.6590 C.ar  145  HIS145      0.1986
     83  NE2       24.6800    2.3090   52.0490 N.ar  145  HIS145     -0.2212
     84  N         24.7530   -0.4570   59.8530 N.3   149  GLU149     -0.1245
     85  CA        25.4520    0.5150   59.0010 C.3   149  GLU149      0.1567
     86  C         24.7970    1.8990   59.0850 C.2   149  GLU149      0.2260
     87  O         25.4710    2.9200   59.1340 O.2   149  GLU149     -0.2867
     88  CB        25.5150    0.0230   57.5390 C.3   149  GLU149      0.0388
     89  CG        26.3040   -1.2590   57.3630 C.3   149  GLU149      0.1160
     90  CD        26.2790   -1.8310   55.9390 C.2   149  GLU149      0.3649
     91  OE1       25.5360   -1.3220   55.0610 O.co2 149  GLU149     -0.2457
     92  OE2       27.0220   -2.8110   55.7020 O.co2 149  GLU149     -0.2457
@<TRIPOS>BOND
     1     6     7    1
     2     6     5    1
     3    15    13   ar
     4    13    12    1
     5    13    14   ar
     6    12     9    1
     7     7     1    1
     8     5     2    1
     9     9     8    1
    10     9    10    1
    11     8     3   am
    12     1     2    1
    13     3     2    1
    14     3     4    2
    15    73    71    1
    16    10    11    2
    17    10    16   am
    18    16    17    1
    19    22    20    1
    20    63    60    1
    21    63    64    1
    22    71    72    1
    23    71    68    1
    24    49    51    1
    25    49    50    1
    26    49    46    1
    27    31    32    1
    28    66    64   ar
    29    60    61    1
    30    60    59    1
    31    32    33    1
    32    32    35    1
    33    48    47    2
    34    45    33   am
    35    45    46    1
    36    17    20    1
    37    17    18    1
    38    64    65   ar
    39    20    21    1
    40    61    62    2
    41    68    67    1
    42    68    69    1
    43    33    34    2
    44    46    47    1
    45    37    39   ar
    46    37    36   ar
    47    55    54    2
    48    47    52   am
    49    59    54   am
    50    35    36    1
    51    54    53    1
    52    39    40   ar
    53    36    38   ar
    54    83    82   ar
    55    83    81   ar
    56    18    19    2
    57    18    23   am
    58    69    70    2
    59    69    74   am
    60    52    53    1
    61    52    58    1
    62    82    80   ar
    63    23    24    1
    64    81    79   ar
    65    53    56    1
    66    40    38   ar
    67    40    42   ar
    68    38    41   ar
    69    74    75    1
    70    58    57    1
    71    80    79   ar
    72    79    78    1
    73    24    27    1
    74    24    25    1
    75    42    44   ar
    76    41    43   ar
    77    27    29    1
    78    27    28    1
    79    56    57    1
    80    75    78    1
    81    75    76    1
    82    44    43   ar
    83    25    26    2
    84    91    90   ar
    85    28    30    1
    86    76    77    2
    87    92    90   ar
    88    90    89    1
    89    89    88    1
    90    88    85    1
    91    85    86    1
    92    85    84    1
    93    86    87    2
