@<TRIPOS>MOLECULE
tmp/3wiqA00.pdb
 143 139 0 0 0
SMALL
GASTEIGER

@<TRIPOS>ATOM
      1  N        -49.0610  -72.0580  -15.4660 N.3   329  ALA329     -0.1245
      2  CA       -47.6930  -71.6370  -15.3260 C.3   329  ALA329      0.1562
      3  C        -46.6690  -72.7750  -15.3740 C.2   329  ALA329      0.2260
      4  O        -45.4860  -72.5110  -15.7070 O.2   329  ALA329     -0.2867
      5  CB       -47.5230  -70.8030  -14.0620 C.3   329  ALA329      0.0290
      6  N        -47.9320  -73.6460   -8.6600 N.3   337  TYR337     -0.1241
      7  CA       -48.9710  -72.6590   -9.0230 C.3   337  TYR337      0.1605
      8  C        -50.2760  -73.3590   -9.4080 C.2   337  TYR337      0.2264
      9  O        -51.1890  -72.7730   -9.9930 O.2   337  TYR337     -0.2867
     10  CB       -48.4710  -71.8070  -10.1800 C.3   337  TYR337      0.0534
     11  CG       -47.2700  -70.9400   -9.8450 C.ar  337  TYR337     -0.0201
     12  CD1      -47.2820  -70.1220   -8.7390 C.ar  337  TYR337     -0.0009
     13  CD2      -46.1360  -70.8950  -10.6780 C.ar  337  TYR337     -0.0009
     14  CE1      -46.2270  -69.2760   -8.4700 C.ar  337  TYR337      0.0417
     15  CE2      -45.0580  -70.0860  -10.3880 C.ar  337  TYR337      0.0417
     16  CZ       -45.1360  -69.2810   -9.2860 C.ar  337  TYR337      0.1957
     17  OH       -44.1280  -68.4510   -8.9520 O.3   337  TYR337     -0.2866
     18  N        -51.7170  -67.6770  -15.8870 N.3   342  PHE342     -0.1227
     19  CA       -51.2930  -66.2930  -15.6340 C.3   342  PHE342      0.1736
     20  C        -51.0730  -65.5580  -16.9500 C.2   342  PHE342      0.2595
     21  O        -51.1270  -66.1490  -18.0420 O.2   342  PHE342     -0.2718
     22  CB       -49.9750  -66.2420  -14.8470 C.3   342  PHE342      0.0547
     23  CG       -49.9720  -66.9760  -13.5060 C.ar  342  PHE342     -0.0202
     24  CD1      -49.7180  -66.2660  -12.3180 C.ar  342  PHE342     -0.0042
     25  CD2      -50.1350  -68.3590  -13.4230 C.ar  342  PHE342     -0.0042
     26  CE1      -49.6560  -66.8690  -11.0840 C.ar  342  PHE342     -0.0003
     27  CE2      -50.0790  -68.9800  -12.1660 C.ar  342  PHE342     -0.0003
     28  CZ       -49.8400  -68.2240  -10.9910 C.ar  342  PHE342     -0.0000
     29  N        -50.7350  -64.2800  -16.8430 N.am  343  TRP343     -0.1962
     30  CA       -50.2020  -63.5770  -18.0120 C.3   343  TRP343      0.1771
     31  C        -49.0330  -64.3050  -18.7200 C.2   343  TRP343      0.2619
     32  O        -48.8930  -64.2090  -19.9470 O.2   343  TRP343     -0.2715
     33  CB       -49.8280  -62.1770  -17.6370 C.3   343  TRP343      0.0590
     34  CG       -48.5330  -62.0540  -17.0000 C.ar  343  TRP343      0.0006
     35  CD1      -48.0580  -62.8000  -15.9900 C.ar  343  TRP343      0.0946
     36  CD2      -47.5360  -61.0710  -17.2870 C.ar  343  TRP343      0.0152
     37  NE1      -46.8290  -62.3710  -15.6170 N.ar  343  TRP343     -0.2442
     38  CE2      -46.4620  -61.3160  -16.4020 C.ar  343  TRP343      0.0810
     39  CE3      -47.4300  -60.0250  -18.2300 C.ar  343  TRP343      0.0012
     40  CZ2      -45.2910  -60.5550  -16.4060 C.ar  343  TRP343      0.0191
     41  CZ3      -46.2590  -59.2650  -18.2470 C.ar  343  TRP343      0.0001
     42  CH2      -45.2080  -59.5290  -17.3290 C.ar  343  TRP343      0.0015
     43  N        -48.2200  -65.0600  -17.9810 N.am  344  ASP344     -0.1971
     44  CA       -47.2810  -66.0030  -18.6100 C.3   344  ASP344      0.1709
     45  C        -47.8040  -66.5250  -19.9640 C.2   344  ASP344      0.2293
     46  O        -47.1080  -66.6190  -20.9730 O.2   344  ASP344     -0.2864
     47  CB       -47.0960  -67.2730  -17.7540 C.3   344  ASP344      0.1436
     48  CG       -46.5530  -67.0130  -16.3600 C.2   344  ASP344      0.3671
     49  OD1      -45.7790  -67.9200  -15.8660 O.co2 344  ASP344     -0.2456
     50  OD2      -46.9420  -65.9610  -15.7570 O.co2 344  ASP344     -0.2456
     51  N        -55.9960  -62.3630  -11.8870 N.3   391  TRP391     -0.1227
     52  CA       -54.5810  -62.6380  -11.9350 C.3   391  TRP391      0.1737
     53  C        -54.2780  -64.1460  -12.0640 C.2   391  TRP391      0.2595
     54  O        -53.5300  -64.5580  -12.9410 O.2   391  TRP391     -0.2718
     55  CB       -53.8730  -61.9910  -10.7320 C.3   391  TRP391      0.0564
     56  CG       -52.3940  -62.2180  -10.7430 C.ar  391  TRP391      0.0003
     57  CD1      -51.7020  -63.0520   -9.9360 C.ar  391  TRP391      0.0946
     58  CD2      -51.4350  -61.6600  -11.6500 C.ar  391  TRP391      0.0152
     59  NE1      -50.3750  -63.0210  -10.2330 N.ar  391  TRP391     -0.2442
     60  CE2      -50.1730  -62.1830  -11.2890 C.ar  391  TRP391      0.0810
     61  CE3      -51.5070  -60.7350  -12.6950 C.ar  391  TRP391      0.0012
     62  CZ2      -48.9970  -61.8290  -11.9490 C.ar  391  TRP391      0.0191
     63  CZ3      -50.3350  -60.3960  -13.3600 C.ar  391  TRP391      0.0001
     64  CH2      -49.1060  -60.9450  -12.9960 C.ar  391  TRP391      0.0015
     65  N        -54.8490  -64.9820  -11.2110 N.am  392  GLU392     -0.1979
     66  CA       -54.7510  -66.4530  -11.4150 C.3   392  GLU392      0.1602
     67  C        -56.0970  -66.9640  -11.8260 C.2   392  GLU392      0.2287
     68  O        -57.0800  -66.5800  -11.2140 O.2   392  GLU392     -0.2864
     69  CB       -54.2500  -67.1310  -10.1420 C.3   392  GLU392      0.0415
     70  CG       -52.7700  -66.8510   -9.9190 C.3   392  GLU392      0.1163
     71  CD       -52.2090  -67.4630   -8.6730 C.2   392  GLU392      0.3649
     72  OE1      -52.6000  -68.6160   -8.4000 O.co2 392  GLU392     -0.2457
     73  OE2      -51.3740  -66.7950   -7.9920 O.co2 392  GLU392     -0.2457
     74  N        -53.9490  -67.0990   -4.0780 N.3   402  PRO402     -0.2116
     75  CA       -53.8750  -67.2720   -2.6370 C.3   402  PRO402      0.1372
     76  C        -53.8390  -65.9550   -1.9120 C.2   402  PRO402      0.2244
     77  O        -53.1700  -65.0560   -2.3610 O.2   402  PRO402     -0.2868
     78  CB       -52.5230  -67.9220   -2.4410 C.3   402  PRO402      0.0268
     79  CG       -52.1850  -68.5840   -3.7250 C.3   402  PRO402      0.0207
     80  CD       -52.9670  -67.9300   -4.7960 C.3   402  PRO402      0.0892
     81  N        -50.4350  -61.9010    0.2930 N.3   415  ILE415     -0.1245
     82  CA       -50.2110  -61.8620   -1.1250 C.3   415  ILE415      0.1561
     83  C        -51.2580  -60.9330   -1.6740 C.2   415  ILE415      0.2260
     84  O        -52.4440  -61.1760   -1.5280 O.2   415  ILE415     -0.2867
     85  CB       -50.3200  -63.2590   -1.7560 C.3   415  ILE415      0.0252
     86  CG1      -49.0500  -64.0870   -1.5060 C.3   415  ILE415      0.0019
     87  CG2      -50.4400  -63.1500   -3.2630 C.3   415  ILE415      0.0019
     88  CD1      -49.1870  -65.6070   -1.7090 C.3   415  ILE415      0.0001
     89  N        -51.1600  -59.9530   -5.0510 N.3   417  THR417     -0.1218
     90  CA       -51.1430  -59.9370   -6.5090 C.3   417  THR417      0.1862
     91  C        -52.5700  -60.0590   -7.0650 C.2   417  THR417      0.2287
     92  O        -52.9070  -59.4110   -8.0530 O.2   417  THR417     -0.2866
     93  CB       -50.2780  -61.0460   -7.1350 C.3   417  THR417      0.1770
     94  OG1      -50.7520  -62.3150   -6.7340 O.3   417  THR417     -0.2211
     95  CG2      -48.8700  -60.9200   -6.7060 C.3   417  THR417      0.0375
     96  N        -45.1550  -55.7240  -13.1840 N.3   481  PRO481     -0.2116
     97  CA       -44.4310  -56.9900  -13.3800 C.3   481  PRO481      0.1372
     98  C        -43.4370  -57.3780  -12.3240 C.2   481  PRO481      0.2244
     99  O        -43.2480  -58.5910  -12.1000 O.2   481  PRO481     -0.2868
    100  CB       -43.7700  -56.8030  -14.7280 C.3   481  PRO481      0.0268
    101  CG       -44.7930  -56.0140  -15.4960 C.3   481  PRO481      0.0207
    102  CD       -45.5660  -55.1720  -14.4880 C.3   481  PRO481      0.0892
    103  N        -43.0000  -58.0140   -8.9320 N.3   483  GLU483     -0.1245
    104  CA       -43.7500  -58.3980   -7.7350 C.3   483  GLU483      0.1567
    105  C        -43.0230  -57.9360   -6.4700 C.2   483  GLU483      0.2260
    106  O        -43.6340  -57.8500   -5.4240 O.2   483  GLU483     -0.2867
    107  CB       -43.9820  -59.9530   -7.6870 C.3   483  GLU483      0.0388
    108  CG       -45.4180  -60.5070   -7.8680 C.3   483  GLU483      0.1160
    109  CD       -45.7580  -61.1370   -9.2330 C.2   483  GLU483      0.3649
    110  OE1      -45.1000  -60.8570  -10.2770 O.co2 483  GLU483     -0.2457
    111  OE2      -46.7590  -61.8940   -9.2900 O.co2 483  GLU483     -0.2457
    112  N        -37.3820  -57.9400   -9.4820 N.3   596  LYS596     -0.1231
    113  CA       -37.5330  -59.3970   -9.5450 C.3   596  LYS596      0.1693
    114  C        -37.3350  -59.9330  -10.9230 C.2   596  LYS596      0.2591
    115  O        -36.7830  -61.0530  -11.0850 O.2   596  LYS596     -0.2718
    116  CB       -38.9190  -59.7840   -9.0820 C.3   596  LYS596      0.0285
    117  CG       -39.1250  -61.2840   -8.9180 C.3   596  LYS596      0.0035
    118  CD       -40.5000  -61.5330   -8.3350 C.3   596  LYS596      0.0206
    119  CE       -40.8450  -63.0120   -8.2950 C.3   596  LYS596      0.1093
    120  NZ       -42.2990  -63.1000   -7.9280 N.3   596  LYS596     -0.1314
    121  N        -37.7750  -59.1070  -11.8930 N.am  597  GLN597     -0.1979
    122  CA       -37.8220  -59.4180  -13.3330 C.3   597  GLN597      0.1601
    123  C        -38.1060  -58.1760  -14.2480 C.2   597  GLN597      0.2287
    124  O        -38.3300  -57.0480  -13.7860 O.2   597  GLN597     -0.2864
    125  CB       -38.9500  -60.3970  -13.5350 C.3   597  GLN597      0.0394
    126  CG       -40.3470  -59.8160  -13.1950 C.3   597  GLN597      0.0908
    127  CD       -41.3520  -60.9090  -12.9060 C.2   597  GLN597      0.2608
    128  OE1      -41.4000  -61.4440  -11.8080 O.2   597  GLN597     -0.2717
    129  NE2      -42.1260  -61.2760  -13.9010 N.am  597  GLN597     -0.0878
    130  N        -37.6820  -64.3880  -11.0390 N.3   631  SER631     -0.1217
    131  CA       -38.6070  -65.1900  -11.8450 C.3   631  SER631      0.1889
    132  C        -37.9370  -65.7500  -13.0860 C.2   631  SER631      0.2288
    133  O        -37.0680  -65.1280  -13.6890 O.2   631  SER631     -0.2866
    134  CB       -39.8020  -64.3500  -12.3020 C.3   631  SER631      0.2089
    135  OG       -40.5950  -65.1070  -13.1990 O.3   631  SER631     -0.2183
    136  N        -39.2570  -65.8130  -15.7770 N.3   633  LEU633     -0.1245
    137  CA       -39.7190  -64.9450  -16.8490 C.3   633  LEU633      0.1561
    138  C        -38.6480  -63.9420  -17.2800 C.2   633  LEU633      0.2260
    139  O        -38.7750  -63.3220  -18.3150 O.2   633  LEU633     -0.2867
    140  CB       -40.9740  -64.1560  -16.3960 C.3   633  LEU633      0.0270
    141  CG       -42.3180  -64.8430  -16.5640 C.3   633  LEU633      0.0019
    142  CD1      -42.3650  -66.2150  -15.8750 C.3   633  LEU633      0.0001
    143  CD2      -43.4070  -63.9020  -16.0450 C.3   633  LEU633      0.0001
@<TRIPOS>BOND
     1    46    45    2
     2    45    44    1
     3    32    31    2
     4    31    30    1
     5    31    43   am
     6    44    43    1
     7    44    47    1
     8   139   138    2
     9    41    39   ar
    10    41    42   ar
    11    39    36   ar
    12    21    20    2
    13    30    33    1
    14    30    29    1
    15    47    48    1
    16    33    34    1
    17    42    40   ar
    18    36    34   ar
    19    36    38   ar
    20   138   137    1
    21    34    35   ar
    22    20    29   am
    23    20    19    1
    24   137   140    1
    25   137   136    1
    26   141   140    1
    27   141   143    1
    28   141   142    1
    29    40    38   ar
    30    38    37   ar
    31    48    49   ar
    32    48    50   ar
    33    35    37   ar
    34    18    19    1
    35     4     3    2
    36    19    22    1
    37   101   100    1
    38   101   102    1
    39     1     2    1
    40     3     2    1
    41     2     5    1
    42    22    23    1
    43   100    97    1
    44   102    96    1
    45   123   124    2
    46   123   122    1
    47   129   127   am
    48   133   132    2
    49   125   122    1
    50   125   126    1
    51    23    25   ar
    52    23    24   ar
    53    25    27   ar
    54    97    96    1
    55    97    98    1
    56    63    64   ar
    57    63    61   ar
    58   122   121    1
    59   135   134    1
    60   126   127    1
    61   132   131    1
    62    64    62   ar
    63    54    53    2
    64   127   128    2
    65    61    58   ar
    66    98    99    2
    67    24    26   ar
    68   134   131    1
    69    27    28   ar
    70    53    52    1
    71    53    65   am
    72    62    60   ar
    73    52    51    1
    74    52    55    1
    75   121   114   am
    76   131   130    1
    77    67    66    1
    78    67    68    2
    79    58    60   ar
    80    58    56   ar
    81    66    65    1
    82    66    69    1
    83    60    59   ar
    84   115   114    2
    85    26    28   ar
    86   114   113    1
    87    56    55    1
    88    56    57   ar
    89    13    15   ar
    90    13    11   ar
    91    15    16   ar
    92   110   109   ar
    93    59    57   ar
    94    10    11    1
    95    10     7    1
    96    69    70    1
    97     9     8    2
    98    70    71    1
    99    11    12   ar
   100   113   112    1
   101   113   116    1
   102     8     7    1
   103   111   109   ar
   104    16    17    1
   105    16    14   ar
   106   109   108    1
   107   116   117    1
   108     7     6    1
   109   103   104    1
   110   117   118    1
   111    12    14   ar
   112    71    72   ar
   113    71    73   ar
   114   118   119    1
   115   119   120    1
   116    92    91    2
   117   108   107    1
   118   104   107    1
   119   104   105    1
   120    93    94    1
   121    93    95    1
   122    93    90    1
   123    91    90    1
   124    90    89    1
   125   105   106    2
   126    80    74    1
   127    80    79    1
   128    74    75    1
   129    79    78    1
   130    87    85    1
   131    75    78    1
   132    75    76    1
   133    77    76    2
   134    85    86    1
   135    85    82    1
   136    88    86    1
   137    83    84    2
   138    83    82    1
   139    82    81    1
