@<TRIPOS>MOLECULE
tmp/3wirB00.pdb
 136 134 0 0 0
SMALL
GASTEIGER

@<TRIPOS>ATOM
      1  N         -3.5790    7.7210   25.9100 N.3   329  ALA329     -0.1245
      2  CA        -4.2920    8.7440   26.7270 C.3   329  ALA329      0.1562
      3  C         -5.2350    9.6380   25.9140 C.2   329  ALA329      0.2260
      4  O         -6.1140   10.2480   26.4730 O.2   329  ALA329     -0.2867
      5  CB        -3.2810    9.5970   27.4120 C.3   329  ALA329      0.0290
      6  N          0.2070   13.5790   24.1340 N.3   337  TYR337     -0.1241
      7  CA         0.9330   12.4540   24.7840 C.3   337  TYR337      0.1605
      8  C          1.4130   11.3440   23.8110 C.2   337  TYR337      0.2264
      9  O          1.7750   10.2570   24.2630 O.2   337  TYR337     -0.2867
     10  CB         0.1430   11.8070   25.9160 C.3   337  TYR337      0.0534
     11  CG        -0.2050   12.7620   27.1160 C.ar  337  TYR337     -0.0201
     12  CD1        0.7660   13.4810   27.7450 C.ar  337  TYR337     -0.0009
     13  CD2       -1.4980   12.8990   27.5680 C.ar  337  TYR337     -0.0009
     14  CE1        0.4770   14.3470   28.8220 C.ar  337  TYR337      0.0417
     15  CE2       -1.8270   13.7430   28.6220 C.ar  337  TYR337      0.0417
     16  CZ        -0.8070   14.4850   29.2540 C.ar  337  TYR337      0.1957
     17  OH        -1.0730   15.3590   30.2810 O.3   337  TYR337     -0.2866
     18  N         -1.0410    4.7880   29.3380 N.3   342  PHE342     -0.1227
     19  CA        -0.8120    5.0150   30.7700 C.3   342  PHE342      0.1736
     20  C         -1.8390    4.2480   31.5950 C.2   342  PHE342      0.2595
     21  O         -2.7900    3.6270   31.0670 O.2   342  PHE342     -0.2718
     22  CB        -1.0190    6.4900   31.1410 C.3   342  PHE342      0.0547
     23  CG        -0.2050    7.5170   30.3470 C.ar  342  PHE342     -0.0202
     24  CD1        0.6640    8.3570   31.0140 C.ar  342  PHE342     -0.0042
     25  CD2       -0.4060    7.7330   28.9560 C.ar  342  PHE342     -0.0042
     26  CE1        1.3540    9.3430   30.3540 C.ar  342  PHE342     -0.0003
     27  CE2        0.2910    8.7270   28.2830 C.ar  342  PHE342     -0.0003
     28  CZ         1.1690    9.5610   28.9800 C.ar  342  PHE342     -0.0000
     29  N         -1.7120    4.3660   32.9170 N.am  343  TRP343     -0.1962
     30  CA        -2.7070    3.8630   33.8200 C.3   343  TRP343      0.1771
     31  C         -4.1350    4.3720   33.5560 C.2   343  TRP343      0.2619
     32  O         -5.1100    3.7560   34.0120 O.2   343  TRP343     -0.2715
     33  CB        -2.3560    4.1860   35.2930 C.3   343  TRP343      0.0590
     34  CG        -2.6340    5.5500   35.7220 C.ar  343  TRP343      0.0006
     35  CD1       -2.2630    6.6790   35.1290 C.ar  343  TRP343      0.0946
     36  CD2       -3.2340    5.9390   36.9990 C.ar  343  TRP343      0.0152
     37  NE1       -2.6780    7.7950   35.8840 N.ar  343  TRP343     -0.2442
     38  CE2       -3.2440    7.3460   37.0500 C.ar  343  TRP343      0.0810
     39  CE3       -3.7410    5.2240   38.0870 C.ar  343  TRP343      0.0012
     40  CZ2       -3.7520    8.0350   38.1070 C.ar  343  TRP343      0.0191
     41  CZ3       -4.2500    5.9270   39.1490 C.ar  343  TRP343      0.0001
     42  CH2       -4.2560    7.3310   39.1390 C.ar  343  TRP343      0.0015
     43  N         -4.2580    5.4970   32.8700 N.am  344  ASP344     -0.1971
     44  CA        -5.5500    5.9610   32.2790 C.3   344  ASP344      0.1709
     45  C         -6.3960    4.7910   31.7450 C.2   344  ASP344      0.2293
     46  O         -7.5890    4.6670   31.9990 O.2   344  ASP344     -0.2864
     47  CB        -5.3040    6.9020   31.0920 C.3   344  ASP344      0.1436
     48  CG        -4.5190    8.1960   31.4770 C.2   344  ASP344      0.3671
     49  OD1       -4.7420    9.2430   30.8160 O.co2 344  ASP344     -0.2456
     50  OD2       -3.6470    8.1140   32.3750 O.co2 344  ASP344     -0.2456
     51  N          5.7530    3.8210   32.9910 N.3   391  TRP391     -0.1241
     52  CA         4.7350    4.8600   33.1200 C.3   391  TRP391      0.1605
     53  C          4.0310    5.1130   31.7410 C.2   391  TRP391      0.2264
     54  O          2.8400    5.2830   31.6560 O.2   391  TRP391     -0.2867
     55  CB         5.3570    6.1660   33.6830 C.3   391  TRP391      0.0550
     56  CG         4.2930    7.2120   33.8960 C.ar  391  TRP391      0.0003
     57  CD1        4.1230    8.3550   33.2310 C.ar  391  TRP391      0.0946
     58  CD2        3.2040    7.1190   34.8240 C.ar  391  TRP391      0.0152
     59  NE1        3.0160    9.0230   33.6940 N.ar  391  TRP391     -0.2442
     60  CE2        2.4180    8.2790   34.6580 C.ar  391  TRP391      0.0810
     61  CE3        2.8150    6.1610   35.7690 C.ar  391  TRP391      0.0012
     62  CZ2        1.2560    8.5020   35.3610 C.ar  391  TRP391      0.0191
     63  CZ3        1.6660    6.3860   36.4880 C.ar  391  TRP391      0.0001
     64  CH2        0.8930    7.5590   36.2600 C.ar  391  TRP391      0.0015
     65  N          7.3560    7.3990   39.0790 N.3   421  GLU421     -0.1245
     66  CA         5.8930    7.2190   39.2550 C.3   421  GLU421      0.1567
     67  C          5.5630    5.7600   39.0800 C.2   421  GLU421      0.2260
     68  O          5.1330    5.3220   37.9790 O.2   421  GLU421     -0.2867
     69  CB         5.0490    8.0840   38.3180 C.3   421  GLU421      0.0388
     70  CG         3.5980    8.1200   38.7730 C.3   421  GLU421      0.1160
     71  CD         2.7780    9.2190   38.1300 C.2   421  GLU421      0.3649
     72  OE1        3.3140   10.0200   37.3130 O.co2 421  GLU421     -0.2457
     73  OE2        1.6090    9.3250   38.5500 O.co2 421  GLU421     -0.2457
     74  N         -0.2810    9.4900   42.4330 N.3   481  PRO481     -0.2116
     75  CA        -1.2180   10.0440   41.5010 C.3   481  PRO481      0.1372
     76  C         -1.2310   11.5510   41.4190 C.2   481  PRO481      0.2244
     77  O         -1.3110   12.1420   40.2920 O.2   481  PRO481     -0.2868
     78  CB        -2.5650    9.4590   41.9800 C.3   481  PRO481      0.0268
     79  CG        -2.1790    8.1640   42.5710 C.3   481  PRO481      0.0207
     80  CD        -0.8830    8.4670   43.2840 C.3   481  PRO481      0.0892
     81  N          0.7140   14.2960   40.8130 N.3   483  GLU483     -0.1245
     82  CA         2.0290   14.5830   40.2340 C.3   483  GLU483      0.1567
     83  C          2.5680   15.9540   40.5970 C.2   483  GLU483      0.2260
     84  O          3.7050   16.2270   40.2830 O.2   483  GLU483     -0.2867
     85  CB         2.0020   14.4700   38.6840 C.3   483  GLU483      0.0388
     86  CG         1.6730   13.0880   38.1570 C.3   483  GLU483      0.1160
     87  CD         1.8030   12.9610   36.6280 C.2   483  GLU483      0.3649
     88  OE1        1.9650   11.8190   36.1500 O.co2 483  GLU483     -0.2457
     89  OE2        1.7590   14.0100   35.9490 O.co2 483  GLU483     -0.2457
     90  N         -3.1720   17.8220   42.4280 N.3   596  LYS596     -0.1231
     91  CA        -3.5470   17.9340   40.9910 C.3   596  LYS596      0.1693
     92  C         -4.8240   17.1710   40.7700 C.2   596  LYS596      0.2591
     93  O         -5.7520   17.6650   40.1290 O.2   596  LYS596     -0.2718
     94  CB        -2.3740   17.4380   40.1520 C.3   596  LYS596      0.0285
     95  CG        -2.5490   17.2300   38.6320 C.3   596  LYS596      0.0035
     96  CD        -1.2840   16.6090   38.0330 C.3   596  LYS596      0.0206
     97  CE        -1.2940   16.9230   36.5420 C.3   596  LYS596      0.1093
     98  NZ        -0.2810   16.1980   35.7790 N.3   596  LYS596     -0.1314
     99  N         -4.8880   15.9790   41.3460 N.am  597  GLN597     -0.1979
    100  CA        -6.0110   15.0560   41.1560 C.3   597  GLN597      0.1601
    101  C         -6.1960   14.1600   42.3810 C.2   597  GLN597      0.2287
    102  O         -5.4400   14.2980   43.3570 O.2   597  GLN597     -0.2864
    103  CB        -5.7230   14.1120   39.9390 C.3   597  GLN597      0.0394
    104  CG        -4.2930   13.5570   39.9560 C.3   597  GLN597      0.0908
    105  CD        -3.8020   13.1100   38.6030 C.2   597  GLN597      0.2608
    106  OE1       -3.1750   13.8640   37.8710 O.2   597  GLN597     -0.2717
    107  NE2       -4.1510   11.8910   38.2440 N.am  597  GLN597     -0.0878
    108  N         -6.4190   19.6750   38.0040 N.3   630  LYS630     -0.1231
    109  CA        -5.5560   20.0400   36.8890 C.3   630  LYS630      0.1693
    110  C         -5.1930   18.8360   35.9900 C.2   630  LYS630      0.2593
    111  O         -4.2990   18.8950   35.1310 O.2   630  LYS630     -0.2718
    112  CB        -4.3110   20.7980   37.3880 C.3   630  LYS630      0.0285
    113  CG        -4.6540   22.2400   37.8140 C.3   630  LYS630      0.0035
    114  CD        -4.4480   23.2350   36.6820 C.3   630  LYS630      0.0206
    115  CE        -5.2380   24.5050   36.9040 C.3   630  LYS630      0.1093
    116  NZ        -5.4740   25.1380   35.5830 N.3   630  LYS630     -0.1314
    117  N         -5.9140   17.7490   36.2020 N.am  631  SER631     -0.1938
    118  CA        -5.9790   16.6660   35.2500 C.3   631  SER631      0.2055
    119  C         -7.4350   16.4700   34.9250 C.2   631  SER631      0.2644
    120  O         -8.2960   16.5660   35.8020 O.2   631  SER631     -0.2714
    121  CB        -5.4120   15.3900   35.8960 C.3   631  SER631      0.2130
    122  OG        -5.4400   14.2590   35.0630 O.3   631  SER631     -0.2179
    123  N         -7.7110   16.0900   33.6910 N.am  632  SER632     -0.1935
    124  CA        -9.0180   15.5680   33.3090 C.3   632  SER632      0.2055
    125  C         -9.4060   14.2840   34.0670 C.2   632  SER632      0.2642
    126  O        -10.5670   13.9550   34.1180 O.2   632  SER632     -0.2714
    127  CB        -9.0410   15.3120   31.7880 C.3   632  SER632      0.2130
    128  OG        -8.1640   14.2740   31.5120 O.3   632  SER632     -0.2179
    129  N         -8.4530   13.5920   34.6860 N.am  633  LEU633     -0.1977
    130  CA        -8.7300   12.3850   35.5050 C.3   633  LEU633      0.1596
    131  C         -9.4310   12.6820   36.8100 C.2   633  LEU633      0.2287
    132  O        -10.0810   11.7790   37.3930 O.2   633  LEU633     -0.2864
    133  CB        -7.4100   11.6370   35.8810 C.3   633  LEU633      0.0297
    134  CG        -6.8460   10.7290   34.7580 C.3   633  LEU633      0.0022
    135  CD1       -6.5510   11.5700   33.5380 C.3   633  LEU633      0.0001
    136  CD2       -5.5620   10.0400   35.1870 C.3   633  LEU633      0.0001
@<TRIPOS>BOND
     1     8     9    2
     2     8     7    1
     3     6     7    1
     4     7    10    1
     5     1     2    1
     6     3     4    2
     7     3     2    1
     8    10    11    1
     9     2     5    1
    10    11    13   ar
    11    11    12   ar
    12    13    15   ar
    13    12    14   ar
    14    27    25   ar
    15    27    28   ar
    16    15    16   ar
    17    14    16   ar
    18    25    23   ar
    19    28    26   ar
    20    16    17    1
    21    18    19    1
    22    23    24   ar
    23    23    22    1
    24    26    24   ar
    25    19    22    1
    26    19    20    1
    27    49    48   ar
    28    21    20    2
    29    47    48    1
    30    47    44    1
    31    48    50   ar
    32   128   127    1
    33    20    29   am
    34    54    53    2
    35    53    52    1
    36    45    46    2
    37    45    44    1
    38   127   124    1
    39    44    43    1
    40    43    31   am
    41    29    30    1
    42    51    52    1
    43    52    55    1
    44    57    59   ar
    45    57    56   ar
    46   124   123    1
    47   124   125    1
    48   135   134    1
    49    31    30    1
    50    31    32    2
    51    55    56    1
    52   123   119   am
    53    59    60   ar
    54    30    33    1
    55    56    58   ar
    56   125   126    2
    57   125   129   am
    58    60    58   ar
    59    60    62   ar
    60   129   130    1
    61   134   136    1
    62   134   133    1
    63    58    61   ar
    64   119   118    1
    65   119   120    2
    66   122   121    1
    67    35    34   ar
    68    35    37   ar
    69   111   110    2
    70   118   121    1
    71   118   117    1
    72    33    34    1
    73    62    64   ar
    74   130   133    1
    75   130   131    1
    76   116   115    1
    77    34    36   ar
    78    61    63   ar
    79    98    97    1
    80    37    38   ar
    81    89    87   ar
    82   110   117   am
    83   110   109    1
    84    88    87   ar
    85    64    63   ar
    86    97    96    1
    87    87    86    1
    88   114   115    1
    89   114   113    1
    90   131   132    2
    91   109   112    1
    92   109   108    1
    93    36    38   ar
    94    36    39   ar
    95    38    40   ar
    96    72    71   ar
    97   112   113    1
    98   106   105    2
    99    68    67    2
   100    96    95    1
   101    39    41   ar
   102    40    42   ar
   103    71    73   ar
   104    71    70    1
   105    86    85    1
   106   107   105   am
   107    69    70    1
   108    69    66    1
   109   105   104    1
   110    95    94    1
   111    85    82    1
   112    65    66    1
   113    67    66    1
   114    42    41   ar
   115   103   104    1
   116   103   100    1
   117    93    92    2
   118    94    91    1
   119    82    83    1
   120    82    81    1
   121    84    83    2
   122    77    76    2
   123    92    91    1
   124    92    99   am
   125    91    90    1
   126   100    99    1
   127   100   101    1
   128    76    75    1
   129    75    78    1
   130    75    74    1
   131    78    79    1
   132   101   102    2
   133    74    80    1
   134    79    80    1
