@<TRIPOS>MOLECULE
tmp/3wirB01.pdb
 93 90 0 0 0
SMALL
GASTEIGER

@<TRIPOS>ATOM
      1  N          0.2070   13.5790   24.1340 N.3   337  TYR337     -0.1241
      2  CA         0.9330   12.4540   24.7840 C.3   337  TYR337      0.1605
      3  C          1.4130   11.3440   23.8110 C.2   337  TYR337      0.2264
      4  O          1.7750   10.2570   24.2630 O.2   337  TYR337     -0.2867
      5  CB         0.1430   11.8070   25.9160 C.3   337  TYR337      0.0534
      6  CG        -0.2050   12.7620   27.1160 C.ar  337  TYR337     -0.0201
      7  CD1        0.7660   13.4810   27.7450 C.ar  337  TYR337     -0.0009
      8  CD2       -1.4980   12.8990   27.5680 C.ar  337  TYR337     -0.0009
      9  CE1        0.4770   14.3470   28.8220 C.ar  337  TYR337      0.0417
     10  CE2       -1.8270   13.7430   28.6220 C.ar  337  TYR337      0.0417
     11  CZ        -0.8070   14.4850   29.2540 C.ar  337  TYR337      0.1957
     12  OH        -1.0730   15.3590   30.2810 O.3   337  TYR337     -0.2866
     13  N         -1.0410    4.7880   29.3380 N.3   342  PHE342     -0.1241
     14  CA        -0.8120    5.0150   30.7700 C.3   342  PHE342      0.1605
     15  C         -1.8390    4.2480   31.5950 C.2   342  PHE342      0.2264
     16  O         -2.7900    3.6270   31.0670 O.2   342  PHE342     -0.2867
     17  CB        -1.0190    6.4900   31.1410 C.3   342  PHE342      0.0534
     18  CG        -0.2050    7.5170   30.3470 C.ar  342  PHE342     -0.0203
     19  CD1        0.6640    8.3570   31.0140 C.ar  342  PHE342     -0.0042
     20  CD2       -0.4060    7.7330   28.9560 C.ar  342  PHE342     -0.0042
     21  CE1        1.3540    9.3430   30.3540 C.ar  342  PHE342     -0.0003
     22  CE2        0.2910    8.7270   28.2830 C.ar  342  PHE342     -0.0003
     23  CZ         1.1690    9.5610   28.9800 C.ar  342  PHE342     -0.0000
     24  N          5.7530    3.8210   32.9910 N.3   391  TRP391     -0.1227
     25  CA         4.7350    4.8600   33.1200 C.3   391  TRP391      0.1737
     26  C          4.0310    5.1130   31.7410 C.2   391  TRP391      0.2595
     27  O          2.8400    5.2830   31.6560 O.2   391  TRP391     -0.2718
     28  CB         5.3570    6.1660   33.6830 C.3   391  TRP391      0.0564
     29  CG         4.2930    7.2120   33.8960 C.ar  391  TRP391      0.0003
     30  CD1        4.1230    8.3550   33.2310 C.ar  391  TRP391      0.0946
     31  CD2        3.2040    7.1190   34.8240 C.ar  391  TRP391      0.0152
     32  NE1        3.0160    9.0230   33.6940 N.ar  391  TRP391     -0.2442
     33  CE2        2.4180    8.2790   34.6580 C.ar  391  TRP391      0.0810
     34  CE3        2.8150    6.1610   35.7690 C.ar  391  TRP391      0.0012
     35  CZ2        1.2560    8.5020   35.3610 C.ar  391  TRP391      0.0191
     36  CZ3        1.6660    6.3860   36.4880 C.ar  391  TRP391      0.0001
     37  CH2        0.8930    7.5590   36.2600 C.ar  391  TRP391      0.0015
     38  N          4.7820    5.0980   30.6600 N.am  392  GLU392     -0.1979
     39  CA         4.2420    5.3080   29.3180 C.3   392  GLU392      0.1602
     40  C          4.7250    4.1780   28.3980 C.2   392  GLU392      0.2287
     41  O          5.9410    3.9980   28.2300 O.2   392  GLU392     -0.2864
     42  CB         4.6490    6.6780   28.7750 C.3   392  GLU392      0.0415
     43  CG         3.9440    7.8510   29.4460 C.3   392  GLU392      0.1163
     44  CD         4.3760    9.2420   28.9600 C.2   392  GLU392      0.3649
     45  OE1        4.7900    9.4400   27.7740 O.co2 392  GLU392     -0.2457
     46  OE2        4.2090   10.1820   29.7670 O.co2 392  GLU392     -0.2457
     47  N          8.3990    7.5090   28.4830 N.3   401  THR401     -0.1204
     48  CA         8.0960    8.8050   29.0570 C.3   401  THR401      0.1979
     49  C          9.2750    9.6910   28.6570 C.2   401  THR401      0.2464
     50  O         10.4000    9.2520   28.7810 O.2   401  THR401     -0.2732
     51  CB         8.0220    8.7340   30.6010 C.3   401  THR401      0.1783
     52  OG1        6.9560    7.8720   30.9670 O.3   401  THR401     -0.2211
     53  CG2        7.7170   10.0810   31.2110 C.3   401  THR401      0.0376
     54  N          9.0250   10.8860   28.0960 N.am  402  PRO402     -0.2653
     55  CA        10.1350   11.8550   27.9160 C.3   402  PRO402      0.1628
     56  C         10.8170   12.2090   29.2210 C.2   402  PRO402      0.2315
     57  O         10.1550   12.3020   30.2610 O.2   402  PRO402     -0.2861
     58  CB         9.4460   13.1340   27.4180 C.2   402  PRO402     -0.0016
     59  CG         8.0420   12.8320   27.2070 C.2   402  PRO402     -0.0072
     60  CD         7.7630   11.3880   27.5570 C.3   402  PRO402      0.1203
     61  N         11.3670   15.8820   33.6650 N.3   415  ILE415     -0.1245
     62  CA        10.0730   15.2110   33.9510 C.3   415  ILE415      0.1561
     63  C         10.4890   13.9340   34.6680 C.2   415  ILE415      0.2260
     64  O         11.2890   13.1440   34.1470 O.2   415  ILE415     -0.2867
     65  CB         9.3240   14.7850   32.6440 C.3   415  ILE415      0.0252
     66  CG1        8.7430   15.9970   31.9350 C.3   415  ILE415      0.0019
     67  CG2        8.1960   13.7950   32.9480 C.3   415  ILE415      0.0019
     68  CD1        8.6670   15.8460   30.4400 C.3   415  ILE415      0.0001
     69  N          8.3270   11.6120   35.9510 N.3   417  THR417     -0.1218
     70  CA         7.3180   10.5320   36.0080 C.3   417  THR417      0.1862
     71  C          7.8150    9.1050   35.6110 C.2   417  THR417      0.2287
     72  O          7.5840    8.1200   36.2990 O.2   417  THR417     -0.2866
     73  CB         6.0830   10.9120   35.1940 C.3   417  THR417      0.1770
     74  OG1        6.4720   11.2530   33.8480 O.3   417  THR417     -0.2211
     75  CG2        5.3380   12.0810   35.8870 C.3   417  THR417      0.0375
     76  N          0.7140   14.2960   40.8130 N.3   483  GLU483     -0.1245
     77  CA         2.0290   14.5830   40.2340 C.3   483  GLU483      0.1567
     78  C          2.5680   15.9540   40.5970 C.2   483  GLU483      0.2260
     79  O          3.7050   16.2270   40.2830 O.2   483  GLU483     -0.2867
     80  CB         2.0020   14.4700   38.6840 C.3   483  GLU483      0.0388
     81  CG         1.6730   13.0880   38.1570 C.3   483  GLU483      0.1160
     82  CD         1.8030   12.9610   36.6280 C.2   483  GLU483      0.3649
     83  OE1        1.9650   11.8190   36.1500 O.co2 483  GLU483     -0.2457
     84  OE2        1.7590   14.0100   35.9490 O.co2 483  GLU483     -0.2457
     85  N         -3.1720   17.8220   42.4280 N.3   596  LYS596     -0.1245
     86  CA        -3.5470   17.9340   40.9910 C.3   596  LYS596      0.1561
     87  C         -4.8240   17.1710   40.7700 C.2   596  LYS596      0.2260
     88  O         -5.7520   17.6650   40.1290 O.2   596  LYS596     -0.2867
     89  CB        -2.3740   17.4380   40.1520 C.3   596  LYS596      0.0271
     90  CG        -2.5490   17.2300   38.6320 C.3   596  LYS596      0.0035
     91  CD        -1.2840   16.6090   38.0330 C.3   596  LYS596      0.0206
     92  CE        -1.2940   16.9230   36.5420 C.3   596  LYS596      0.1093
     93  NZ        -0.2810   16.1980   35.7790 N.3   596  LYS596     -0.1314
@<TRIPOS>BOND
     1     3     4    2
     2     3     2    1
     3     1     2    1
     4     2     5    1
     5     5     6    1
     6     6     8   ar
     7     6     7   ar
     8    59    58    2
     9    59    60    1
    10    58    55    1
    11    60    54    1
    12     8    10   ar
    13     7     9   ar
    14    45    44   ar
    15    55    54    1
    16    55    56    1
    17    54    49   am
    18    41    40    2
    19    22    20   ar
    20    22    23   ar
    21    40    39    1
    22    47    48    1
    23    10    11   ar
    24    49    50    2
    25    49    48    1
    26    42    39    1
    27    42    43    1
    28     9    11   ar
    29    20    18   ar
    30    44    43    1
    31    44    46   ar
    32    23    21   ar
    33    48    51    1
    34    56    57    2
    35    11    12    1
    36    39    38    1
    37    13    14    1
    38    18    19   ar
    39    18    17    1
    40    21    19   ar
    41    68    66    1
    42    51    52    1
    43    51    53    1
    44    38    26   am
    45    14    17    1
    46    14    15    1
    47    16    15    2
    48    27    26    2
    49    26    25    1
    50    66    65    1
    51    65    67    1
    52    65    62    1
    53    24    25    1
    54    25    28    1
    55    30    32   ar
    56    30    29   ar
    57    61    62    1
    58    28    29    1
    59    32    33   ar
    60    74    73    1
    61    29    31   ar
    62    62    63    1
    63    64    63    2
    64    33    31   ar
    65    33    35   ar
    66    31    34   ar
    67    73    75    1
    68    73    70    1
    69    35    37   ar
    70    71    70    1
    71    71    72    2
    72    34    36   ar
    73    93    92    1
    74    84    82   ar
    75    69    70    1
    76    83    82   ar
    77    37    36   ar
    78    92    91    1
    79    82    81    1
    80    91    90    1
    81    81    80    1
    82    90    89    1
    83    80    77    1
    84    88    87    2
    85    89    86    1
    86    77    78    1
    87    77    76    1
    88    79    78    2
    89    87    86    1
    90    86    85    1
