@<TRIPOS>MOLECULE
tmp/3wiwA00.pdb
 125 125 0 0 0
SMALL
GASTEIGER

@<TRIPOS>ATOM
      1  N         18.5280  -19.5690  -10.0480 N.3    46  TRP46      -0.1241
      2  CA        18.3260  -20.5230  -11.1370 C.3    46  TRP46       0.1605
      3  C         17.4090  -20.0250  -12.2560 C.2    46  TRP46       0.2264
      4  O         17.4390  -20.5680  -13.3740 O.2    46  TRP46      -0.2867
      5  CB        17.8030  -21.8540  -10.6080 C.3    46  TRP46       0.0550
      6  CG        16.3150  -21.9020  -10.3000 C.ar   46  TRP46       0.0003
      7  CD1       15.7100  -21.5700   -9.1240 C.ar   46  TRP46       0.0946
      8  CD2       15.2730  -22.3620  -11.1760 C.ar   46  TRP46       0.0152
      9  NE1       14.3410  -21.8080   -9.2100 N.ar   46  TRP46      -0.2442
     10  CE2       14.0540  -22.2940  -10.4620 C.ar   46  TRP46       0.0810
     11  CE3       15.2590  -22.8370  -12.4950 C.ar   46  TRP46       0.0012
     12  CZ2       12.8240  -22.6700  -11.0260 C.ar   46  TRP46       0.0191
     13  CZ3       14.0460  -23.2120  -13.0580 C.ar   46  TRP46       0.0001
     14  CH2       12.8370  -23.1220  -12.3230 C.ar   46  TRP46       0.0015
     15  N         23.1890  -28.0950  -11.7600 N.3    88  HIS88      -0.1226
     16  CA        22.7750  -28.5060  -13.0980 C.3    88  HIS88       0.1752
     17  C         22.0710  -27.4040  -13.8770 C.2    88  HIS88       0.2596
     18  O         21.9220  -27.5290  -15.0950 O.2    88  HIS88      -0.2718
     19  CB        21.8310  -29.7090  -13.0270 C.3    88  HIS88       0.0759
     20  CG        20.4820  -29.4030  -12.4540 C.ar   88  HIS88       0.0818
     21  ND1       19.3190  -29.7890  -13.0770 N.ar   88  HIS88      -0.2268
     22  CD2       20.1150  -28.7790  -11.3070 C.ar   88  HIS88       0.1154
     23  CE1       18.2840  -29.3990  -12.3480 C.ar   88  HIS88       0.1986
     24  NE2       18.7380  -28.8040  -11.2550 N.ar   88  HIS88      -0.2212
     25  N         21.6870  -26.3120  -13.2050 N.am   89  ASP89      -0.1974
     26  CA        20.7870  -25.3120  -13.8060 C.3    89  ASP89       0.1709
     27  C         21.4700  -24.3640  -14.7990 C.2    89  ASP89       0.2293
     28  O         20.8630  -23.3900  -15.2520 O.2    89  ASP89      -0.2864
     29  CB        20.0300  -24.5230  -12.7260 C.3    89  ASP89       0.1436
     30  CG        18.9280  -25.3280  -12.0860 C.2    89  ASP89       0.3671
     31  OD1       18.2990  -26.1360  -12.8010 O.co2  89  ASP89      -0.2456
     32  OD2       18.6910  -25.1450  -10.8650 O.co2  89  ASP89      -0.2456
     33  N         19.1600  -23.7910  -17.9060 N.3    92  PHE92      -0.1241
     34  CA        18.1800  -22.7290  -17.7360 C.3    92  PHE92       0.1605
     35  C         18.8520  -21.3490  -17.6920 C.2    92  PHE92       0.2264
     36  O         18.3090  -20.3750  -18.2110 O.2    92  PHE92      -0.2867
     37  CB        17.4270  -22.9330  -16.4250 C.3    92  PHE92       0.0534
     38  CG        16.4870  -24.1130  -16.3980 C.ar   92  PHE92      -0.0203
     39  CD1       15.4980  -24.2900  -17.3640 C.ar   92  PHE92      -0.0042
     40  CD2       16.5470  -25.0140  -15.3370 C.ar   92  PHE92      -0.0042
     41  CE1       14.5590  -25.3580  -17.2430 C.ar   92  PHE92      -0.0003
     42  CE2       15.6450  -26.0740  -15.2200 C.ar   92  PHE92      -0.0003
     43  CZ        14.6530  -26.2320  -16.1710 C.ar   92  PHE92      -0.0000
     44  N         22.2450  -31.1280   -7.6060 N.3   135  TRP135     -0.1241
     45  CA        22.7500  -30.1400   -6.6610 C.3   135  TRP135      0.1605
     46  C         23.6060  -30.7560   -5.5940 C.2   135  TRP135      0.2264
     47  O         23.6470  -31.9780   -5.4360 O.2   135  TRP135     -0.2867
     48  CB        21.6220  -29.3330   -6.0360 C.3   135  TRP135      0.0550
     49  CG        20.6870  -30.1480   -5.1810 C.ar  135  TRP135      0.0003
     50  CD1       21.0110  -30.9040   -4.0850 C.ar  135  TRP135      0.0946
     51  CD2       19.2620  -30.2360   -5.3190 C.ar  135  TRP135      0.0152
     52  NE1       19.8800  -31.4770   -3.5570 N.ar  135  TRP135     -0.2442
     53  CE2       18.7940  -31.0840   -4.2960 C.ar  135  TRP135      0.0810
     54  CE3       18.3400  -29.6910   -6.2200 C.ar  135  TRP135      0.0012
     55  CZ2       17.4390  -31.3910   -4.1400 C.ar  135  TRP135      0.0191
     56  CZ3       16.9980  -29.9930   -6.0670 C.ar  135  TRP135      0.0001
     57  CH2       16.5580  -30.8410   -5.0360 C.ar  135  TRP135      0.0015
     58  N         23.8160  -29.4490   -2.2170 N.3   137  PHE137     -0.1241
     59  CA        23.3800  -29.1750   -0.8480 C.3   137  PHE137      0.1605
     60  C         22.5460  -30.3210   -0.3010 C.2   137  PHE137      0.2264
     61  O         22.1190  -31.2090   -1.0490 O.2   137  PHE137     -0.2867
     62  CB        22.6000  -27.8560   -0.7680 C.3   137  PHE137      0.0534
     63  CG        21.3670  -27.8230   -1.6270 C.ar  137  PHE137     -0.0203
     64  CD1       20.1760  -28.3840   -1.1900 C.ar  137  PHE137     -0.0042
     65  CD2       21.4090  -27.2420   -2.8830 C.ar  137  PHE137     -0.0042
     66  CE1       19.0420  -28.3560   -1.9850 C.ar  137  PHE137     -0.0003
     67  CE2       20.2800  -27.2010   -3.6790 C.ar  137  PHE137     -0.0003
     68  CZ        19.0950  -27.7650   -3.2340 C.ar  137  PHE137     -0.0000
     69  N         17.0850  -34.4910  -10.0690 N.3   145  ILE145     -0.1245
     70  CA        15.6880  -34.0840  -10.1680 C.3   145  ILE145      0.1561
     71  C         15.1890  -34.1720  -11.6070 C.2   145  ILE145      0.2260
     72  O         15.9830  -34.0990  -12.5450 O.2   145  ILE145     -0.2867
     73  CB        15.4470  -32.6730   -9.5610 C.3   145  ILE145      0.0252
     74  CG1       16.0740  -31.5240  -10.3840 C.3   145  ILE145      0.0019
     75  CG2       15.9590  -32.6500   -8.1280 C.3   145  ILE145      0.0019
     76  CD1       15.8980  -30.1430   -9.7080 C.3   145  ILE145      0.0001
     77  N         13.6790  -32.0330  -13.3100 N.3   147  ASP147     -0.1239
     78  CA        13.9560  -30.7650  -14.0050 C.3   147  ASP147      0.1674
     79  C         15.2990  -30.8220  -14.7620 C.2   147  ASP147      0.2266
     80  O         15.5040  -30.0840  -15.7310 O.2   147  ASP147     -0.2867
     81  CB        14.0140  -29.5700  -13.0410 C.3   147  ASP147      0.1410
     82  CG        13.0330  -29.6460  -11.8590 C.2   147  ASP147      0.3668
     83  OD1       12.8510  -30.7140  -11.2280 O.co2 147  ASP147     -0.2456
     84  OD2       12.5210  -28.5680  -11.4980 O.co2 147  ASP147     -0.2456
     85  N          9.8700  -36.6890   -8.3740 N.3   191  HIS191     -0.1241
     86  CA        10.6580  -35.4710   -8.4830 C.3   191  HIS191      0.1621
     87  C         12.1540  -35.7920   -8.3640 C.2   191  HIS191      0.2264
     88  O         12.9320  -35.4550   -9.2630 O.2   191  HIS191     -0.2867
     89  CB        10.2100  -34.4200   -7.4560 C.3   191  HIS191      0.0745
     90  CG        10.7300  -33.0500   -7.7570 C.ar  191  HIS191      0.0817
     91  ND1       10.3420  -31.9250   -7.0630 N.ar  191  HIS191     -0.2268
     92  CD2       11.6280  -32.6330   -8.6860 C.ar  191  HIS191      0.1154
     93  CE1       10.9670  -30.8720   -7.5550 C.ar  191  HIS191      0.1986
     94  NE2       11.7560  -31.2780   -8.5380 N.ar  191  HIS191     -0.2212
     95  N         10.1490  -33.3360   -4.0330 N.3   208  HIS208     -0.1226
     96  CA        10.6870  -32.1310   -3.4410 C.3   208  HIS208      0.1752
     97  C          9.6260  -31.0350   -3.5020 C.2   208  HIS208      0.2595
     98  O          9.2950  -30.4490   -2.4790 O.2   208  HIS208     -0.2718
     99  CB        12.0020  -31.7170   -4.1070 C.3   208  HIS208      0.0759
    100  CG        12.6530  -30.5470   -3.4550 C.ar  208  HIS208      0.0818
    101  ND1       13.2060  -30.6130   -2.1930 N.ar  208  HIS208     -0.2268
    102  CD2       12.8550  -29.2820   -3.8940 C.ar  208  HIS208      0.1154
    103  CE1       13.7130  -29.4340   -1.8800 C.ar  208  HIS208      0.1986
    104  NE2       13.5050  -28.6090   -2.8920 N.ar  208  HIS208     -0.2212
    105  N          9.0540  -30.7930   -4.6720 N.am  209  GLN209     -0.1979
    106  CA         8.0550  -29.7250   -4.8090 C.3   209  GLN209      0.1601
    107  C          6.6240  -30.1940   -5.0950 C.2   209  GLN209      0.2287
    108  O          5.7170  -29.3610   -5.2890 O.2   209  GLN209     -0.2864
    109  CB         8.5370  -28.6580   -5.8030 C.3   209  GLN209      0.0394
    110  CG         9.6840  -27.8520   -5.1670 C.3   209  GLN209      0.0908
    111  CD        10.4120  -26.9280   -6.0870 C.2   209  GLN209      0.2608
    112  OE1       10.5570  -27.2060   -7.2550 O.2   209  GLN209     -0.2717
    113  NE2       10.9170  -25.8270   -5.5440 N.am  209  GLN209     -0.0878
    114  N          5.8650  -25.0930    0.4010 N.3   339  TYR339     -0.1241
    115  CA         6.8360  -24.2010    1.0370 C.3   339  TYR339      0.1605
    116  C          6.2360  -22.8040    1.2050 C.2   339  TYR339      0.2264
    117  O          6.9320  -21.8790    1.6500 O.2   339  TYR339     -0.2867
    118  CB         8.1370  -24.1420    0.2180 C.3   339  TYR339      0.0534
    119  CG         8.8850  -25.4640    0.1660 C.ar  339  TYR339     -0.0201
    120  CD1        8.4670  -26.4930   -0.6840 C.ar  339  TYR339     -0.0009
    121  CD2       10.0210  -25.6820    0.9540 C.ar  339  TYR339     -0.0009
    122  CE1        9.1220  -27.7060   -0.7240 C.ar  339  TYR339      0.0417
    123  CE2       10.7000  -26.8980    0.8980 C.ar  339  TYR339      0.0417
    124  CZ        10.2490  -27.8990    0.0490 C.ar  339  TYR339      0.1957
    125  OH        10.9120  -29.1090   -0.0050 O.3   339  TYR339     -0.2866
@<TRIPOS>BOND
     1    36    35    2
     2    33    34    1
     3    34    35    1
     4    34    37    1
     5    39    41   ar
     6    39    38   ar
     7    41    43   ar
     8    37    38    1
     9    38    40   ar
    10    43    42   ar
    11    80    79    2
    12    40    42   ar
    13    28    27    2
    14    18    17    2
    15    27    26    1
    16    79    78    1
    17    78    77    1
    18    78    81    1
    19    17    25   am
    20    17    16    1
    21    26    25    1
    22    26    29    1
    23     4     3    2
    24    16    19    1
    25    16    15    1
    26    21    20   ar
    27    21    23   ar
    28    13    11   ar
    29    13    14   ar
    30    81    82    1
    31    19    20    1
    32    31    30   ar
    33    29    30    1
    34    72    71    2
    35    11     8   ar
    36    20    22   ar
    37    23    24   ar
    38    14    12   ar
    39     3     2    1
    40    30    32   ar
    41    82    84   ar
    42    82    83   ar
    43    71    70    1
    44    22    24   ar
    45     8    10   ar
    46     8     6   ar
    47     2     5    1
    48     2     1    1
    49    12    10   ar
    50     5     6    1
    51    10     9   ar
    52    74    76    1
    53    74    73    1
    54     6     7   ar
    55    70    69    1
    56    70    73    1
    57    73    75    1
    58    88    87    2
    59     9     7   ar
    60    92    94   ar
    61    92    90   ar
    62    94    93   ar
    63    86    85    1
    64    86    87    1
    65    86    89    1
    66    90    89    1
    67    90    91   ar
    68    44    45    1
    69    93    91   ar
    70   112   111    2
    71    45    48    1
    72    45    46    1
    73    54    56   ar
    74    54    51   ar
    75   111   113   am
    76   111   110    1
    77    56    57   ar
    78    48    49    1
    79   109   110    1
    80   109   106    1
    81    46    47    2
    82    51    49   ar
    83    51    53   ar
    84   108   107    2
    85    49    50   ar
    86   107   106    1
    87    57    55   ar
    88   106   105    1
    89   105    97   am
    90    53    55   ar
    91    53    52   ar
    92    99   100    1
    93    99    96    1
    94    50    52   ar
    95    95    96    1
    96   102   100   ar
    97   102   104   ar
    98    67    68   ar
    99    67    65   ar
   100    97    96    1
   101    97    98    2
   102   100   101   ar
   103    68    66   ar
   104   104   103   ar
   105    65    63   ar
   106    58    59    1
   107   101   103   ar
   108    66    64   ar
   109    63    64   ar
   110    63    62    1
   111    61    60    2
   112    59    62    1
   113    59    60    1
   114   122   120   ar
   115   122   124   ar
   116   120   119   ar
   117   125   124    1
   118   124   123   ar
   119   119   118    1
   120   119   121   ar
   121   118   115    1
   122   114   115    1
   123   123   121   ar
   124   115   116    1
   125   116   117    2
