@<TRIPOS>MOLECULE
tmp/3wixB00.pdb
 147 138 0 0 0
SMALL
GASTEIGER

@<TRIPOS>ATOM
      1  N        -30.6150   -6.8740  -31.3530 N.3    53  HIS53      -0.1241
      2  CA       -29.6280   -7.9410  -31.1610 C.3    53  HIS53       0.1621
      3  C        -30.0340   -9.0640  -30.1990 C.2    53  HIS53       0.2264
      4  O        -29.1730   -9.7560  -29.6820 O.2    53  HIS53      -0.2867
      5  CB       -28.2670   -7.3670  -30.7430 C.3    53  HIS53       0.0745
      6  CG       -27.6270   -6.5010  -31.7820 C.ar   53  HIS53       0.0817
      7  ND1      -26.7840   -5.4610  -31.4620 N.ar   53  HIS53      -0.2268
      8  CD2      -27.7080   -6.5160  -33.1340 C.ar   53  HIS53       0.1154
      9  CE1      -26.3750   -4.8710  -32.5710 C.ar   53  HIS53       0.1986
     10  NE2      -26.9230   -5.4900  -33.6000 N.ar   53  HIS53      -0.2212
     11  N        -28.4740  -12.7100  -31.2530 N.3    56  ALA56      -0.1231
     12  CA       -27.0260  -12.7830  -31.0030 C.3    56  ALA56       0.1694
     13  C        -26.6710  -12.7500  -29.5150 C.2    56  ALA56       0.2592
     14  O        -25.7180  -13.4290  -29.0770 O.2    56  ALA56      -0.2718
     15  CB       -26.3030  -11.6580  -31.7460 C.3    56  ALA56       0.0304
     16  N        -27.4300  -11.9360  -28.7590 N.am   57  PHE57      -0.1976
     17  CA       -27.2670  -11.7670  -27.3140 C.3    57  PHE57       0.1639
     18  C        -27.6670  -13.0520  -26.6080 C.2    57  PHE57       0.2290
     19  O        -26.9870  -13.5370  -25.7120 O.2    57  PHE57      -0.2864
     20  CB       -28.1520  -10.6060  -26.7970 C.3    57  PHE57       0.0560
     21  CG       -27.5390   -9.2200  -26.9430 C.ar   57  PHE57      -0.0200
     22  CD1      -26.4390   -8.9810  -27.7800 C.ar   57  PHE57      -0.0042
     23  CD2      -28.1050   -8.1330  -26.2640 C.ar   57  PHE57      -0.0042
     24  CE1      -25.9100   -7.6950  -27.9180 C.ar   57  PHE57      -0.0003
     25  CE2      -27.5710   -6.8440  -26.3880 C.ar   57  PHE57      -0.0003
     26  CZ       -26.4710   -6.6260  -27.2100 C.ar   57  PHE57      -0.0000
     27  N        -24.9960  -15.5740  -27.3470 N.3    60  MET60      -0.1245
     28  CA       -23.8340  -15.3200  -26.4910 C.3    60  MET60       0.1570
     29  C        -24.1210  -15.7610  -25.0530 C.2    60  MET60       0.2261
     30  O        -23.3180  -16.4740  -24.4460 O.2    60  MET60      -0.2867
     31  CB       -23.4330  -13.8470  -26.5330 C.3    60  MET60       0.0387
     32  CG       -22.1810  -13.5210  -25.7160 C.3    60  MET60       0.0595
     33  SD       -20.6250  -14.1460  -26.4080 S.3    60  MET60      -0.1393
     34  CE       -20.5810  -13.2550  -27.9510 C.3    60  MET60       0.0692
     35  N        -22.1330  -18.4680  -22.6470 N.3    64  LEU64      -0.1245
     36  CA       -21.5620  -17.9920  -21.3910 C.3    64  LEU64       0.1561
     37  C        -21.8010  -18.9080  -20.1890 C.2    64  LEU64       0.2260
     38  O        -20.9010  -19.0760  -19.3560 O.2    64  LEU64      -0.2867
     39  CB       -22.0320  -16.5500  -21.0930 C.3    64  LEU64       0.0270
     40  CG       -21.5670  -15.4720  -22.0850 C.3    64  LEU64       0.0019
     41  CD1      -21.6340  -14.0830  -21.4630 C.3    64  LEU64       0.0001
     42  CD2      -20.1540  -15.7600  -22.5890 C.3    64  LEU64       0.0001
     43  N        -15.2710  -13.4650  -16.9020 N.3    75  LEU75      -0.1245
     44  CA       -15.7770  -13.0400  -18.2200 C.3    75  LEU75       0.1561
     45  C        -14.8020  -12.1310  -18.9400 C.2    75  LEU75       0.2260
     46  O        -14.9490  -11.8900  -20.1300 O.2    75  LEU75      -0.2867
     47  CB       -17.1830  -12.3950  -18.1370 C.3    75  LEU75       0.0270
     48  CG       -18.3210  -13.2890  -17.6820 C.3    75  LEU75       0.0019
     49  CD1      -19.6390  -12.5220  -17.6270 C.3    75  LEU75       0.0001
     50  CD2      -18.4260  -14.4850  -18.6130 C.3    75  LEU75       0.0001
     51  N        -13.1890  -13.4190  -22.5520 N.3    78  VAL78      -0.1231
     52  CA       -14.1020  -13.4620  -23.6770 C.3    78  VAL78       0.1692
     53  C        -14.6090  -12.0750  -24.0830 C.2    78  VAL78       0.2591
     54  O        -14.8430  -11.8090  -25.2710 O.2    78  VAL78      -0.2718
     55  CB       -15.3590  -14.2880  -23.3380 C.3    78  VAL78       0.0266
     56  CG1      -15.9110  -14.9240  -24.6110 C.3    78  VAL78       0.0020
     57  CG2      -15.0280  -15.3340  -22.2870 C.3    78  VAL78       0.0020
     58  N        -14.8300  -11.2220  -23.0870 N.am   79  MET79      -0.1979
     59  CA       -15.2420   -9.8450  -23.3340 C.3    79  MET79       0.1605
     60  C        -14.2100   -9.1490  -24.1670 C.2    79  MET79       0.2287
     61  O        -14.5300   -8.5760  -25.2070 O.2    79  MET79      -0.2864
     62  CB       -15.3680   -9.0940  -22.0250 C.3    79  MET79       0.0413
     63  CG       -16.2450   -7.8760  -22.1250 C.3    79  MET79       0.0598
     64  SD       -16.3550   -7.0870  -20.5230 S.3    79  MET79      -0.1393
     65  CE       -16.9050   -8.4350  -19.4900 C.3    79  MET79       0.0692
     66  N        -13.8880  -10.4840  -27.9730 N.3    82  VAL82      -0.1231
     67  CA       -14.9480  -10.0250  -28.8910 C.3    82  VAL82       0.1692
     68  C        -14.9430   -8.5030  -29.1410 C.2    82  VAL82       0.2592
     69  O        -15.2230   -8.0410  -30.2670 O.2    82  VAL82      -0.2718
     70  CB       -16.3320  -10.4310  -28.3500 C.3    82  VAL82       0.0266
     71  CG1      -17.4470   -9.8320  -29.2100 C.3    82  VAL82       0.0020
     72  CG2      -16.4550  -11.9690  -28.2920 C.3    82  VAL82       0.0020
     73  N        -14.6430   -7.7410  -28.0890 N.am   83  PHE83      -0.1976
     74  CA       -14.6570   -6.2740  -28.1050 C.3    83  PHE83       0.1639
     75  C        -13.4960   -5.7060  -28.9000 C.2    83  PHE83       0.2290
     76  O        -13.6430   -4.6800  -29.5540 O.2    83  PHE83      -0.2864
     77  CB       -14.6340   -5.7250  -26.6620 C.3    83  PHE83       0.0560
     78  CG       -15.0690   -4.2730  -26.5380 C.ar   83  PHE83      -0.0200
     79  CD1      -16.1100   -3.7710  -27.3020 C.ar   83  PHE83      -0.0042
     80  CD2      -14.4570   -3.4360  -25.6300 C.ar   83  PHE83      -0.0042
     81  CE1      -16.5210   -2.4560  -27.1690 C.ar   83  PHE83      -0.0003
     82  CE2      -14.8360   -2.1020  -25.5130 C.ar   83  PHE83      -0.0003
     83  CZ       -15.8740   -1.6190  -26.2680 C.ar   83  PHE83      -0.0000
     84  N        -20.4820    0.0670  -30.9050 N.3    92  ARG92      -0.1245
     85  CA       -19.9200   -1.0930  -30.2080 C.3    92  ARG92       0.1563
     86  C        -19.7260   -0.9030  -28.6980 C.2    92  ARG92       0.2260
     87  O        -19.8930   -1.8410  -27.9180 O.2    92  ARG92      -0.2867
     88  CB       -18.6180   -1.4960  -30.8560 C.3    92  ARG92       0.0307
     89  CG       -18.8490   -2.0100  -32.2710 C.3    92  ARG92       0.0489
     90  CD       -17.6270   -2.6670  -32.8480 C.3    92  ARG92       0.2205
     91  NE       -17.3460   -3.9400  -32.1850 N.pl3  92  ARG92      -0.0865
     92  CZ       -16.1910   -4.5760  -32.3390 C.cat  92  ARG92       0.5346
     93  NH1      -15.9780   -5.7260  -31.7400 N.pl3  92  ARG92       0.1354
     94  NH2      -15.2490   -4.0390  -33.1180 N.pl3  92  ARG92       0.1354
     95  N        -23.0340   -1.4880  -27.5460 N.3    95  THR95      -0.1203
     96  CA       -23.3170   -2.9330  -27.6490 C.3    95  THR95       0.1994
     97  C        -22.8180   -3.6560  -26.3840 C.2    95  THR95       0.2617
     98  O        -23.5480   -4.4120  -25.7410 O.2    95  THR95      -0.2717
     99  CB       -22.6710   -3.5280  -28.9240 C.3    95  THR95       0.1784
    100  OG1      -23.2140   -2.8810  -30.0850 O.3    95  THR95      -0.2211
    101  CG2      -22.9190   -5.0270  -29.0300 C.3    95  THR95       0.0376
    102  N        -21.5670   -3.3870  -26.0430 N.am   96  LEU96      -0.1979
    103  CA       -20.9530   -3.8280  -24.7940 C.3    96  LEU96       0.1596
    104  C        -21.8240   -3.5800  -23.5470 C.2    96  LEU96       0.2287
    105  O        -22.0760   -4.5150  -22.7750 O.2    96  LEU96      -0.2864
    106  CB       -19.5710   -3.1580  -24.6460 C.3    96  LEU96       0.0297
    107  CG       -18.8100   -3.4630  -23.3480 C.3    96  LEU96       0.0022
    108  CD1      -17.9910   -4.7440  -23.4630 C.3    96  LEU96       0.0001
    109  CD2      -17.9200   -2.3070  -22.9360 C.3    96  LEU96       0.0001
    110  N        -25.3260   -5.3590  -23.7400 N.3    99  PHE99      -0.1227
    111  CA       -25.2450   -6.7830  -23.4260 C.3    99  PHE99       0.1736
    112  C        -24.9830   -6.9500  -21.9450 C.2    99  PHE99       0.2596
    113  O        -25.5060   -7.8860  -21.3330 O.2    99  PHE99      -0.2718
    114  CB       -24.2170   -7.5240  -24.2840 C.3    99  PHE99       0.0547
    115  CG       -24.2010   -9.0120  -24.0590 C.ar   99  PHE99      -0.0202
    116  CD1      -25.2750   -9.8070  -24.4500 C.ar   99  PHE99      -0.0042
    117  CD2      -23.1330   -9.6030  -23.4070 C.ar   99  PHE99      -0.0042
    118  CE1      -25.2580  -11.1740  -24.2220 C.ar   99  PHE99      -0.0003
    119  CE2      -23.0990  -10.9670  -23.1920 C.ar   99  PHE99      -0.0003
    120  CZ       -24.1640  -11.7510  -23.5830 C.ar   99  PHE99      -0.0000
    121  N        -24.2150   -6.0140  -21.3640 N.am  100  GLY100     -0.1957
    122  CA       -24.0500   -5.9190  -19.9070 C.3   100  GLY100      0.1869
    123  C        -25.4050   -5.9110  -19.1980 C.2   100  GLY100      0.2309
    124  O        -25.5870   -6.6220  -18.2210 O.2   100  GLY100     -0.2863
    125  N        -27.3510   -9.3400  -19.5760 N.3   103  VAL103     -0.1245
    126  CA       -26.7880  -10.2510  -18.6060 C.3   103  VAL103      0.1561
    127  C        -27.1290   -9.9070  -17.1390 C.2   103  VAL103      0.2260
    128  O        -27.2300  -10.8250  -16.3040 O.2   103  VAL103     -0.2867
    129  CB       -25.2490  -10.2430  -18.8140 C.3   103  VAL103      0.0252
    130  CG1      -24.5030  -10.8990  -17.6390 C.3   103  VAL103      0.0019
    131  CG2      -24.9210  -10.8710  -20.1750 C.3   103  VAL103      0.0019
    132  N        -20.1990   -7.3580  -12.1610 N.3   119  LEU119     -0.1245
    133  CA       -20.3110   -7.4080  -13.5850 C.3   119  LEU119      0.1561
    134  C        -20.0910   -6.0000  -14.1550 C.2   119  LEU119      0.2260
    135  O        -19.4190   -5.8500  -15.1780 O.2   119  LEU119     -0.2867
    136  CB       -21.7080   -7.9190  -14.0150 C.3   119  LEU119      0.0270
    137  CG       -21.9850   -7.8550  -15.5140 C.3   119  LEU119      0.0019
    138  CD1      -21.2760   -8.9420  -16.3020 C.3   119  LEU119      0.0001
    139  CD2      -23.4920   -7.9490  -15.6960 C.3   119  LEU119      0.0001
    140  N        -16.7790   -4.9160  -16.7450 N.3   123  ILE123     -0.1245
    141  CA       -17.0560   -4.2110  -17.9780 C.3   123  ILE123      0.1561
    142  C        -16.4160   -2.8390  -18.0170 C.2   123  ILE123      0.2260
    143  O        -15.8530   -2.4670  -19.0330 O.2   123  ILE123     -0.2867
    144  CB       -18.5740   -4.0040  -18.1450 C.3   123  ILE123      0.0252
    145  CG1      -19.2760   -5.3350  -18.3230 C.3   123  ILE123      0.0019
    146  CG2      -18.8610   -3.1030  -19.3600 C.3   123  ILE123      0.0019
    147  CD1      -20.8290   -5.1890  -18.2220 C.3   123  ILE123      0.0001
@<TRIPOS>BOND
     1    10     8   ar
     2    10     9   ar
     3     8     6   ar
     4    94    92    1
     5    90    89    1
     6    90    91    1
     7     9     7   ar
     8    92    91    2
     9    92    93    1
    10    89    88    1
    11     6     7   ar
    12     6     5    1
    13    15    12    1
    14     1     2    1
    15    11    12    1
    16     2     5    1
    17     2     3    1
    18    12    13    1
    19    84    85    1
    20    88    85    1
    21    69    68    2
    22    85    86    1
    23     3     4    2
    24   100    99    1
    25    76    75    2
    26    13    14    2
    27    13    16   am
    28    71    70    1
    29    68    67    1
    30    68    73   am
    31   101    99    1
    32    99    96    1
    33    75    74    1
    34    67    70    1
    35    67    66    1
    36    16    17    1
    37    86    87    2
    38    70    72    1
    39    74    73    1
    40    74    77    1
    41    34    33    1
    42    24    22   ar
    43    24    26   ar
    44    22    21   ar
    45    96    95    1
    46    96    97    1
    47    27    28    1
    48    17    20    1
    49    17    18    1
    50    79    81   ar
    51    79    78   ar
    52    26    25   ar
    53    81    83   ar
    54    21    20    1
    55    21    23   ar
    56    77    78    1
    57    18    19    2
    58    78    80   ar
    59    31    28    1
    60    31    32    1
    61    28    29    1
    62    33    32    1
    63    25    23   ar
    64    97   102   am
    65    97    98    2
    66    83    82   ar
    67   102   103    1
    68    80    82   ar
    69    54    53    2
    70    61    60    2
    71    29    30    2
    72   103   106    1
    73   103   104    1
    74   106   107    1
    75    56    55    1
    76   116   118   ar
    77   116   115   ar
    78   114   115    1
    79   114   111    1
    80   118   120   ar
    81    60    59    1
    82    53    52    1
    83    53    58   am
    84   115   117   ar
    85   110   111    1
    86    52    55    1
    87    52    51    1
    88   120   119   ar
    89   104   105    2
    90   108   107    1
    91   111   112    1
    92   117   119   ar
    93   107   109    1
    94    55    57    1
    95    59    58    1
    96    59    62    1
    97    35    36    1
    98    42    40    1
    99    63    62    1
   100    63    64    1
   101    40    41    1
   102    40    39    1
   103   112   121   am
   104   112   113    2
   105    36    39    1
   106    36    37    1
   107   121   122    1
   108    64    65    1
   109    37    38    2
   110   131   129    1
   111    46    45    2
   112   122   123    1
   113   125   126    1
   114   146   144    1
   115   123   124    2
   116   143   142    2
   117    45    44    1
   118   129   126    1
   119   129   130    1
   120    50    48    1
   121   126   127    1
   122   145   147    1
   123   145   144    1
   124    44    47    1
   125    44    43    1
   126   144   141    1
   127    47    48    1
   128   142   141    1
   129   141   140    1
   130    48    49    1
   131   127   128    2
   132   138   137    1
   133   139   137    1
   134   137   136    1
   135   135   134    2
   136   134   133    1
   137   136   133    1
   138   133   132    1
