@<TRIPOS>MOLECULE
tmp/3wiyB00.pdb
 155 146 0 0 0
SMALL
GASTEIGER

@<TRIPOS>ATOM
      1  N          9.1650   10.5080    6.7720 N.3    52  ASN52      -0.1225
      2  CA         8.4100   11.6080    7.3910 C.3    52  ASN52       0.1785
      3  C          7.5460   11.1910    8.5670 C.2    52  ASN52       0.2597
      4  O          7.2430   12.0320    9.4240 O.2    52  ASN52      -0.2718
      5  CB         7.4700   12.2500    6.3660 C.3    52  ASN52       0.1169
      6  CG         8.1060   13.3770    5.5970 C.2    52  ASN52       0.2627
      7  OD1        9.3370   13.4730    5.4690 O.2    52  ASN52      -0.2716
      8  ND2        7.2600   14.2380    5.0560 N.am   52  ASN52      -0.0877
      9  N          7.1120    9.9220    8.5690 N.am   53  HIS53      -0.1975
     10  CA         6.1430    9.4200    9.5440 C.3    53  HIS53       0.1656
     11  C          6.6770    8.2620   10.3550 C.2    53  HIS53       0.2291
     12  O          5.9220    7.5060   10.9910 O.2    53  HIS53      -0.2864
     13  CB         4.8150    9.0500    8.8750 C.3    53  HIS53       0.0771
     14  CG         4.0940   10.2220    8.3030 C.ar   53  HIS53       0.0820
     15  ND1        3.5640   11.2230    9.0920 N.ar   53  HIS53      -0.2267
     16  CD2        3.8310   10.5700    7.0220 C.ar   53  HIS53       0.1154
     17  CE1        3.0040   12.1350    8.3190 C.ar   53  HIS53       0.1986
     18  NE2        3.1460   11.7600    7.0600 N.ar   53  HIS53      -0.2212
     19  N          5.3140    7.9390   14.1150 N.3    56  ALA56      -0.1231
     20  CA         3.9250    7.5020   14.1840 C.3    56  ALA56       0.1694
     21  C          3.7230    6.0930   13.5730 C.2    56  ALA56       0.2592
     22  O          2.8770    5.3300   14.0390 O.2    56  ALA56      -0.2718
     23  CB         3.0220    8.5060   13.5250 C.3    56  ALA56       0.0304
     24  N          4.5070    5.7580   12.5440 N.am   57  PHE57      -0.1976
     25  CA         4.4390    4.4400   11.8960 C.3    57  PHE57       0.1639
     26  C          4.8730    3.3830   12.8830 C.2    57  PHE57       0.2290
     27  O          4.2220    2.3380   13.0300 O.2    57  PHE57      -0.2864
     28  CB         5.3060    4.3880   10.6100 C.3    57  PHE57       0.0560
     29  CG         4.5840    4.8650    9.3670 C.ar   57  PHE57      -0.0200
     30  CD1        3.3440    5.5260    9.4510 C.ar   57  PHE57      -0.0042
     31  CD2        5.1320    4.6590    8.1010 C.ar   57  PHE57      -0.0042
     32  CE1        2.6710    5.9670    8.3020 C.ar   57  PHE57      -0.0003
     33  CE2        4.4630    5.1050    6.9560 C.ar   57  PHE57      -0.0003
     34  CZ         3.2360    5.7500    7.0580 C.ar   57  PHE57      -0.0000
     35  N          2.1500    3.0650   15.5200 N.3    60  MET60      -0.1245
     36  CA         1.0590    2.2330   14.9730 C.3    60  MET60       0.1570
     37  C          1.4790    0.7310   14.8400 C.2    60  MET60       0.2261
     38  O          0.7030   -0.1650   15.1430 O.2    60  MET60      -0.2867
     39  CB         0.6010    2.7840   13.6170 C.3    60  MET60       0.0387
     40  CG        -0.5230    1.9900   12.9560 C.3    60  MET60       0.0595
     41  SD        -2.0990    2.0380   13.8400 S.3    60  MET60      -0.1393
     42  CE        -2.6390    3.7090   13.4940 C.3    60  MET60       0.0692
     43  N         -0.4770   -2.6090   16.7430 N.3    64  LEU64      -0.1245
     44  CA        -1.0080   -3.7200   15.9500 C.3    64  LEU64       0.1561
     45  C         -0.4470   -5.1220   16.2740 C.2    64  LEU64       0.2260
     46  O         -1.1360   -6.1270   16.0350 O.2    64  LEU64      -0.2867
     47  CB        -0.8760   -3.4260   14.4550 C.3    64  LEU64       0.0270
     48  CG        -1.4570   -2.1120   13.9080 C.3    64  LEU64       0.0019
     49  CD1       -0.9870   -1.9260   12.4720 C.3    64  LEU64       0.0001
     50  CD2       -2.9800   -2.0260   14.0000 C.3    64  LEU64       0.0001
     51  N         -6.3370   -7.2910    9.9550 N.3    75  LEU75      -0.1245
     52  CA        -6.0180   -5.8530    9.9380 C.3    75  LEU75       0.1561
     53  C         -7.0740   -4.9440    9.2500 C.2    75  LEU75       0.2260
     54  O         -7.0880   -3.7210    9.4790 O.2    75  LEU75      -0.2867
     55  CB        -4.6190   -5.6060    9.3460 C.3    75  LEU75       0.0270
     56  CG        -3.3710   -6.1500   10.0130 C.3    75  LEU75       0.0019
     57  CD1       -2.1590   -5.9460    9.1040 C.3    75  LEU75       0.0001
     58  CD2       -3.1300   -5.6030   11.4320 C.3    75  LEU75       0.0001
     59  N         -9.0760   -2.0340   11.4350 N.3    78  VAL78      -0.1231
     60  CA        -8.3400   -0.7820   11.8030 C.3    78  VAL78       0.1692
     61  C         -7.9430   -0.0180   10.5590 C.2    78  VAL78       0.2591
     62  O         -7.9810    1.2070   10.5410 O.2    78  VAL78      -0.2718
     63  CB        -6.9900   -0.9650   12.5330 C.3    78  VAL78       0.0266
     64  CG1       -6.9680   -0.2200   13.8610 C.3    78  VAL78       0.0020
     65  CG2       -6.5330   -2.4180   12.5760 C.3    78  VAL78       0.0020
     66  N         -7.5140   -0.7550    9.5420 N.am   79  MET79      -0.1979
     67  CA        -7.2360   -0.1410    8.2540 C.3    79  MET79       0.1605
     68  C         -8.3550    0.8000    7.8260 C.2    79  MET79       0.2287
     69  O         -8.1140    1.9830    7.6150 O.2    79  MET79      -0.2864
     70  CB        -7.0350   -1.1970    7.1980 C.3    79  MET79       0.0413
     71  CG        -6.1150   -0.7440    6.0780 C.3    79  MET79       0.0598
     72  SD        -5.7640   -2.1430    5.0050 S.3    79  MET79      -0.1393
     73  CE        -4.9190   -3.2320    6.1510 C.3    79  MET79       0.0692
     74  N         -9.0470    3.8750   10.1330 N.3    82  VAL82      -0.1231
     75  CA        -8.1920    5.0470   10.0060 C.3    82  VAL82       0.1692
     76  C         -8.3270    5.6460    8.6060 C.2    82  VAL82       0.2592
     77  O         -8.3310    6.8820    8.4390 O.2    82  VAL82      -0.2718
     78  CB        -6.7320    4.7150   10.3030 C.3    82  VAL82       0.0266
     79  CG1       -5.8460    5.8860    9.9420 C.3    82  VAL82       0.0020
     80  CG2       -6.5590    4.3210   11.7600 C.3    82  VAL82       0.0020
     81  N         -8.4730    4.7760    7.6100 N.am   83  PHE83      -0.1976
     82  CA        -8.4260    5.2210    6.1980 C.3    83  PHE83       0.1639
     83  C         -9.6490    6.0120    5.7180 C.2    83  PHE83       0.2290
     84  O         -9.4990    7.0650    5.0970 O.2    83  PHE83      -0.2864
     85  CB        -8.1020    4.0540    5.2380 C.3    83  PHE83       0.0560
     86  CG        -7.7450    4.4870    3.8370 C.ar   83  PHE83      -0.0200
     87  CD1       -6.7900    5.4850    3.6120 C.ar   83  PHE83      -0.0042
     88  CD2       -8.3680    3.9040    2.7440 C.ar   83  PHE83      -0.0042
     89  CE1       -6.4630    5.8810    2.3260 C.ar   83  PHE83      -0.0003
     90  CE2       -8.0500    4.2990    1.4530 C.ar   83  PHE83      -0.0003
     91  CZ        -7.0940    5.2840    1.2460 C.ar   83  PHE83      -0.0000
     92  N         -3.1150   10.5190    0.9870 N.3    92  ARG92      -0.1245
     93  CA        -3.5090    9.4650    1.9570 C.3    92  ARG92       0.1563
     94  C         -3.3300    8.0560    1.4090 C.2    92  ARG92       0.2260
     95  O         -3.0500    7.1050    2.1390 O.2    92  ARG92      -0.2867
     96  CB        -4.9700    9.5950    2.3120 C.3    92  ARG92       0.0307
     97  CG        -5.2650   10.7260    3.2470 C.3    92  ARG92       0.0489
     98  CD        -6.6650   10.5340    3.7500 C.3    92  ARG92       0.2205
     99  NE        -6.6700    9.7740    4.9760 N.pl3  92  ARG92      -0.0865
    100  CZ        -7.7270    9.6640    5.7610 C.cat  92  ARG92       0.5346
    101  NH1       -7.6430    8.9840    6.9030 N.pl3  92  ARG92       0.1354
    102  NH2       -8.8760   10.2280    5.3990 N.pl3  92  ARG92       0.1354
    103  N          0.0600    7.1420    1.8830 N.3    95  THR95      -0.1203
    104  CA         0.2180    6.8400    3.3000 C.3    95  THR95       0.1994
    105  C         -0.2570    5.4230    3.6220 C.2    95  THR95       0.2617
    106  O          0.4780    4.6520    4.2180 O.2    95  THR95      -0.2717
    107  CB        -0.5020    7.8690    4.1710 C.3    95  THR95       0.1784
    108  OG1       -0.0950    9.1730    3.7560 O.3    95  THR95      -0.2211
    109  CG2       -0.1320    7.6880    5.6150 C.3    95  THR95       0.0376
    110  N         -1.4610    5.0780    3.1860 N.am   96  LEU96      -0.1979
    111  CA        -1.9510    3.7030    3.2640 C.3    96  LEU96       0.1596
    112  C         -0.9220    2.6910    2.7480 C.2    96  LEU96       0.2287
    113  O         -0.5840    1.7500    3.4400 O.2    96  LEU96      -0.2864
    114  CB        -3.2640    3.5610    2.4900 C.3    96  LEU96       0.0297
    115  CG        -3.7670    2.1130    2.2870 C.3    96  LEU96       0.0022
    116  CD1       -4.3020    1.5600    3.6170 C.3    96  LEU96       0.0001
    117  CD2       -4.8360    2.0790    1.1980 C.3    96  LEU96       0.0001
    118  N          2.7580    2.7890    4.7030 N.3    99  PHE99      -0.1227
    119  CA         2.7120    2.0780    5.9670 C.3    99  PHE99       0.1736
    120  C          2.6490    0.5610    5.7460 C.2    99  PHE99       0.2596
    121  O          3.1580   -0.2000    6.5600 O.2    99  PHE99      -0.2718
    122  CB         1.5560    2.5410    6.8510 C.3    99  PHE99       0.0547
    123  CG         1.5220    1.8350    8.1670 C.ar   99  PHE99      -0.0202
    124  CD1        2.5850    1.9870    9.0740 C.ar   99  PHE99      -0.0042
    125  CD2        0.4710    0.9800    8.4990 C.ar   99  PHE99      -0.0042
    126  CE1        2.5770    1.3170   10.2950 C.ar   99  PHE99      -0.0003
    127  CE2        0.4580    0.3140    9.7270 C.ar   99  PHE99      -0.0003
    128  CZ         1.5110    0.4700   10.6140 C.ar   99  PHE99      -0.0000
    129  N          2.0090    0.1370    4.6590 N.am  100  GLY100     -0.1957
    130  CA         2.0400   -1.2690    4.2460 C.3   100  GLY100      0.1869
    131  C          3.4610   -1.7680    4.0290 C.2   100  GLY100      0.2309
    132  O          3.8100   -2.8560    4.4970 O.2   100  GLY100     -0.2863
    133  N          5.2070   -2.2320    7.3830 N.3   103  VAL103     -0.1245
    134  CA         4.7950   -3.4760    7.9980 C.3   103  VAL103      0.1561
    135  C          5.4540   -4.6640    7.2730 C.2   103  VAL103      0.2260
    136  O          5.8080   -5.6620    7.9030 O.2   103  VAL103     -0.2867
    137  CB         3.2450   -3.6110    7.9620 C.3   103  VAL103      0.0252
    138  CG1        2.7570   -4.8480    8.6980 C.3   103  VAL103      0.0019
    139  CG2        2.5680   -2.3840    8.5400 C.3   103  VAL103      0.0019
    140  N         -0.9200   -9.5670    3.2510 N.3   119  LEU119     -0.1245
    141  CA        -0.9120   -8.1550    3.6440 C.3   119  LEU119      0.1561
    142  C         -1.3130   -7.2490    2.4600 C.2   119  LEU119      0.2260
    143  O         -2.1190   -6.3300    2.6000 O.2   119  LEU119     -0.2867
    144  CB         0.4720   -7.7520    4.2020 C.3   119  LEU119      0.0270
    145  CG         0.7070   -6.2370    4.4380 C.3   119  LEU119      0.0019
    146  CD1       -0.3800   -5.6320    5.3220 C.3   119  LEU119      0.0001
    147  CD2        2.0820   -5.9580    5.0190 C.3   119  LEU119      0.0001
    148  N         -4.6340   -4.7340    1.8940 N.3   123  ILE123     -0.1245
    149  CA        -4.5960   -3.3060    1.6120 C.3   123  ILE123      0.1561
    150  C         -5.3500   -2.9640    0.3270 C.2   123  ILE123      0.2260
    151  O         -6.0370   -1.9490    0.2550 O.2   123  ILE123     -0.2867
    152  CB        -3.1470   -2.7950    1.4620 C.3   123  ILE123      0.0252
    153  CG1       -2.4030   -2.9810    2.7990 C.3   123  ILE123      0.0019
    154  CG2       -3.1720   -1.3080    1.0210 C.3   123  ILE123      0.0019
    155  CD1       -0.8840   -3.0490    2.7060 C.3   123  ILE123      0.0001
@<TRIPOS>BOND
     1   151   150    2
     2   150   149    1
     3    92    93    1
     4   154   152    1
     5   117   115    1
     6    91    90   ar
     7    91    89   ar
     8    94    93    1
     9    94    95    2
    10    90    88   ar
    11   152   149    1
    12   152   153    1
    13   149   148    1
    14   103   104    1
    15    93    96    1
    16   115   114    1
    17   115   116    1
    18    96    97    1
    19    89    87   ar
    20   142   143    2
    21   142   141    1
    22   114   111    1
    23   155   153    1
    24    88    86   ar
    25   112   111    1
    26   112   113    2
    27   110   111    1
    28   110   105   am
    29    97    98    1
    30   140   141    1
    31   104   105    1
    32   104   107    1
    33    87    86   ar
    34   105   106    2
    35   141   144    1
    36    98    99    1
    37   108   107    1
    38    86    85    1
    39   131   130    1
    40   131   132    2
    41   107   109    1
    42   144   145    1
    43   130   129    1
    44   145   147    1
    45   145   146    1
    46   129   120   am
    47   118   119    1
    48    99   100    2
    49    72    71    1
    50    72    73    1
    51     8     6   am
    52    84    83    2
    53    85    82    1
    54   102   100    1
    55     7     6    2
    56     6     5    1
    57    83    82    1
    58   120   119    1
    59   120   121    2
    60   100   101    1
    61   119   122    1
    62    71    70    1
    63    82    81    1
    64     5     2    1
    65     1     2    1
    66   122   123    1
    67    33    34   ar
    68    33    31   ar
    69    16    18   ar
    70    16    14   ar
    71    34    32   ar
    72    18    17   ar
    73    70    67    1
    74   135   136    2
    75   135   134    1
    76   133   134    1
    77     2     3    1
    78    81    76   am
    79    69    68    2
    80    68    67    1
    81   137   134    1
    82   137   139    1
    83   137   138    1
    84    31    29   ar
    85   123   125   ar
    86   123   124   ar
    87    67    66    1
    88    32    30   ar
    89    14    13    1
    90    14    15   ar
    91    17    15   ar
    92    77    76    2
    93   125   127   ar
    94     3     9   am
    95     3     4    2
    96     9    10    1
    97    76    75    1
    98    13    10    1
    99   124   126   ar
   100    57    56    1
   101    53    54    2
   102    53    52    1
   103    55    52    1
   104    55    56    1
   105    29    30   ar
   106    29    28    1
   107    66    61   am
   108    10    11    1
   109   127   128   ar
   110    52    51    1
   111    79    78    1
   112    75    74    1
   113    75    78    1
   114    56    58    1
   115   126   128   ar
   116    78    80    1
   117    11    12    2
   118    62    61    2
   119    61    60    1
   120    28    25    1
   121    59    60    1
   122    60    63    1
   123    25    24    1
   124    25    26    1
   125    49    48    1
   126    63    65    1
   127    63    64    1
   128    24    21   am
   129    26    27    2
   130    40    39    1
   131    40    41    1
   132    42    41    1
   133    23    20    1
   134    21    22    2
   135    21    20    1
   136    39    36    1
   137    48    50    1
   138    48    47    1
   139    19    20    1
   140    47    44    1
   141    37    36    1
   142    37    38    2
   143    36    35    1
   144    44    45    1
   145    44    43    1
   146    46    45    2
