@<TRIPOS>MOLECULE
tmp/3wizB00.pdb
 186 180 0 0 0
SMALL
GASTEIGER

@<TRIPOS>ATOM
      1  N         45.9740   -9.0320    0.8980 N.3    38  ALA38      -0.1245
      2  CA        46.4160   -8.1700    1.9930 C.3    38  ALA38       0.1562
      3  C         46.2790   -6.6810    1.6260 C.2    38  ALA38       0.2260
      4  O         45.9000   -5.8620    2.4640 O.2    38  ALA38      -0.2867
      5  CB        47.8430   -8.5130    2.4040 C.3    38  ALA38       0.0290
      6  N         42.5260   -5.9070    1.9910 N.3    41  GLU41      -0.1231
      7  CA        42.0890   -5.7560    3.3830 C.3    41  GLU41       0.1699
      8  C         42.6340   -4.4660    4.0150 C.2    41  GLU41       0.2592
      9  O         41.9170   -3.7810    4.7580 O.2    41  GLU41      -0.2718
     10  CB        42.4710   -6.9730    4.2360 C.3    41  GLU41       0.0402
     11  CG        41.7190   -7.0190    5.5660 C.3    41  GLU41       0.1161
     12  CD        42.0710   -8.2140    6.4390 C.2    41  GLU41       0.3649
     13  OE1       42.6760   -9.1880    5.9360 O.co2  41  GLU41      -0.2457
     14  OE2       41.7330   -8.1810    7.6460 O.co2  41  GLU41      -0.2457
     15  N         43.8980   -4.1500    3.7230 N.am   42  PHE42      -0.1976
     16  CA        44.5400   -2.9490    4.2390 C.3    42  PHE42       0.1639
     17  C         43.7710   -1.7130    3.7840 C.2    42  PHE42       0.2290
     18  O         43.5260   -0.8020    4.5570 O.2    42  PHE42      -0.2864
     19  CB        45.9820   -2.8440    3.7350 C.3    42  PHE42       0.0560
     20  CG        46.6790   -1.5860    4.1900 C.ar   42  PHE42      -0.0200
     21  CD1       47.1670   -1.4740    5.5030 C.ar   42  PHE42      -0.0042
     22  CD2       46.8130   -0.5030    3.3360 C.ar   42  PHE42      -0.0042
     23  CE1       47.8060   -0.3150    5.9370 C.ar   42  PHE42      -0.0003
     24  CE2       47.4420    0.6640    3.7610 C.ar   42  PHE42      -0.0003
     25  CZ        47.9420    0.7590    5.0620 C.ar   42  PHE42      -0.0000
     26  N         40.4480   -1.4700    5.6210 N.3    45  ARG45      -0.1231
     27  CA        40.5920   -1.0970    7.0250 C.3    45  ARG45       0.1694
     28  C         41.1040    0.3170    7.2070 C.2    45  ARG45       0.2592
     29  O         40.6810    1.0130    8.1260 O.2    45  ARG45      -0.2718
     30  CB        41.4950   -2.0900    7.7590 C.3    45  ARG45       0.0321
     31  CG        40.8870   -3.4820    7.9270 C.3    45  ARG45       0.0489
     32  CD        41.9300   -4.4070    8.5380 C.3    45  ARG45       0.2205
     33  NE        41.3610   -5.6160    9.1220 N.pl3  45  ARG45      -0.0865
     34  CZ        41.9580   -6.3330   10.0680 C.cat  45  ARG45       0.5346
     35  NH1       43.1420   -5.9610   10.5510 N.pl3  45  ARG45       0.1354
     36  NH2       41.3670   -7.4220   10.5370 N.pl3  45  ARG45       0.1354
     37  N         41.9800    0.7590    6.3100 N.am   46  TYR46      -0.1976
     38  CA        42.6740    2.0240    6.5140 C.3    46  TYR46       0.1639
     39  C         42.4460    3.1300    5.4850 C.2    46  TYR46       0.2290
     40  O         43.0440    4.1870    5.6170 O.2    46  TYR46      -0.2864
     41  CB        44.1800    1.7860    6.6700 C.3    46  TYR46       0.0560
     42  CG        44.5240    0.9360    7.8610 C.ar   46  TYR46      -0.0198
     43  CD1       44.5730    1.4880    9.1390 C.ar   46  TYR46      -0.0009
     44  CD2       44.8000   -0.4180    7.7190 C.ar   46  TYR46      -0.0009
     45  CE1       44.8790    0.7110   10.2460 C.ar   46  TYR46       0.0417
     46  CE2       45.0920   -1.2100    8.8240 C.ar   46  TYR46       0.0417
     47  CZ        45.1220   -0.6360   10.0850 C.ar   46  TYR46       0.1957
     48  OH        45.4220   -1.3950   11.1870 O.3    46  TYR46      -0.2866
     49  N         41.5640    6.5050    7.0450 N.3    49  ALA49      -0.1231
     50  CA        42.7060    7.0840    7.7700 C.3    49  ALA49       0.1694
     51  C         43.8830    7.5040    6.8680 C.2    49  ALA49       0.2592
     52  O         44.5960    8.4580    7.1820 O.2    49  ALA49      -0.2718
     53  CB        43.1760    6.1270    8.8640 C.3    49  ALA49       0.0304
     54  N         44.0760    6.7870    5.7610 N.am   50  PHE50      -0.1976
     55  CA        45.1280    7.0730    4.7790 C.3    50  PHE50       0.1639
     56  C         44.6500    8.2400    3.9090 C.2    50  PHE50       0.2290
     57  O         45.4580    9.0500    3.4540 O.2    50  PHE50      -0.2864
     58  CB        45.3560    5.8210    3.9000 C.3    50  PHE50       0.0560
     59  CG        46.8160    5.4000    3.7110 C.ar   50  PHE50      -0.0200
     60  CD1       47.7530    5.4860    4.7470 C.ar   50  PHE50      -0.0042
     61  CD2       47.2310    4.8330    2.4910 C.ar   50  PHE50      -0.0042
     62  CE1       49.0740    5.0640    4.5500 C.ar   50  PHE50      -0.0003
     63  CE2       48.5450    4.4040    2.2930 C.ar   50  PHE50      -0.0003
     64  CZ        49.4710    4.5210    3.3270 C.ar   50  PHE50      -0.0000
     65  N         45.7030   12.0160    3.6790 N.3    53  LEU53      -0.1231
     66  CA        47.0460   12.2470    3.1470 C.3    53  LEU53       0.1693
     67  C         47.1540   11.9260    1.6490 C.2    53  LEU53       0.2592
     68  O         47.7790   12.6760    0.8960 O.2    53  LEU53      -0.2718
     69  CB        48.1010   11.4660    3.9550 C.3    53  LEU53       0.0284
     70  CG        48.4730   11.8520    5.4040 C.3    53  LEU53       0.0019
     71  CD1       48.7630   13.3440    5.5580 C.3    53  LEU53       0.0001
     72  CD2       47.4250   11.4090    6.4190 C.3    53  LEU53       0.0001
     73  N         46.5320   10.8270    1.2220 N.am   54  THR54      -0.1953
     74  CA        46.5810   10.3920   -0.1850 C.3    54  THR54       0.1897
     75  C         45.5150   11.0640   -1.0730 C.2    54  THR54       0.2313
     76  O         45.0830   10.5050   -2.0880 O.2    54  THR54      -0.2863
     77  CB        46.4930    8.8490   -0.3180 C.3    54  THR54       0.1794
     78  OG1       45.2010    8.3880    0.1070 O.3    54  THR54      -0.2208
     79  CG2       47.5920    8.1640    0.5040 C.3    54  THR54       0.0378
     80  N         47.9790   14.0460   -3.4930 N.3    57  LEU57      -0.1245
     81  CA        49.1910   13.4030   -4.0170 C.3    57  LEU57       0.1561
     82  C         48.9850   12.7300   -5.3780 C.2    57  LEU57       0.2260
     83  O         48.4100   11.6390   -5.4830 O.2    57  LEU57      -0.2867
     84  CB        49.7990   12.4400   -2.9850 C.3    57  LEU57       0.0270
     85  CG        50.9690   12.9670   -2.1330 C.3    57  LEU57       0.0019
     86  CD1       50.6100   14.1920   -1.2990 C.3    57  LEU57       0.0001
     87  CD2       51.5340   11.8750   -1.2370 C.3    57  LEU57       0.0001
     88  N         59.2150   10.6430    0.9290 N.3    71  VAL71      -0.1231
     89  CA        57.8870   10.4000    1.5110 C.3    71  VAL71       0.1692
     90  C         57.7520    8.9650    2.0130 C.2    71  VAL71       0.2591
     91  O         57.3340    8.7360    3.1440 O.2    71  VAL71      -0.2718
     92  CB        56.7470   10.7300    0.5220 C.3    71  VAL71       0.0266
     93  CG1       55.4010   10.2380    1.0500 C.3    71  VAL71       0.0020
     94  CG2       56.6950   12.2340    0.2530 C.3    71  VAL71       0.0020
     95  N         58.1150    8.0010    1.1750 N.am   72  VAL72      -0.1980
     96  CA        58.0040    6.6020    1.5590 C.3    72  VAL72       0.1595
     97  C         58.8640    6.2440    2.7890 C.2    72  VAL72       0.2287
     98  O         58.3960    5.5130    3.6590 O.2    72  VAL72      -0.2864
     99  CB        58.2430    5.6510    0.3590 C.3    72  VAL72       0.0276
    100  CG1       58.2370    4.1960    0.8090 C.3    72  VAL72       0.0022
    101  CG2       57.1530    5.8470   -0.6820 C.3    72  VAL72       0.0022
    102  N         59.3120    7.7410    5.4170 N.3    74  GLU74      -0.1231
    103  CA        58.5090    7.9780    6.6250 C.3    74  GLU74       0.1699
    104  C         57.8000    6.7290    7.1350 C.2    74  GLU74       0.2592
    105  O         57.7530    6.4810    8.3380 O.2    74  GLU74      -0.2718
    106  CB        57.4940    9.1100    6.4070 C.3    74  GLU74       0.0402
    107  CG        58.1130   10.5020    6.4280 C.3    74  GLU74       0.1161
    108  CD        59.1170   10.6730    7.5600 C.2    74  GLU74       0.3649
    109  OE1       60.3400   10.6860    7.2750 O.co2  74  GLU74      -0.2457
    110  OE2       58.6870   10.7610    8.7340 O.co2  74  GLU74      -0.2457
    111  N         57.2640    5.9400    6.2080 N.am   75  LEU75      -0.1980
    112  CA        56.5400    4.7170    6.5340 C.3    75  LEU75       0.1596
    113  C         57.4460    3.6970    7.2210 C.2    75  LEU75       0.2287
    114  O         56.9860    2.8880    8.0200 O.2    75  LEU75      -0.2864
    115  CB        55.9500    4.1190    5.2450 C.3    75  LEU75       0.0297
    116  CG        55.1880    2.7900    5.2390 C.3    75  LEU75       0.0022
    117  CD1       53.9070    2.9040    6.0440 C.3    75  LEU75       0.0001
    118  CD2       54.8680    2.3770    3.8140 C.3    75  LEU75       0.0001
    119  N         60.4910    3.6180   11.6890 N.3    78  ASP78      -0.1239
    120  CA        60.6660    2.7020   12.8250 C.3    78  ASP78       0.1674
    121  C         60.9900    1.2690   12.4020 C.2    78  ASP78       0.2266
    122  O         60.8480    0.3340   13.1990 O.2    78  ASP78      -0.2867
    123  CB        59.4240    2.6960   13.7260 C.3    78  ASP78       0.1410
    124  CG        59.0460    4.0780   14.2140 C.2    78  ASP78       0.3668
    125  OD1       59.9570    4.8950   14.4680 O.co2  78  ASP78      -0.2456
    126  OD2       57.8310    4.3430   14.3450 O.co2  78  ASP78      -0.2456
    127  N         58.4750   -4.0510    8.4960 N.3    81  ASN81      -0.1225
    128  CA        57.7340   -5.2910    8.7150 C.3    81  ASN81       0.1785
    129  C         56.7710   -5.5150    7.5550 C.2    81  ASN81       0.2597
    130  O         56.6130   -4.6300    6.7010 O.2    81  ASN81      -0.2718
    131  CB        57.0170   -5.2860   10.0730 C.3    81  ASN81       0.1169
    132  CG        55.9670   -4.2070   10.1700 C.2    81  ASN81       0.2627
    133  OD1       55.1810   -4.0060    9.2480 O.2    81  ASN81      -0.2716
    134  ND2       55.9470   -3.5050   11.2900 N.am   81  ASN81      -0.0877
    135  N         56.1360   -6.6880    7.5220 N.am   82  TRP82      -0.1962
    136  CA        55.2790   -7.0770    6.4020 C.3    82  TRP82       0.1771
    137  C         54.1110   -6.1180    6.2280 C.2    82  TRP82       0.2620
    138  O         53.7270   -5.8150    5.1010 O.2    82  TRP82      -0.2715
    139  CB        54.7490   -8.5010    6.5610 C.3    82  TRP82       0.0590
    140  CG        55.8020   -9.5530    6.3980 C.ar   82  TRP82       0.0006
    141  CD1       56.2580  -10.4160    7.3610 C.ar   82  TRP82       0.0946
    142  CD2       56.5410   -9.8570    5.2050 C.ar   82  TRP82       0.0152
    143  NE1       57.2180  -11.2450    6.8360 N.ar   82  TRP82      -0.2442
    144  CE2       57.4180  -10.9220    5.5190 C.ar   82  TRP82       0.0810
    145  CE3       56.5450   -9.3380    3.9020 C.ar   82  TRP82       0.0012
    146  CZ2       58.2930  -11.4750    4.5790 C.ar   82  TRP82       0.0191
    147  CZ3       57.4130   -9.8900    2.9650 C.ar   82  TRP82       0.0001
    148  CH2       58.2750  -10.9490    3.3090 C.ar   82  TRP82       0.0015
    149  N         53.5630   -5.6490    7.3480 N.am   83  GLY83      -0.1940
    150  CA        52.4460   -4.7190    7.3420 C.3    83  GLY83       0.2014
    151  C         52.8100   -3.4620    6.5860 C.2    83  GLY83       0.2638
    152  O         52.0730   -3.0020    5.7090 O.2    83  GLY83      -0.2714
    153  N         53.9790   -2.9340    6.9020 N.am   84  ARG84      -0.1977
    154  CA        54.4670   -1.7300    6.2540 C.3    84  ARG84       0.1597
    155  C         54.8280   -1.9770    4.8030 C.2    84  ARG84       0.2287
    156  O         54.6520   -1.0840    3.9670 O.2    84  ARG84      -0.2864
    157  CB        55.6270   -1.1340    7.0290 C.3    84  ARG84       0.0334
    158  CG        55.1980   -0.6920    8.4140 C.3    84  ARG84       0.0492
    159  CD        56.3350   -0.0600    9.1770 C.3    84  ARG84       0.2205
    160  NE        55.8550    0.4730   10.4450 N.pl3  84  ARG84      -0.0865
    161  CZ        56.4930    0.3170   11.6020 C.cat  84  ARG84       0.5346
    162  NH1       57.6290   -0.3640   11.6560 N.pl3  84  ARG84       0.1354
    163  NH2       55.9930    0.8340   12.7110 N.pl3  84  ARG84       0.1354
    164  N         53.1390   -4.0530    2.8930 N.3    86  VAL86      -0.1231
    165  CA        51.8110   -4.0550    2.2810 C.3    86  VAL86       0.1692
    166  C         51.2780   -2.6280    2.0840 C.2    86  VAL86       0.2591
    167  O         50.7310   -2.2950    1.0150 O.2    86  VAL86      -0.2718
    168  CB        50.8350   -4.9450    3.0850 C.3    86  VAL86       0.0266
    169  CG1       49.4240   -4.8900    2.5070 C.3    86  VAL86       0.0020
    170  CG2       51.3280   -6.3860    3.0620 C.3    86  VAL86       0.0020
    171  N         51.4760   -1.7850    3.0970 N.am   87  ALA87      -0.1980
    172  CA        51.1040   -0.3740    3.0180 C.3    87  ALA87       0.1597
    173  C         51.8160    0.2920    1.8480 C.2    87  ALA87       0.2287
    174  O         51.2280    1.0910    1.1260 O.2    87  ALA87      -0.2864
    175  CB        51.4440    0.3380    4.3070 C.3    87  ALA87       0.0319
    176  N         50.0140    2.0590   -1.1300 N.3    91  PHE91      -0.1241
    177  CA        50.3140    3.4590   -1.3440 C.3    91  PHE91       0.1605
    178  C         50.6580    3.6450   -2.8200 C.2    91  PHE91       0.2264
    179  O         50.0620    4.4910   -3.5050 O.2    91  PHE91      -0.2867
    180  CB        51.4530    3.9080   -0.4100 C.3    91  PHE91       0.0534
    181  CG        51.9800    5.2930   -0.6960 C.ar   91  PHE91      -0.0203
    182  CD1       51.2070    6.4260   -0.4290 C.ar   91  PHE91      -0.0042
    183  CD2       53.2570    5.4670   -1.2310 C.ar   91  PHE91      -0.0042
    184  CE1       51.7010    7.7030   -0.6880 C.ar   91  PHE91      -0.0003
    185  CE2       53.7510    6.7410   -1.4950 C.ar   91  PHE91      -0.0003
    186  CZ        52.9730    7.8610   -1.2250 C.ar   91  PHE91      -0.0000
@<TRIPOS>BOND
     1    83    82    2
     2    82    81    1
     3    81    80    1
     4    81    84    1
     5   179   178    2
     6    84    85    1
     7   178   177    1
     8    85    86    1
     9    85    87    1
    10    76    75    2
    11   185   183   ar
    12   185   186   ar
    13   177   176    1
    14   177   180    1
    15   183   181   ar
    16   186   184   ar
    17    75    74    1
    18   181   182   ar
    19   181   180    1
    20   184   182   ar
    21   101    99    1
    22    77    74    1
    23    77    78    1
    24    77    79    1
    25    74    73    1
    26    94    92    1
    27    99   100    1
    28    99    96    1
    29    92    93    1
    30    92    89    1
    31    68    67    2
    32     1     2    1
    33    88    89    1
    34   167   166    2
    35   174   173    2
    36    95    96    1
    37    95    90   am
    38    73    67   am
    39    89    90    1
    40    96    97    1
    41     3     2    1
    42     3     4    2
    43    67    66    1
    44   173   172    1
    45     6     7    1
    46     2     5    1
    47    90    91    2
    48   166   165    1
    49   166   171   am
    50   165   164    1
    51   165   168    1
    52    63    61   ar
    53    63    64   ar
    54    61    59   ar
    55   169   168    1
    56    97    98    2
    57   147   148   ar
    58   147   145   ar
    59   172   171    1
    60   172   175    1
    61   170   168    1
    62    66    65    1
    63    66    69    1
    64   148   146   ar
    65    64    62   ar
    66    22    24   ar
    67    22    20   ar
    68     7     8    1
    69     7    10    1
    70    57    56    2
    71    59    58    1
    72    59    60   ar
    73    15     8   am
    74    15    16    1
    75    19    20    1
    76    19    16    1
    77    24    25   ar
    78    17    16    1
    79    17    18    2
    80   118   116    1
    81    58    55    1
    82   145   142   ar
    83    56    55    1
    84    69    70    1
    85   156   155    2
    86     8     9    2
    87    20    21   ar
    88    10    11    1
    89    62    60   ar
    90   146   144   ar
    91    55    54    1
    92   155   154    1
    93    25    23   ar
    94   138   137    2
    95   142   144   ar
    96   142   140   ar
    97   116   115    1
    98   116   117    1
    99   115   112    1
   100    70    71    1
   101    70    72    1
   102   102   103    1
   103    39    40    2
   104    39    38    1
   105    21    23   ar
   106   144   143   ar
   107    11    12    1
   108    26    27    1
   109   152   151    2
   110    54    51   am
   111    13    12   ar
   112   111   112    1
   113   111   104   am
   114   137   136    1
   115   137   149   am
   116   154   153    1
   117   154   157    1
   118    37    38    1
   119    37    28   am
   120   140   139    1
   121   140   141   ar
   122   136   139    1
   123   136   135    1
   124   106   107    1
   125   106   103    1
   126   107   108    1
   127    12    14   ar
   128    38    41    1
   129   112   113    1
   130   151   153   am
   131   151   150    1
   132   103   104    1
   133    41    42    1
   134   130   129    2
   135   143   141   ar
   136    51    52    2
   137    51    50    1
   138    27    28    1
   139    27    30    1
   140   157   158    1
   141    49    50    1
   142   104   105    2
   143    28    29    2
   144   113   114    2
   145   109   108   ar
   146   150   149    1
   147   135   129   am
   148   129   128    1
   149   108   110   ar
   150    44    42   ar
   151    44    46   ar
   152    30    31    1
   153    50    53    1
   154    42    43   ar
   155    31    32    1
   156   158   159    1
   157   127   128    1
   158    32    33    1
   159   128   131    1
   160    46    47   ar
   161    33    34    2
   162    43    45   ar
   163   159   160    1
   164   133   132    2
   165    34    36    1
   166    34    35    1
   167   131   132    1
   168    47    45   ar
   169    47    48    1
   170   132   134   am
   171   160   161    2
   172   161   162    1
   173   161   163    1
   174   119   120    1
   175   121   120    1
   176   121   122    2
   177   120   123    1
   178   123   124    1
   179   124   126   ar
   180   124   125   ar
