@<TRIPOS>MOLECULE
tmp/3wj1A00.pdb
 159 153 0 0 0
SMALL
GASTEIGER

@<TRIPOS>ATOM
      1  N         12.2950   16.7050   14.4060 N.3    80  GLY80      -0.1210
      2  CA        12.1240   15.9130   13.1880 C.3    80  GLY80       0.1956
      3  C         11.9420   14.4130   13.3990 C.2    80  GLY80       0.2611
      4  O         12.1780   13.6130   12.4710 O.2    80  GLY80      -0.2717
      5  N         11.5140   14.0370   14.6100 N.am   81  PHE81      -0.1976
      6  CA        11.3590   12.6360   15.0280 C.3    81  PHE81       0.1639
      7  C         12.6760   11.9260   15.2280 C.2    81  PHE81       0.2290
      8  O         12.6800   10.7260   15.5060 O.2    81  PHE81      -0.2864
      9  CB        10.4660   11.8390   14.0720 C.3    81  PHE81       0.0560
     10  CG         9.1600   12.5100   13.7350 C.ar   81  PHE81      -0.0200
     11  CD1        8.0670   12.4330   14.6000 C.ar   81  PHE81      -0.0042
     12  CD2        9.0070   13.1660   12.5280 C.ar   81  PHE81      -0.0042
     13  CE1        6.8490   13.0400   14.2560 C.ar   81  PHE81      -0.0003
     14  CE2        7.8070   13.7740   12.1970 C.ar   81  PHE81      -0.0003
     15  CZ         6.7350   13.6930   13.0540 C.ar   81  PHE81      -0.0000
     16  N          6.8480   21.5240   16.2830 N.3   150  SER150     -0.1202
     17  CA         7.3410   20.9460   15.0520 C.3   150  SER150      0.2020
     18  C          6.9410   19.4630   14.9580 C.2   150  SER150      0.2618
     19  O          5.7460   19.1670   14.9460 O.2   150  SER150     -0.2717
     20  CB         8.8300   21.2060   14.9150 C.3   150  SER150      0.2103
     21  OG         9.2700   20.9120   13.6100 O.3   150  SER150     -0.2182
     22  N          7.8810   18.5190   14.9080 N.am  151  ALA151     -0.1979
     23  CA         7.5540   17.1030   14.9730 C.3   151  ALA151      0.1597
     24  C          6.7550   16.8010   16.2510 C.2   151  ALA151      0.2287
     25  O          5.8570   15.9860   16.2400 O.2   151  ALA151     -0.2864
     26  CB         8.8350   16.2690   14.9200 C.3   151  ALA151      0.0319
     27  N          4.2880   20.1800   12.1270 N.3   178  ALA178     -0.1245
     28  CA         4.1290   19.4570   10.8660 C.3   178  ALA178      0.1562
     29  C          2.8120   18.7110   10.9770 C.2   178  ALA178      0.2260
     30  O          2.5450   18.0870   11.9950 O.2   178  ALA178     -0.2867
     31  CB         5.2690   18.4910   10.6850 C.3   178  ALA178      0.0290
     32  N          1.4560   16.7940    8.1300 N.3   180  GLY180     -0.1210
     33  CA         1.4190   15.7530    7.1130 C.3   180  GLY180      0.1956
     34  C          2.4510   15.9990    6.0370 C.2   180  GLY180      0.2612
     35  O          3.4890   16.6250    6.2880 O.2   180  GLY180     -0.2717
     36  N          2.1700   15.4580    4.8560 N.am  181  PHE181     -0.1962
     37  CA         3.0490   15.5300    3.6880 C.3   181  PHE181      0.1771
     38  C          2.5900   16.7490    2.8880 C.2   181  PHE181      0.2619
     39  O          1.3780   16.9830    2.7410 O.2   181  PHE181     -0.2715
     40  CB         2.8900   14.2280    2.8800 C.3   181  PHE181      0.0574
     41  CG         3.8340   14.0730    1.6950 C.ar  181  PHE181     -0.0200
     42  CD1        5.1450   14.5150    1.7370 C.ar  181  PHE181     -0.0042
     43  CD2        3.3960   13.4240    0.5490 C.ar  181  PHE181     -0.0042
     44  CE1        5.9950   14.3440    0.6450 C.ar  181  PHE181     -0.0003
     45  CE2        4.2430   13.2440   -0.5440 C.ar  181  PHE181     -0.0003
     46  CZ         5.5460   13.7050   -0.4860 C.ar  181  PHE181     -0.0000
     47  N          3.5400   17.5660    2.4610 N.am  182  ASP182     -0.1971
     48  CA         3.2370   18.8100    1.7550 C.3   182  ASP182      0.1709
     49  C          4.2920   19.0050    0.6830 C.2   182  ASP182      0.2293
     50  O          5.4550   19.2710    0.9790 O.2   182  ASP182     -0.2864
     51  CB         3.2530   19.9860    2.7400 C.3   182  ASP182      0.1436
     52  CG         3.0920   21.3470    2.0670 C.2   182  ASP182      0.3671
     53  OD1        2.8520   21.4140    0.8320 O.co2 182  ASP182     -0.2456
     54  OD2        3.2210   22.3700    2.7780 O.co2 182  ASP182     -0.2456
     55  N         15.0840   25.6000    9.1350 N.3   197  LEU197     -0.1245
     56  CA        14.4810   24.3480    8.7250 C.3   197  LEU197      0.1561
     57  C         14.3220   24.4140    7.2220 C.2   197  LEU197      0.2260
     58  O         13.6480   25.3110    6.7230 O.2   197  LEU197     -0.2867
     59  CB        13.1170   24.1490    9.3720 C.3   197  LEU197      0.0270
     60  CG        12.3660   22.8800    8.9250 C.3   197  LEU197      0.0019
     61  CD1       13.0750   21.6100    9.3890 C.3   197  LEU197      0.0001
     62  CD2       10.8860   22.8720    9.3680 C.3   197  LEU197      0.0001
     63  N         13.6250   18.4040    6.0260 N.3   202  ILE202     -0.1231
     64  CA        12.3110   17.8170    6.1730 C.3   202  ILE202      0.1692
     65  C         12.2980   16.4430    5.5010 C.2   202  ILE202      0.2591
     66  O         11.8330   15.4550    6.0830 O.2   202  ILE202     -0.2718
     67  CB        11.2160   18.7480    5.5700 C.3   202  ILE202      0.0266
     68  CG1       11.0470   19.9730    6.4450 C.3   202  ILE202      0.0019
     69  CG2        9.8850   18.0150    5.4330 C.3   202  ILE202      0.0020
     70  CD1       10.2780   21.1180    5.7910 C.3   202  ILE202      0.0001
     71  N         12.8060   16.3770    4.2760 N.am  203  GLU203     -0.1979
     72  CA        12.8400   15.1180    3.5310 C.3   203  GLU203      0.1602
     73  C         13.6900   14.0760    4.2460 C.2   203  GLU203      0.2287
     74  O         13.3320   12.8990    4.3000 O.2   203  GLU203     -0.2864
     75  CB        13.3330   15.3610    2.0960 C.3   203  GLU203      0.0415
     76  CG        12.3240   16.2050    1.3100 C.3   203  GLU203      0.1163
     77  CD        12.8250   16.7900   -0.0050 C.2   203  GLU203      0.3649
     78  OE1       14.0620   16.9350   -0.2130 O.co2 203  GLU203     -0.2457
     79  OE2       11.9440   17.1490   -0.8390 O.co2 203  GLU203     -0.2457
     80  N         14.4050   13.9090    7.5500 N.3   205  PHE205     -0.1227
     81  CA        13.6290   13.4530    8.6990 C.3   205  PHE205      0.1736
     82  C         12.5500   12.4480    8.3050 C.2   205  PHE205      0.2596
     83  O         12.3980   11.4120    8.9490 O.2   205  PHE205     -0.2718
     84  CB        12.9580   14.6340    9.4030 C.3   205  PHE205      0.0547
     85  CG        13.8980   15.5480   10.1520 C.ar  205  PHE205     -0.0202
     86  CD1       14.8480   15.0690   11.0540 C.ar  205  PHE205     -0.0042
     87  CD2       13.7470   16.9110   10.0360 C.ar  205  PHE205     -0.0042
     88  CE1       15.6220   15.9290   11.7810 C.ar  205  PHE205     -0.0003
     89  CE2       14.5430   17.7760   10.7520 C.ar  205  PHE205     -0.0003
     90  CZ        15.4800   17.2790   11.6340 C.ar  205  PHE205     -0.0000
     91  N         11.8230   12.7370    7.2280 N.am  206  GLY206     -0.1942
     92  CA        10.7960   11.8370    6.7110 C.3   206  GLY206      0.2014
     93  C         11.3740   10.4800    6.3420 C.2   206  GLY206      0.2639
     94  O         10.7430    9.4460    6.6120 O.2   206  GLY206     -0.2714
     95  N         12.5740   10.4770    5.7640 N.am  207  SER207     -0.1949
     96  CA        13.2450    9.2390    5.3380 C.3   207  SER207      0.1924
     97  C         13.6660    8.3750    6.5190 C.2   207  SER207      0.2314
     98  O         13.7450    7.1490    6.4080 O.2   207  SER207     -0.2863
     99  CB        14.4590    9.5580    4.4550 C.3   207  SER207      0.2116
    100  OG        15.6410    9.8950    5.1940 O.3   207  SER207     -0.2180
    101  N          9.6950    7.4950    8.6430 N.3   210  LEU210     -0.1231
    102  CA         8.6540    6.7000    8.0410 C.3   210  LEU210      0.1693
    103  C          9.2410    5.4070    7.4920 C.2   210  LEU210      0.2592
    104  O         10.4160    5.3420    7.1450 O.2   210  LEU210     -0.2718
    105  CB         7.9130    7.4880    6.9730 C.3   210  LEU210      0.0284
    106  CG         7.2100    8.7490    7.5250 C.3   210  LEU210      0.0019
    107  CD1        6.4490    9.3980    6.4060 C.3   210  LEU210      0.0001
    108  CD2        6.2820    8.5100    8.7230 C.3   210  LEU210      0.0001
    109  N          8.4010    4.3800    7.4340 N.am  211  ARG211     -0.1966
    110  CA         8.8420    3.0600    6.9710 C.3   211  ARG211      0.1729
    111  C          8.6630    2.8730    5.4740 C.2   211  ARG211      0.2617
    112  O          9.4510    2.1530    4.8350 O.2   211  ARG211     -0.2715
    113  CB         8.0780    1.9700    7.6850 C.3   211  ARG211      0.0348
    114  CG         8.1450    2.0420    9.1800 C.3   211  ARG211      0.0492
    115  CD         7.1060    1.1640    9.7980 C.3   211  ARG211      0.2205
    116  NE         5.7740    1.6830    9.5430 N.pl3 211  ARG211     -0.0865
    117  CZ         4.6600    1.2080   10.0870 C.cat 211  ARG211      0.5346
    118  NH1        4.6930    0.1790   10.9230 N.pl3 211  ARG211      0.1354
    119  NH2        3.4990    1.7580    9.7830 N.pl3 211  ARG211      0.1354
    120  N          7.6140    3.4770    4.9250 N.am  212  SER212     -0.1936
    121  CA         7.3080    3.3780    3.5090 C.3   212  SER212      0.2040
    122  C          6.4490    4.5760    3.1300 C.2   212  SER212      0.2485
    123  O          5.9500    5.2790    4.0000 O.2   212  SER212     -0.2729
    124  CB         6.5550    2.0740    3.2100 C.3   212  SER212      0.2129
    125  OG         5.2330    2.0770    3.7240 O.3   212  SER212     -0.2179
    126  N          6.2760    4.8290    1.8310 N.am  213  PRO213     -0.2726
    127  CA         5.3720    5.9210    1.4490 C.3   213  PRO213      0.1402
    128  C          3.9250    5.7840    1.9390 C.2   213  PRO213      0.2269
    129  O          3.2650    6.7940    2.1250 O.2   213  PRO213     -0.2865
    130  CB         5.4500    5.9140   -0.0810 C.3   213  PRO213      0.0296
    131  CG         6.7410    5.2510   -0.3850 C.3   213  PRO213      0.0237
    132  CD         6.9010    4.2020    0.6560 C.3   213  PRO213      0.0939
    133  N          2.8020    7.9570    4.7960 N.3   216  LEU216     -0.1245
    134  CA         2.4170    9.3390    4.5050 C.3   216  LEU216      0.1561
    135  C          0.8990    9.5360    4.5590 C.2   216  LEU216      0.2260
    136  O          0.4250   10.6430    4.7880 O.2   216  LEU216     -0.2867
    137  CB         2.9200    9.7490    3.1220 C.3   216  LEU216      0.0270
    138  CG         4.4310    9.7770    2.9220 C.3   216  LEU216      0.0019
    139  CD1        4.7120    9.8060    1.4210 C.3   216  LEU216      0.0001
    140  CD2        5.0650   10.9500    3.6380 C.3   216  LEU216      0.0001
    141  N          0.4890   10.0860   11.0380 N.3   221  PHE221     -0.1241
    142  CA         1.5330   10.9590   10.5190 C.3   221  PHE221      0.1605
    143  C          0.9400   12.2380    9.9010 C.2   221  PHE221      0.2264
    144  O          1.5250   13.3210   10.0100 O.2   221  PHE221     -0.2867
    145  CB         2.4010   10.2540    9.4670 C.3   221  PHE221      0.0534
    146  CG         3.3830   11.1840    8.8320 C.ar  221  PHE221     -0.0203
    147  CD1        4.4620   11.6580    9.5610 C.ar  221  PHE221     -0.0042
    148  CD2        3.1780   11.6820    7.5490 C.ar  221  PHE221     -0.0042
    149  CE1        5.3340   12.5690    9.0270 C.ar  221  PHE221     -0.0003
    150  CE2        4.0730   12.5990    7.0120 C.ar  221  PHE221     -0.0003
    151  CZ         5.1470   13.0200    7.7370 C.ar  221  PHE221     -0.0000
    152  N          6.7750   25.1480    6.9820 N.3   245  LEU245     -0.1245
    153  CA         5.6060   24.4800    7.5630 C.3   245  LEU245      0.1561
    154  C          4.4620   25.4460    7.8640 C.2   245  LEU245      0.2260
    155  O          3.4100   25.0290    8.3080 O.2   245  LEU245     -0.2867
    156  CB         5.9710   23.7740    8.8600 C.3   245  LEU245      0.0270
    157  CG         7.1020   22.7720    8.8110 C.3   245  LEU245      0.0019
    158  CD1        7.1760   22.0920   10.1750 C.3   245  LEU245      0.0001
    159  CD2        6.9550   21.7460    7.7510 C.3   245  LEU245      0.0001
@<TRIPOS>BOND
     1    79    77   ar
     2    45    46   ar
     3    45    43   ar
     4    46    44   ar
     5   131   130    1
     6   131   132    1
     7    78    77   ar
     8   130   127    1
     9    77    76    1
    10    43    41   ar
    11    44    42   ar
    12   132   126    1
    13    49    50    2
    14    49    48    1
    15    53    52   ar
    16    76    75    1
    17   139   138    1
    18   127   126    1
    19   127   128    1
    20    41    42   ar
    21    41    40    1
    22    48    47    1
    23    48    51    1
    24   126   122   am
    25   128   129    2
    26    52    51    1
    27    52    54   ar
    28    75    72    1
    29    47    38   am
    30    39    38    2
    31    40    37    1
    32    38    37    1
    33   138   137    1
    34   138   140    1
    35   137   134    1
    36   122   121    1
    37   122   123    2
    38   124   121    1
    39   124   125    1
    40   121   120    1
    41    72    73    1
    42    72    71    1
    43    37    36    1
    44    73    74    2
    45    71    65   am
    46    99   100    1
    47    99    96    1
    48   134   135    1
    49   134   133    1
    50   135   136    2
    51   112   111    2
    52    36    34   am
    53   120   111   am
    54    96    95    1
    55    96    97    1
    56    69    67    1
    57   111   110    1
    58    65    66    2
    59    65    64    1
    60    67    64    1
    61    67    68    1
    62    95    93   am
    63    70    68    1
    64    63    64    1
    65    34    35    2
    66    34    33    1
    67    93    94    2
    68    93    92    1
    69   107   106    1
    70    98    97    2
    71    92    91    1
    72    58    57    2
    73   110   109    1
    74   110   113    1
    75   105   106    1
    76   105   102    1
    77   152   153    1
    78   150   148   ar
    79   150   151   ar
    80    33    32    1
    81   104   103    2
    82    57    56    1
    83    91    82   am
    84   109   103   am
    85   103   102    1
    86   106   108    1
    87   148   146   ar
    88    80    81    1
    89   153   154    1
    90   153   156    1
    91   113   114    1
    92   151   149   ar
    93   159   157    1
    94   154   155    2
    95   102   101    1
    96    82    81    1
    97    82    83    2
    98    81    84    1
    99    56    55    1
   100    56    59    1
   101   157   156    1
   102   157   158    1
   103   146   145    1
   104   146   147   ar
   105    60    62    1
   106    60    59    1
   107    60    61    1
   108   149   147   ar
   109   114   115    1
   110    84    85    1
   111   145   142    1
   112   116   115    1
   113   116   117    2
   114   119   117    1
   115   143   144    2
   116   143   142    1
   117    87    85   ar
   118    87    89   ar
   119   117   118    1
   120    85    86   ar
   121   142   141    1
   122    31    28    1
   123    89    90   ar
   124    28    29    1
   125    28    27    1
   126    29    30    2
   127    86    88   ar
   128    90    88   ar
   129    14    12   ar
   130    14    15   ar
   131     4     3    2
   132    12    10   ar
   133    15    13   ar
   134     2     3    1
   135     2     1    1
   136     3     5   am
   137    21    20    1
   138    10     9    1
   139    10    11   ar
   140     9     6    1
   141    13    11   ar
   142     5     6    1
   143    22    18   am
   144    22    23    1
   145    20    17    1
   146    26    23    1
   147    19    18    2
   148    18    17    1
   149    23    24    1
   150     6     7    1
   151    17    16    1
   152     7     8    2
   153    25    24    2
