@<TRIPOS>MOLECULE
tmp/3wj4B00.pdb
 172 161 0 0 0
SMALL
GASTEIGER

@<TRIPOS>ATOM
      1  N        -13.6830  -23.2010   20.7920 N.3    66  ALA66      -0.1245
      2  CA       -12.8130  -22.2840   20.0460 C.3    66  ALA66       0.1562
      3  C        -13.6160  -21.4580   19.0110 C.2    66  ALA66       0.2260
      4  O        -13.3740  -20.2420   18.8020 O.2    66  ALA66      -0.2867
      5  CB       -11.6920  -23.0680   19.3710 C.3    66  ALA66       0.0290
      6  N        -15.7410  -18.8340   20.8610 N.3    69  ILE69      -0.1231
      7  CA       -14.9320  -17.6900   21.2940 C.3    69  ILE69       0.1692
      8  C        -14.6910  -16.7930   20.0910 C.2    69  ILE69       0.2592
      9  O        -14.9470  -15.5810   20.1500 O.2    69  ILE69      -0.2718
     10  CB       -13.6300  -18.1300   21.9720 C.3    69  ILE69       0.0266
     11  CG1      -13.9580  -18.9110   23.2550 C.3    69  ILE69       0.0019
     12  CG2      -12.7250  -16.9110   22.2560 C.3    69  ILE69       0.0020
     13  CD1      -12.6640  -19.6400   23.8810 C.3    69  ILE69       0.0001
     14  N        -14.3070  -17.4020   18.9680 N.am   70  PHE70      -0.1976
     15  CA       -14.1150  -16.6770   17.7070 C.3    70  PHE70       0.1639
     16  C        -15.3490  -15.8870   17.2560 C.2    70  PHE70       0.2290
     17  O        -15.2370  -14.7040   16.9060 O.2    70  PHE70      -0.2864
     18  CB       -13.6600  -17.6230   16.5860 C.3    70  PHE70       0.0560
     19  CG       -13.4330  -16.9290   15.2690 C.ar   70  PHE70      -0.0200
     20  CD1      -12.2510  -16.2350   15.0290 C.ar   70  PHE70      -0.0042
     21  CD2      -14.3880  -16.9980   14.2560 C.ar   70  PHE70      -0.0042
     22  CE1      -12.0230  -15.6050   13.7820 C.ar   70  PHE70      -0.0003
     23  CE2      -14.1740  -16.3650   13.0150 C.ar   70  PHE70      -0.0003
     24  CZ       -12.9920  -15.6680   12.7870 C.ar   70  PHE70      -0.0000
     25  N        -15.7820  -12.8960   19.3330 N.3    73  CYS73      -0.1221
     26  CA       -14.7870  -11.9250   18.9550 C.3    73  CYS73       0.1808
     27  C        -15.2040  -11.1570   17.7150 C.2    73  CYS73       0.2601
     28  O        -14.8860   -9.9520   17.5920 O.2    73  CYS73      -0.2717
     29  CB       -13.4460  -12.6090   18.7600 C.3    73  CYS73       0.0970
     30  SG       -12.7420  -13.0790   20.3740 S.3    73  CYS73      -0.0800
     31  N        -15.8960  -11.8480   16.8030 N.am   74  GLN74      -0.1979
     32  CA       -16.4100  -11.1660   15.6270 C.3    74  GLN74       0.1601
     33  C        -17.4620  -10.1400   16.0240 C.2    74  GLN74       0.2287
     34  O        -17.3700   -8.9930   15.5700 O.2    74  GLN74      -0.2864
     35  CB       -16.8990  -12.1620   14.5700 C.3    74  GLN74       0.0394
     36  CG       -15.7310  -12.9200   13.8940 C.3    74  GLN74       0.0908
     37  CD       -14.8760  -12.0450   12.9970 C.2    74  GLN74       0.2608
     38  OE1      -13.9640  -11.3540   13.4660 O.2    74  GLN74      -0.2717
     39  NE2      -15.1570  -12.0760   11.6890 N.am   74  GLN74      -0.0878
     40  N        -17.7860   -8.5890   18.9160 N.3    76  ARG76      -0.1231
     41  CA       -17.1130   -7.4800   19.5920 C.3    76  ARG76       0.1694
     42  C        -16.3340   -6.6080   18.6320 C.2    76  ARG76       0.2592
     43  O        -16.2850   -5.3880   18.8140 O.2    76  ARG76      -0.2718
     44  CB       -16.1580   -7.9670   20.6920 C.3    76  ARG76       0.0321
     45  CG       -15.0460   -6.9580   21.0480 C.3    76  ARG76       0.0489
     46  CD       -15.4010   -5.9900   22.1920 C.3    76  ARG76       0.2205
     47  NE       -16.2100   -4.8340   21.8060 N.pl3  76  ARG76      -0.0865
     48  CZ       -15.7390   -3.6030   21.5810 C.cat  76  ARG76       0.5346
     49  NH1      -14.4490   -3.3270   21.6950 N.pl3  76  ARG76       0.1354
     50  NH2      -16.5720   -2.6320   21.2590 N.pl3  76  ARG76       0.1354
     51  N        -15.7080   -7.2050   17.6110 N.am   77  SER77      -0.1952
     52  CA       -14.9790   -6.3720   16.6340 C.3    77  SER77       0.1924
     53  C        -15.9680   -5.4520   15.8520 C.2    77  SER77       0.2314
     54  O        -15.6580   -4.2910   15.5660 O.2    77  SER77      -0.2863
     55  CB       -14.1140   -7.2160   15.6870 C.3    77  SER77       0.2116
     56  OG       -13.2400   -8.0700   16.4350 O.3    77  SER77      -0.2180
     57  N         -6.4230   -3.6260   17.4980 N.3   115  TYR115     -0.1241
     58  CA        -5.3630   -4.3150   18.2150 C.3   115  TYR115      0.1605
     59  C         -4.4720   -3.4020   19.0570 C.2   115  TYR115      0.2264
     60  O         -4.0250   -3.7650   20.1490 O.2   115  TYR115     -0.2867
     61  CB        -4.6820   -5.3580   17.2760 C.3   115  TYR115      0.0534
     62  CG        -5.7140   -6.4860   17.1250 C.ar  115  TYR115     -0.0201
     63  CD1       -6.0940   -7.2400   18.2390 C.ar  115  TYR115     -0.0009
     64  CD2       -6.4080   -6.7010   15.9260 C.ar  115  TYR115     -0.0009
     65  CE1       -7.0950   -8.2310   18.1680 C.ar  115  TYR115      0.0417
     66  CE2       -7.4190   -7.6970   15.8360 C.ar  115  TYR115      0.0417
     67  CZ        -7.7500   -8.4580   16.9790 C.ar  115  TYR115      0.1957
     68  OH        -8.7210   -9.4380   16.9530 O.3   115  TYR115     -0.2866
     69  N         -6.8360   -2.8720   22.0800 N.3   118  LEU118     -0.1245
     70  CA        -6.9190   -4.1460   22.8500 C.3   118  LEU118      0.1561
     71  C         -5.7580   -4.2720   23.8460 C.2   118  LEU118      0.2260
     72  O         -5.9210   -4.7660   24.9640 O.2   118  LEU118     -0.2867
     73  CB        -7.0050   -5.3560   21.9170 C.3   118  LEU118      0.0270
     74  CG        -7.5000   -6.6420   22.6440 C.3   118  LEU118      0.0019
     75  CD1       -8.9010   -6.4710   23.2860 C.3   118  LEU118      0.0001
     76  CD2       -7.5020   -7.7530   21.6660 C.3   118  LEU118      0.0001
     77  N         -6.7030  -11.0060   29.0930 N.3   127  VAL127     -0.1245
     78  CA        -7.3990   -9.8570   28.4420 C.3   127  VAL127      0.1561
     79  C         -8.7850   -9.6790   29.0260 C.2   127  VAL127      0.2260
     80  O         -9.4970  -10.6750   29.2640 O.2   127  VAL127     -0.2867
     81  CB        -7.4630  -10.0290   26.9090 C.3   127  VAL127      0.0252
     82  CG1       -8.1250  -11.3870   26.5160 C.3   127  VAL127      0.0019
     83  CG2       -8.1390   -8.7910   26.1760 C.3   127  VAL127      0.0019
     84  N        -12.5980   -8.8480   28.9140 N.3   129  ILE129     -0.1245
     85  CA       -13.6910   -9.0270   27.9890 C.3   129  ILE129      0.1561
     86  C        -15.0420   -8.5310   28.5400 C.2   129  ILE129      0.2260
     87  O        -15.1810   -8.3160   29.6880 O.2   129  ILE129     -0.2867
     88  CB       -13.7880  -10.4860   27.4640 C.3   129  ILE129      0.0252
     89  CG1      -14.1290  -11.4580   28.5790 C.3   129  ILE129      0.0019
     90  CG2      -12.5400  -10.8930   26.8470 C.3   129  ILE129      0.0019
     91  CD1      -14.6510  -12.7380   28.1330 C.3   129  ILE129      0.0001
     92  N        -10.1430  -13.1970   30.4140 N.3   136  MET136     -0.1245
     93  CA        -9.7740  -14.5020   29.8390 C.3   136  MET136      0.1570
     94  C         -8.2610  -14.6340   29.7620 C.2   136  MET136      0.2261
     95  O         -7.5700  -13.7320   29.2600 O.2   136  MET136     -0.2867
     96  CB       -10.4280  -14.6910   28.4770 C.3   136  MET136      0.0387
     97  CG       -10.2470  -16.1130   27.8450 C.3   136  MET136      0.0595
     98  SD       -11.0700  -16.2400   26.2440 S.3   136  MET136     -0.1393
     99  CE       -12.5480  -15.2940   26.5330 C.3   136  MET136      0.0692
    100  N         -6.4440  -19.1260   25.9820 N.3   141  LEU141     -0.1245
    101  CA        -6.5210  -18.8030   24.5670 C.3   141  LEU141      0.1561
    102  C         -5.4750  -19.5870   23.7650 C.2   141  LEU141      0.2260
    103  O         -5.7690  -20.1040   22.6790 O.2   141  LEU141     -0.2867
    104  CB        -6.3840  -17.2750   24.3860 C.3   141  LEU141      0.0270
    105  CG        -7.6680  -16.6040   24.8600 C.3   141  LEU141      0.0019
    106  CD1       -7.4860  -15.1290   25.2650 C.3   141  LEU141      0.0001
    107  CD2       -8.6880  -16.7560   23.7200 C.3   141  LEU141      0.0001
    108  N         -6.3910  -23.3390   22.8150 N.3   144  LEU144     -0.1245
    109  CA        -7.4470  -23.6590   21.8370 C.3   144  LEU144      0.1561
    110  C         -6.7830  -24.3770   20.6780 C.2   144  LEU144      0.2260
    111  O         -5.6450  -24.0720   20.3490 O.2   144  LEU144     -0.2867
    112  CB        -8.1280  -22.3800   21.3350 C.3   144  LEU144      0.0270
    113  CG        -8.8590  -21.5590   22.4050 C.3   144  LEU144      0.0019
    114  CD1       -9.5960  -20.3170   21.8310 C.3   144  LEU144      0.0001
    115  CD2       -9.8270  -22.5110   23.1710 C.3   144  LEU144      0.0001
    116  N         -6.9700  -21.7920   16.0000 N.3   148  PHE148     -0.1241
    117  CA        -7.5350  -20.8010   16.9430 C.3   148  PHE148      0.1605
    118  C         -6.6220  -20.3550   18.0750 C.2   148  PHE148      0.2264
    119  O         -6.6800  -19.1860   18.5180 O.2   148  PHE148     -0.2867
    120  CB        -8.8870  -21.2680   17.4960 C.3   148  PHE148      0.0534
    121  CG        -9.9580  -21.3780   16.4460 C.ar  148  PHE148     -0.0203
    122  CD1      -10.5040  -20.2320   15.8630 C.ar  148  PHE148     -0.0042
    123  CD2      -10.4480  -22.6340   16.0440 C.ar  148  PHE148     -0.0042
    124  CE1      -11.5110  -20.3380   14.8940 C.ar  148  PHE148     -0.0003
    125  CE2      -11.4570  -22.7380   15.0810 C.ar  148  PHE148     -0.0003
    126  CZ       -11.9800  -21.5920   14.5000 C.ar  148  PHE148     -0.0000
    127  N         -4.4820  -17.3740   17.2000 N.3   151  PHE151     -0.1227
    128  CA        -5.1510  -16.1370   16.9130 C.3   151  PHE151      0.1736
    129  C         -4.7040  -15.0430   17.8750 C.2   151  PHE151      0.2595
    130  O         -4.3300  -13.9620   17.4240 O.2   151  PHE151     -0.2718
    131  CB        -6.6730  -16.3220   16.9690 C.3   151  PHE151      0.0547
    132  CG        -7.3900  -15.6150   15.8690 C.ar  151  PHE151     -0.0202
    133  CD1       -8.5460  -14.9020   16.1190 C.ar  151  PHE151     -0.0042
    134  CD2       -6.8720  -15.6320   14.5620 C.ar  151  PHE151     -0.0042
    135  CE1       -9.2000  -14.2370   15.0720 C.ar  151  PHE151     -0.0003
    136  CE2       -7.5090  -14.9660   13.5310 C.ar  151  PHE151     -0.0003
    137  CZ        -8.6770  -14.2770   13.7810 C.ar  151  PHE151     -0.0000
    138  N         -4.6930  -15.3200   19.1840 N.am  152  MET152     -0.1979
    139  CA        -4.4470  -14.2530   20.1880 C.3   152  MET152      0.1605
    140  C         -3.0080  -14.0390   20.6140 C.2   152  MET152      0.2287
    141  O         -2.5910  -12.9110   20.9050 O.2   152  MET152     -0.2864
    142  CB        -5.2860  -14.4740   21.4430 C.3   152  MET152      0.0413
    143  CG        -6.7160  -14.0450   21.3120 C.3   152  MET152      0.0598
    144  SD        -6.8680  -12.3870   20.6050 S.3   152  MET152     -0.1393
    145  CE        -6.3890  -11.3730   21.9670 C.3   152  MET152      0.0692
    146  N         -0.9220  -11.1490   19.3860 N.3   155  LYS155     -0.1245
    147  CA        -1.5060   -9.9600   19.9770 C.3   155  LYS155      0.1561
    148  C         -1.0310   -9.7200   21.3980 C.2   155  LYS155      0.2260
    149  O         -0.7140   -8.5720   21.7250 O.2   155  LYS155     -0.2867
    150  CB        -3.0410  -10.0220   19.9160 C.3   155  LYS155      0.0271
    151  CG        -3.5950   -9.8180   18.5070 C.3   155  LYS155      0.0035
    152  CD        -3.5920  -11.0840   17.6910 C.3   155  LYS155      0.0206
    153  CE        -4.2930  -10.8750   16.3550 C.3   155  LYS155      0.1093
    154  NZ        -4.8380  -12.1630   15.8420 N.3   155  LYS155     -0.1314
    155  N         -3.1160  -11.5010   10.9710 N.3   237  HIS237     -0.1241
    156  CA        -4.5090  -11.6380   11.3320 C.3   237  HIS237      0.1621
    157  C         -5.3520  -11.9520   10.1030 C.2   237  HIS237      0.2264
    158  O         -6.1820  -12.8590   10.1330 O.2   237  HIS237     -0.2867
    159  CB        -5.0100  -10.3360   11.9850 C.3   237  HIS237      0.0745
    160  CG        -6.3720  -10.4490   12.5940 C.ar  237  HIS237      0.0817
    161  ND1       -6.5870  -11.0140   13.8310 N.ar  237  HIS237     -0.2268
    162  CD2       -7.5880  -10.0610   12.1430 C.ar  237  HIS237      0.1154
    163  CE1       -7.8800  -10.9960   14.1040 C.ar  237  HIS237      0.1986
    164  NE2       -8.5070  -10.4150   13.0990 N.ar  237  HIS237     -0.2212
    165  N         -7.6320  -15.2000    9.0580 N.3   241  LEU241     -0.1245
    166  CA        -9.0300  -15.1030    8.6370 C.3   241  LEU241      0.1561
    167  C         -9.2980  -15.8680    7.3450 C.2   241  LEU241      0.2260
    168  O        -10.3910  -16.4080    7.1510 O.2   241  LEU241     -0.2867
    169  CB        -9.4570  -13.6380    8.4720 C.3   241  LEU241      0.0270
    170  CG        -9.6160  -12.8410    9.7800 C.3   241  LEU241      0.0019
    171  CD1      -10.0160  -11.4110    9.5060 C.3   241  LEU241      0.0001
    172  CD2      -10.6310  -13.4990   10.7280 C.3   241  LEU241      0.0001
@<TRIPOS>BOND
     1   168   167    2
     2   167   166    1
     3   169   166    1
     4   169   170    1
     5   166   165    1
     6   171   170    1
     7   170   172    1
     8   157   158    2
     9   157   156    1
    10   155   156    1
    11   156   159    1
    12    39    37   am
    13   159   160    1
    14   162   160   ar
    15   162   164   ar
    16   160   161   ar
    17    24    23   ar
    18    24    22   ar
    19    37    38    2
    20    37    36    1
    21    23    21   ar
    22   164   163   ar
    23   136   137   ar
    24   136   134   ar
    25   137   135   ar
    26    22    20   ar
    27   161   163   ar
    28    36    35    1
    29    21    19   ar
    30   126   124   ar
    31   126   125   ar
    32   134   132   ar
    33    35    32    1
    34   124   122   ar
    35    20    19   ar
    36   135   133   ar
    37   125   123   ar
    38    19    18    1
    39    54    53    2
    40    34    33    2
    41    32    33    1
    42    32    31    1
    43    55    56    1
    44    55    52    1
    45    66    64   ar
    46    66    67   ar
    47   154   153    1
    48    53    52    1
    49   122   121   ar
    50   132   133   ar
    51   132   131    1
    52    64    62   ar
    53   116   117    1
    54   123   121   ar
    55   153   152    1
    56   121   120    1
    57    18    15    1
    58    52    51    1
    59    31    27   am
    60    17    16    2
    61   128   131    1
    62   128   127    1
    63   128   129    1
    64   117   120    1
    65   117   118    1
    66    68    67    1
    67    67    65   ar
    68    62    61    1
    69    62    63   ar
    70    16    15    1
    71    61    58    1
    72   130   129    2
    73    57    58    1
    74    28    27    2
    75    51    42   am
    76   152   151    1
    77    15    14    1
    78    27    26    1
    79   129   138   am
    80   118   119    2
    81    65    63   ar
    82    58    59    1
    83   151   150    1
    84    42    43    2
    85    42    41    1
    86    29    26    1
    87    29    30    1
    88     4     3    2
    89    40    41    1
    90    26    25    1
    91    14     8   am
    92     3     2    1
    93    59    60    2
    94   138   139    1
    95     5     2    1
    96   146   147    1
    97    41    44    1
    98   150   147    1
    99   147   148    1
   100     2     1    1
   101     8     9    2
   102     8     7    1
   103   139   140    1
   104   139   142    1
   105   111   110    2
   106   144   143    1
   107   144   145    1
   108   140   141    2
   109   110   109    1
   110    44    45    1
   111     6     7    1
   112    45    46    1
   113    50    48    1
   114     7    10    1
   115   143   142    1
   116   112   109    1
   117   112   113    1
   118   148   149    2
   119    48    49    1
   120    48    47    2
   121    76    74    1
   122    47    46    1
   123   114   113    1
   124   109   108    1
   125    73    74    1
   126    73    70    1
   127    10    12    1
   128    10    11    1
   129    69    70    1
   130   113   115    1
   131    74    75    1
   132   103   102    2
   133    70    71    1
   134    11    13    1
   135   107   105    1
   136   102   101    1
   137    71    72    2
   138   104   101    1
   139   104   105    1
   140   101   100    1
   141   105   106    1
   142    83    81    1
   143    98    99    1
   144    98    97    1
   145    82    81    1
   146    90    88    1
   147    81    78    1
   148    88    85    1
   149    88    89    1
   150    97    96    1
   151    85    86    1
   152    85    84    1
   153    91    89    1
   154    78    79    1
   155    78    77    1
   156    96    93    1
   157    86    87    2
   158    79    80    2
   159    95    94    2
   160    94    93    1
   161    93    92    1
