@<TRIPOS>MOLECULE
tmp/3wj5A00.pdb
 184 174 0 0 0
SMALL
GASTEIGER

@<TRIPOS>ATOM
      1  N         15.5800  -13.0260  -18.4010 N.3    60  ALA60      -0.1245
      2  CA        15.0340  -12.7570  -17.0700 C.3    60  ALA60       0.1562
      3  C         15.9480  -13.2760  -15.9710 C.2    60  ALA60       0.2260
      4  O         16.1530  -12.6070  -14.9650 O.2    60  ALA60      -0.2867
      5  CB        13.6330  -13.3180  -16.9270 C.3    60  ALA60       0.0290
      6  N         19.2040  -11.2360  -15.8940 N.3    63  ILE63      -0.1231
      7  CA        18.9080   -9.9890  -15.1860 C.3    63  ILE63       0.1692
      8  C         18.8930  -10.2390  -13.6660 C.2    63  ILE63       0.2592
      9  O         19.4260   -9.4460  -12.8850 O.2    63  ILE63      -0.2718
     10  CB        17.6130   -9.2920  -15.7300 C.3    63  ILE63       0.0266
     11  CG1       17.8420   -8.7810  -17.1700 C.3    63  ILE63       0.0019
     12  CG2       17.1930   -8.1320  -14.8460 C.3    63  ILE63       0.0020
     13  CD1       16.6360   -8.1330  -17.8110 C.3    63  ILE63       0.0001
     14  N         18.3100  -11.3700  -13.2720 N.am   64  PHE64      -0.1976
     15  CA        18.3460  -11.8940  -11.8990 C.3    64  PHE64       0.1639
     16  C         19.7470  -12.1220  -11.3250 C.2    64  PHE64       0.2290
     17  O         20.0530  -11.6520  -10.2240 O.2    64  PHE64      -0.2864
     18  CB        17.5720  -13.2140  -11.8800 C.3    64  PHE64       0.0560
     19  CG        17.4340  -13.8330  -10.5260 C.ar   64  PHE64      -0.0200
     20  CD1       16.6740  -13.2130   -9.5300 C.ar   64  PHE64      -0.0042
     21  CD2       18.0190  -15.0630  -10.2560 C.ar   64  PHE64      -0.0042
     22  CE1       16.5330  -13.8020   -8.2740 C.ar   64  PHE64      -0.0003
     23  CE2       17.8780  -15.6620   -9.0060 C.ar   64  PHE64      -0.0003
     24  CZ        17.1340  -15.0320   -8.0170 C.ar   64  PHE64      -0.0000
     25  N         21.6810   -8.9180  -10.8490 N.3    67  CYS67      -0.1221
     26  CA        21.1300   -8.2610   -9.6820 C.3    67  CYS67       0.1808
     27  C         21.5210   -8.8400   -8.2930 C.2    67  CYS67       0.2601
     28  O         21.7590   -8.0760   -7.3460 O.2    67  CYS67      -0.2717
     29  CB        19.6380   -8.1980   -9.8290 C.3    67  CYS67       0.0970
     30  SG        18.8910   -7.7120   -8.3140 S.3    67  CYS67      -0.0800
     31  N         21.5610  -10.1710   -8.1840 N.am   68  GLN68      -0.1979
     32  CA        22.1600  -10.8950   -7.0430 C.3    68  GLN68       0.1601
     33  C         23.5800  -10.4300   -6.7640 C.2    68  GLN68       0.2287
     34  O         23.9680  -10.2260   -5.6170 O.2    68  GLN68      -0.2864
     35  CB        22.2600  -12.3960   -7.3480 C.3    68  GLN68       0.0394
     36  CG        20.9900  -13.1940   -7.2050 C.3    68  GLN68       0.0908
     37  CD        21.2120  -14.7070   -7.4010 C.2    68  GLN68       0.2608
     38  OE1       22.1910  -15.1560   -8.0330 O.2    68  GLN68      -0.2717
     39  NE2       20.2890  -15.4970   -6.8590 N.am   68  GLN68      -0.0878
     40  N         23.7390   -7.1300   -5.3770 N.3    71  SER71      -0.1217
     41  CA        23.2720   -7.2740   -3.9870 C.3    71  SER71       0.1889
     42  C         24.4120   -7.7090   -3.0600 C.2    71  SER71       0.2288
     43  O         24.5530   -7.2010   -1.9550 O.2    71  SER71      -0.2866
     44  CB        22.0390   -8.2200   -3.8510 C.3    71  SER71       0.2089
     45  OG        20.8160   -7.4860   -4.0310 O.3    71  SER71      -0.2183
     46  N         18.7530   -5.6510    3.7390 N.3   105  HIS105     -0.1241
     47  CA        17.7620   -5.4440    2.6880 C.3   105  HIS105      0.1621
     48  C         17.0300   -4.1340    2.7820 C.2   105  HIS105      0.2264
     49  O         16.7050   -3.5410    1.7650 O.2   105  HIS105     -0.2867
     50  CB        16.8140   -6.6140    2.4970 C.3   105  HIS105      0.0745
     51  CG        17.4150   -7.6620    1.6240 C.ar  105  HIS105      0.0817
     52  ND1       18.1290   -8.7240    2.1350 N.ar  105  HIS105     -0.2268
     53  CD2       17.5210   -7.7430    0.2740 C.ar  105  HIS105      0.1154
     54  CE1       18.6130   -9.4420    1.1340 C.ar  105  HIS105      0.1986
     55  NE2       18.2570   -8.8700   -0.0050 N.ar  105  HIS105     -0.2212
     56  N         19.4500   -1.7340    1.4130 N.3   108  ILE108     -0.1231
     57  CA        19.5560   -1.9460   -0.0600 C.3   108  ILE108      0.1692
     58  C         18.4460   -1.1650   -0.7760 C.2   108  ILE108      0.2592
     59  O         18.7310   -0.3950   -1.6820 O.2   108  ILE108     -0.2718
     60  CB        19.5610   -3.4380   -0.4810 C.3   108  ILE108      0.0266
     61  CG1       20.9310   -4.0730   -0.1260 C.3   108  ILE108      0.0019
     62  CG2       19.2180   -3.5260   -2.0040 C.3   108  ILE108      0.0020
     63  CD1       21.0740   -5.5990   -0.3910 C.3   108  ILE108      0.0001
     64  N         17.1980   -1.3160   -0.3470 N.am  109  TYR109     -0.1976
     65  CA        16.0840   -0.6260   -1.0170 C.3   109  TYR109      0.1639
     66  C         16.0770    0.8630   -0.7910 C.2   109  TYR109      0.2290
     67  O         15.7260    1.5900   -1.6930 O.2   109  TYR109     -0.2864
     68  CB        14.7380   -1.2380   -0.6400 C.3   109  TYR109      0.0560
     69  CG        14.7430   -2.7050   -0.9550 C.ar  109  TYR109     -0.0198
     70  CD1       15.2320   -3.1600   -2.1580 C.ar  109  TYR109     -0.0009
     71  CD2       14.3270   -3.6290   -0.0200 C.ar  109  TYR109     -0.0009
     72  CE1       15.2780   -4.5260   -2.4200 C.ar  109  TYR109      0.0417
     73  CE2       14.3600   -4.9820   -0.2900 C.ar  109  TYR109      0.0417
     74  CZ        14.8340   -5.4160   -1.4700 C.ar  109  TYR109      0.1957
     75  OH        14.8550   -6.7910   -1.7030 O.3   109  TYR109     -0.2866
     76  N         18.7780    2.0700   -3.1470 N.3   112  LEU112     -0.1245
     77  CA        18.3440    1.8690   -4.5370 C.3   112  LEU112      0.1561
     78  C         17.5030    3.0330   -5.0370 C.2   112  LEU112      0.2260
     79  O         17.6220    3.4410   -6.2120 O.2   112  LEU112     -0.2867
     80  CB        17.5840    0.5430   -4.6960 C.3   112  LEU112      0.0270
     81  CG        17.1760    0.1000   -6.1070 C.3   112  LEU112      0.0019
     82  CD1       18.4390   -0.1550   -6.9410 C.3   112  LEU112      0.0001
     83  CD2       16.2850   -1.1480   -6.0290 C.3   112  LEU112      0.0001
     84  N         11.5700   -3.5930  -17.2810 N.3   135  LEU135     -0.1245
     85  CA        11.6360   -4.4600  -16.1160 C.3   135  LEU135      0.1561
     86  C         10.2480   -5.0670  -15.8690 C.2   135  LEU135      0.2260
     87  O         10.1280   -6.2390  -15.5650 O.2   135  LEU135     -0.2867
     88  CB        12.1080   -3.6470  -14.9060 C.3   135  LEU135      0.0270
     89  CG        13.6330   -3.4730  -14.8340 C.3   135  LEU135      0.0019
     90  CD1       14.0360   -2.3370  -13.8390 C.3   135  LEU135      0.0001
     91  CD2       14.3350   -4.7620  -14.5060 C.3   135  LEU135      0.0001
     92  N          9.2010   -8.3220  -17.9730 N.3   138  LEU138     -0.1245
     93  CA         9.8760   -9.6000  -17.7890 C.3   138  LEU138      0.1561
     94  C          8.8320  -10.6640  -17.4400 C.2   138  LEU138      0.2260
     95  O          7.7490  -10.3380  -16.9360 O.2   138  LEU138     -0.2867
     96  CB        10.9850   -9.5020  -16.7320 C.3   138  LEU138      0.0270
     97  CG        12.1090   -8.5240  -17.0960 C.3   138  LEU138      0.0019
     98  CD1       13.1650   -8.4660  -15.9810 C.3   138  LEU138      0.0001
     99  CD2       12.7430   -8.9040  -18.4380 C.3   138  LEU138      0.0001
    100  N          9.4230  -12.6060  -12.5520 N.3   142  PHE142     -0.1241
    101  CA        10.4610  -11.5830  -12.5790 C.3   142  PHE142      0.1605
    102  C          9.9450  -10.1770  -12.8910 C.2   142  PHE142      0.2264
    103  O         10.4740   -9.2130  -12.3590 O.2   142  PHE142     -0.2867
    104  CB        11.6010  -11.9830  -13.5050 C.3   142  PHE142      0.0534
    105  CG        12.3050  -13.2330  -13.0850 C.ar  142  PHE142     -0.0203
    106  CD1       13.2700  -13.2020  -12.0860 C.ar  142  PHE142     -0.0042
    107  CD2       12.0040  -14.4460  -13.6870 C.ar  142  PHE142     -0.0042
    108  CE1       13.9390  -14.3690  -11.6880 C.ar  142  PHE142     -0.0003
    109  CE2       12.6630  -15.6110  -13.3040 C.ar  142  PHE142     -0.0003
    110  CZ        13.6290  -15.5740  -12.3020 C.ar  142  PHE142     -0.0000
    111  N          9.5030   -8.1200   -9.5160 N.3   145  PHE145     -0.1227
    112  CA        10.5280   -7.8040   -8.5260 C.3   145  PHE145      0.1736
    113  C         10.7800   -6.3190   -8.3380 C.2   145  PHE145      0.2595
    114  O         11.0130   -5.8760   -7.2160 O.2   145  PHE145     -0.2718
    115  CB        11.8380   -8.5320   -8.8280 C.3   145  PHE145      0.0547
    116  CG        11.8950   -9.8880   -8.2180 C.ar  145  PHE145     -0.0202
    117  CD1       12.4260  -10.0630   -6.9460 C.ar  145  PHE145     -0.0042
    118  CD2       11.3540  -10.9830   -8.8750 C.ar  145  PHE145     -0.0042
    119  CE1       12.4490  -11.3170   -6.3480 C.ar  145  PHE145     -0.0003
    120  CE2       11.3670  -12.2480   -8.2810 C.ar  145  PHE145     -0.0003
    121  CZ        11.9150  -12.4100   -7.0150 C.ar  145  PHE145     -0.0000
    122  N         10.7120   -5.5350   -9.4130 N.am  146  MET146     -0.1979
    123  CA        11.1830   -4.1510   -9.3230 C.3   146  MET146      0.1605
    124  C         10.1040   -3.0890   -9.1500 C.2   146  MET146      0.2287
    125  O         10.3540   -2.0280   -8.5650 O.2   146  MET146     -0.2864
    126  CB        12.1060   -3.8090  -10.4940 C.3   146  MET146      0.0413
    127  CG        13.4720   -4.4600  -10.3930 C.3   146  MET146      0.0598
    128  SD        14.3880   -3.9760   -8.9020 S.3   146  MET146     -0.1393
    129  CE        14.8520   -2.3030   -9.2980 C.3   146  MET146      0.0692
    130  N          9.5320   -1.4700   -5.7900 N.3   149  LYS149     -0.1245
    131  CA        10.6550   -0.6050   -5.4820 C.3   149  LYS149      0.1561
    132  C         10.4910    0.7540   -6.1570 C.2   149  LYS149      0.2260
    133  O         10.8290    1.7820   -5.5530 O.2   149  LYS149     -0.2867
    134  CB        12.0060   -1.2350   -5.8780 C.3   149  LYS149      0.0271
    135  CG        12.5550   -2.3470   -4.9530 C.3   149  LYS149      0.0035
    136  CD        11.6160   -3.5410   -4.8880 C.3   149  LYS149      0.0206
    137  CE        12.3600   -4.8140   -4.5820 C.3   149  LYS149      0.1093
    138  NZ        11.4130   -5.9210   -4.3020 N.3   149  LYS149     -0.1314
    139  N          9.6280   -9.0760   -1.1310 N.3   231  HIS231     -0.1241
    140  CA        10.7820   -9.6310   -1.7840 C.3   231  HIS231      0.1621
    141  C         11.0470  -11.0800   -1.3500 C.2   231  HIS231      0.2264
    142  O         11.2890  -11.9340   -2.2010 O.2   231  HIS231     -0.2867
    143  CB        12.0150   -8.7580   -1.5560 C.3   231  HIS231      0.0745
    144  CG        13.1690   -9.1620   -2.4110 C.ar  231  HIS231      0.0817
    145  ND1       14.4160   -9.4400   -1.9000 N.ar  231  HIS231     -0.2268
    146  CD2       13.2440   -9.3990   -3.7430 C.ar  231  HIS231      0.1154
    147  CE1       15.2230   -9.7990   -2.8850 C.ar  231  HIS231      0.1986
    148  NE2       14.5280   -9.8080   -4.0100 N.ar  231  HIS231     -0.2212
    149  N         10.9100  -14.4890   -3.7400 N.3   235  LEU235     -0.1245
    150  CA        11.9150  -15.5510   -3.7070 C.3   235  LEU235      0.1561
    151  C         11.2980  -16.9440   -3.5100 C.2   235  LEU235      0.2260
    152  O         11.7310  -17.9040   -4.1460 O.2   235  LEU235     -0.2867
    153  CB        12.9910  -15.2810   -2.6590 C.3   235  LEU235      0.0270
    154  CG        13.7190  -13.9300   -2.8130 C.3   235  LEU235      0.0019
    155  CD1       14.9150  -13.8250   -1.8700 C.3   235  LEU235      0.0001
    156  CD2       14.1740  -13.6390   -4.2220 C.3   235  LEU235      0.0001
    157  N         23.2310  -19.4520   -6.2530 N.3   247  LEU247     -0.1245
    158  CA        22.9840  -18.4160   -5.2330 C.3   247  LEU247      0.1561
    159  C         24.2210  -18.2080   -4.3560 C.2   247  LEU247      0.2260
    160  O         24.7010  -19.1390   -3.7040 O.2   247  LEU247     -0.2867
    161  CB        21.7400  -18.7600   -4.3960 C.3   247  LEU247      0.0270
    162  CG        21.1750  -17.8060   -3.3230 C.3   247  LEU247      0.0019
    163  CD1       20.5160  -16.5380   -3.9040 C.3   247  LEU247      0.0001
    164  CD2       20.1760  -18.5630   -2.4360 C.3   247  LEU247      0.0001
    165  N         24.2560  -14.2990    0.2350 N.3   251  LEU251     -0.1245
    166  CA        22.8150  -14.1760    0.0570 C.3   251  LEU251      0.1561
    167  C         22.0580  -15.3400    0.6750 C.2   251  LEU251      0.2260
    168  O         20.9890  -15.1360    1.2790 O.2   251  LEU251     -0.2867
    169  CB        22.4410  -14.0340   -1.4220 C.3   251  LEU251      0.0270
    170  CG        22.8570  -12.7530   -2.1390 C.3   251  LEU251      0.0019
    171  CD1       22.2200  -12.6950   -3.5200 C.3   251  LEU251      0.0001
    172  CD2       22.4740  -11.5200   -1.3110 C.3   251  LEU251      0.0001
    173  N         19.1190  -14.8430    3.6210 N.3   255  TYR255     -0.1241
    174  CA        17.8060  -15.3920    3.3480 C.3   255  TYR255      0.1605
    175  C         17.4220  -16.5540    4.2680 C.2   255  TYR255      0.2264
    176  O         16.2360  -16.7600    4.5140 O.2   255  TYR255     -0.2867
    177  CB        17.6800  -15.7910    1.8670 C.3   255  TYR255      0.0534
    178  CG        17.7780  -14.6250    0.8910 C.ar  255  TYR255     -0.0201
    179  CD1       17.1720  -13.4010    1.1620 C.ar  255  TYR255     -0.0009
    180  CD2       18.4520  -14.7620   -0.3220 C.ar  255  TYR255     -0.0009
    181  CE1       17.2580  -12.3370    0.2610 C.ar  255  TYR255      0.0417
    182  CE2       18.5410  -13.7040   -1.2290 C.ar  255  TYR255      0.0417
    183  CZ        17.9480  -12.4900   -0.9280 C.ar  255  TYR255      0.1957
    184  OH        18.0320  -11.4440   -1.8270 O.3   255  TYR255     -0.2866
@<TRIPOS>BOND
     1    99    97    1
     2     1     2    1
     3    92    93    1
     4    13    11    1
     5    93    94    1
     6    93    96    1
     7    94    95    2
     8    84    85    1
     9    11    10    1
    10    97    96    1
    11    97    98    1
    12     2     5    1
    13     2     3    1
    14    85    86    1
    15    85    88    1
    16     3     4    2
    17     6     7    1
    18    86    87    2
    19    10     7    1
    20    10    12    1
    21     7     8    1
    22    88    89    1
    23    89    91    1
    24    89    90    1
    25   107   109   ar
    26   107   105   ar
    27     8    14   am
    28     8     9    2
    29   104   105    1
    30   104   101    1
    31   109   110   ar
    32    14    15    1
    33   105   106   ar
    34   102   101    1
    35   102   103    2
    36   101   100    1
    37   110   108   ar
    38   106   108   ar
    39    15    18    1
    40    15    16    1
    41    18    19    1
    42    16    17    2
    43    25    26    1
    44    19    21   ar
    45    19    20   ar
    46   126   127    1
    47   126   123    1
    48   127   128    1
    49    21    23   ar
    50    29    26    1
    51    29    30    1
    52    26    27    1
    53    20    22   ar
    54   111   112    1
    55   122   123    1
    56   122   113   am
    57   123   124    1
    58   129   128    1
    59   124   125    2
    60    23    24   ar
    61   118   120   ar
    62   118   116   ar
    63   115   112    1
    64   115   116    1
    65   112   113    1
    66   113   114    2
    67    27    31   am
    68    27    28    2
    69   120   121   ar
    70    22    24   ar
    71   116   117   ar
    72    31    32    1
    73    38    37    2
    74    37    36    1
    75    37    39   am
    76    35    36    1
    77    35    32    1
    78    32    33    1
    79   121   119   ar
    80   117   119   ar
    81    82    81    1
    82    33    34    2
    83   157   158    1
    84    79    78    2
    85   132   133    2
    86   132   131    1
    87    81    83    1
    88    81    80    1
    89   134   131    1
    90   134   135    1
    91   130   131    1
    92    40    41    1
    93   158   161    1
    94   158   159    1
    95    78    77    1
    96   135   136    1
    97   136   137    1
    98    80    77    1
    99   137   138    1
   100    77    76    1
   101   161   162    1
   102   159   160    2
   103   156   154    1
   104   152   151    2
   105    45    44    1
   106   148   146   ar
   107   148   147   ar
   108    41    44    1
   109    41    42    1
   110   163   162    1
   111   146   144   ar
   112   149   150    1
   113   150   151    1
   114   150   153    1
   115   171   170    1
   116   162   164    1
   117    42    43    2
   118   147   145   ar
   119   154   153    1
   120   154   155    1
   121    72    70   ar
   122    72    74   ar
   123   144   145   ar
   124   144   143    1
   125   142   141    2
   126    70    69   ar
   127   170   169    1
   128   170   172    1
   129    62    60    1
   130   184   183    1
   131   140   143    1
   132   140   141    1
   133   140   139    1
   134    75    74    1
   135    67    66    2
   136    59    58    2
   137    74    73   ar
   138   169   166    1
   139   182   183   ar
   140   182   180   ar
   141    65    66    1
   142    65    68    1
   143    65    64    1
   144    69    68    1
   145    69    71   ar
   146   183   181   ar
   147    58    64   am
   148    58    57    1
   149    60    61    1
   150    60    57    1
   151    63    61    1
   152   180   178   ar
   153    73    71   ar
   154    57    56    1
   155    55    53   ar
   156    55    54   ar
   157   166   165    1
   158   166   167    1
   159   181   179   ar
   160    53    51   ar
   161   167   168    2
   162   178   179   ar
   163   178   177    1
   164    54    52   ar
   165    51    52   ar
   166    51    50    1
   167    49    48    2
   168   177   174    1
   169    50    47    1
   170    47    48    1
   171    47    46    1
   172   174   173    1
   173   174   175    1
   174   175   176    2
