@<TRIPOS>MOLECULE
tmp/3wj5B00.pdb
 178 168 0 0 0
SMALL
GASTEIGER

@<TRIPOS>ATOM
      1  N        -23.9780  -12.5420   27.4810 N.3    60  PHE60      -0.1241
      2  CA       -23.2920  -12.3010   26.2200 C.3    60  PHE60       0.1605
      3  C        -24.2920  -12.2090   25.0780 C.2    60  PHE60       0.2264
      4  O        -25.1930  -13.0460   24.9340 O.2    60  PHE60      -0.2867
      5  CB       -22.2510  -13.3810   25.9540 C.3    60  PHE60       0.0534
      6  CG       -21.1500  -13.4180   26.9670 C.ar   60  PHE60      -0.0203
      7  CD1      -20.3890  -12.2840   27.2340 C.ar   60  PHE60      -0.0042
      8  CD2      -20.8580  -14.5950   27.6490 C.ar   60  PHE60      -0.0042
      9  CE1      -19.3600  -12.3210   28.1780 C.ar   60  PHE60      -0.0003
     10  CE2      -19.8250  -14.6390   28.5940 C.ar   60  PHE60      -0.0003
     11  CZ       -19.0760  -13.4990   28.8540 C.ar   60  PHE60      -0.0000
     12  N        -24.0250  -12.4840   21.8730 N.3    62  HIS62      -0.1241
     13  CA       -23.5750  -13.0870   20.6100 C.3    62  HIS62       0.1621
     14  C        -23.8820  -14.5710   20.3980 C.2    62  HIS62       0.2264
     15  O        -24.2240  -15.2960   21.3180 O.2    62  HIS62      -0.2867
     16  CB       -22.0970  -12.8630   20.4630 C.3    62  HIS62       0.0745
     17  CG       -21.4800  -12.2790   21.6970 C.ar   62  HIS62       0.0817
     18  ND1      -21.8030  -11.0290   22.1600 N.ar   62  HIS62      -0.2268
     19  CD2      -20.6100  -12.7890   22.5930 C.ar   62  HIS62       0.1154
     20  CE1      -21.1220  -10.7720   23.2520 C.ar   62  HIS62       0.1986
     21  NE2      -20.3820  -11.8170   23.5330 N.ar   62  HIS62      -0.2212
     22  N        -15.9200  -18.4450   21.1040 N.3    69  ILE69      -0.1245
     23  CA       -15.0390  -17.3390   21.5420 C.3    69  ILE69       0.1561
     24  C        -14.7220  -16.4230   20.3760 C.2    69  ILE69       0.2260
     25  O        -14.9110  -15.2100   20.4590 O.2    69  ILE69      -0.2867
     26  CB       -13.7590  -17.8560   22.2150 C.3    69  ILE69       0.0252
     27  CG1      -14.1240  -18.5070   23.5410 C.3    69  ILE69       0.0019
     28  CG2      -12.7480  -16.7070   22.4300 C.3    69  ILE69       0.0019
     29  CD1      -12.9840  -19.3020   24.1800 C.3    69  ILE69       0.0001
     30  N        -17.7690  -14.3060   19.4720 N.3    72  GLY72      -0.1210
     31  CA       -17.8150  -13.2260   20.4640 C.3    72  GLY72       0.1956
     32  C        -16.8590  -12.1170   20.1030 C.2    72  GLY72       0.2612
     33  O        -17.2080  -10.9150   20.2160 O.2    72  GLY72      -0.2717
     34  N        -15.6450  -12.4950   19.7160 N.am   73  CYS73      -0.1970
     35  CA       -14.6380  -11.5670   19.3520 C.3    73  CYS73       0.1712
     36  C        -15.0660  -10.7120   18.1620 C.2    73  CYS73       0.2296
     37  O        -14.7840   -9.5140   18.0800 O.2    73  CYS73      -0.2864
     38  CB       -13.3580  -12.3100   18.9840 C.3    73  CYS73       0.0983
     39  SG       -12.0020  -11.2000   18.7080 S.3    73  CYS73      -0.0798
     40  N        -17.7440   -8.1250   19.1590 N.3    76  ARG76      -0.1231
     41  CA       -17.0700   -6.9860   19.8260 C.3    76  ARG76       0.1694
     42  C        -16.3320   -6.0670   18.8350 C.2    76  ARG76       0.2592
     43  O        -16.3380   -4.8300   19.0150 O.2    76  ARG76      -0.2718
     44  CB       -16.0820   -7.4540   20.9170 C.3    76  ARG76       0.0321
     45  CG       -16.7000   -8.1780   22.1530 C.3    76  ARG76       0.0489
     46  CD       -17.6720   -7.2990   22.9620 C.3    76  ARG76       0.2205
     47  NE       -18.3430   -8.0410   24.0370 N.pl3  76  ARG76      -0.0865
     48  CZ       -19.4600   -7.6340   24.6460 C.cat  76  ARG76       0.5346
     49  NH1      -20.0540   -6.5060   24.2760 N.pl3  76  ARG76       0.1354
     50  NH2      -19.9980   -8.3670   25.6160 N.pl3  76  ARG76       0.1354
     51  N        -15.7030   -6.6700   17.8200 N.am   77  SER77      -0.1952
     52  CA       -14.9740   -5.9130   16.7730 C.3    77  SER77       0.1924
     53  C        -15.9250   -5.0190   15.9200 C.2    77  SER77       0.2314
     54  O        -15.5720   -3.8910   15.5270 O.2    77  SER77      -0.2863
     55  CB       -14.1430   -6.8430   15.8850 C.3    77  SER77       0.2116
     56  OG       -13.0560   -7.3730   16.6450 O.3    77  SER77      -0.2180
     57  N        -16.7710   -2.1580   18.0120 N.3    80  ALA80      -0.1245
     58  CA       -15.6420   -1.2500   18.0690 C.3    80  ALA80       0.1562
     59  C        -15.5230   -0.4310   16.7970 C.2    80  ALA80       0.2260
     60  O        -15.1830    0.7310   16.8710 O.2    80  ALA80      -0.2867
     61  CB       -14.3460   -2.0160   18.3930 C.3    80  ALA80       0.0290
     62  N         -8.1800   -1.1260   16.4840 N.3   114  ILE114     -0.1231
     63  CA        -8.7000   -2.1880   17.3940 C.3   114  ILE114      0.1692
     64  C         -7.5650   -2.7940   18.2330 C.2   114  ILE114      0.2592
     65  O         -7.6650   -2.9070   19.4670 O.2   114  ILE114     -0.2718
     66  CB        -9.4770   -3.3050   16.5930 C.3   114  ILE114      0.0266
     67  CG1      -10.8560   -2.7910   16.2180 C.3   114  ILE114      0.0019
     68  CG2       -9.6840   -4.5510   17.4890 C.3   114  ILE114      0.0020
     69  CD1      -11.4000   -3.2860   14.8850 C.3   114  ILE114      0.0001
     70  N         -6.4680   -3.1580   17.5760 N.am  115  TYR115     -0.1976
     71  CA        -5.3840   -3.8210   18.2950 C.3   115  TYR115      0.1639
     72  C         -4.5970   -2.8900   19.1790 C.2   115  TYR115      0.2290
     73  O         -4.1730   -3.2730   20.2730 O.2   115  TYR115     -0.2864
     74  CB        -4.5180   -4.6790   17.3580 C.3   115  TYR115      0.0560
     75  CG        -5.4160   -5.6680   16.6470 C.ar  115  TYR115     -0.0198
     76  CD1       -6.3280   -6.4480   17.3600 C.ar  115  TYR115     -0.0009
     77  CD2       -5.4210   -5.7500   15.2520 C.ar  115  TYR115     -0.0009
     78  CE1       -7.2080   -7.3090   16.6970 C.ar  115  TYR115      0.0417
     79  CE2       -6.2780   -6.6100   14.5930 C.ar  115  TYR115      0.0417
     80  CZ        -7.1620   -7.3790   15.3230 C.ar  115  TYR115      0.1957
     81  OH        -8.0050   -8.2330   14.6500 O.3   115  TYR115     -0.2866
     82  N         -6.9300   -2.4820   22.1140 N.3   118  LEU118     -0.1245
     83  CA        -7.0280   -3.7450   22.8960 C.3   118  LEU118      0.1561
     84  C         -5.8870   -3.8380   23.9090 C.2   118  LEU118      0.2260
     85  O         -6.0750   -4.3400   25.0380 O.2   118  LEU118     -0.2867
     86  CB        -7.0940   -4.9600   21.9770 C.3   118  LEU118      0.0270
     87  CG        -7.5560   -6.3160   22.5420 C.3   118  LEU118      0.0019
     88  CD1       -8.9790   -6.2710   23.1300 C.3   118  LEU118      0.0001
     89  CD2       -7.4510   -7.2950   21.3930 C.3   118  LEU118      0.0001
     90  N         -6.5490   -2.8630   27.4090 N.3   121  LEU121     -0.1231
     91  CA        -7.3630   -3.7760   28.2260 C.3   121  LEU121      0.1693
     92  C         -6.5940   -5.0500   28.5910 C.2   121  LEU121      0.2591
     93  O         -7.1620   -6.0020   29.1740 O.2   121  LEU121     -0.2718
     94  CB        -8.6050   -4.1720   27.4490 C.3   121  LEU121      0.0284
     95  CG        -9.8630   -3.2670   27.5010 C.3   121  LEU121      0.0019
     96  CD1       -9.5660   -1.8130   27.3090 C.3   121  LEU121      0.0001
     97  CD2      -10.8610   -3.7500   26.4670 C.3   121  LEU121      0.0001
     98  N         -5.3220   -5.0880   28.2260 N.am  122  MET122     -0.1979
     99  CA        -4.5140   -6.3210   28.4050 C.3   122  MET122      0.1605
    100  C         -3.4340   -6.1430   29.4450 C.2   122  MET122      0.2287
    101  O         -2.8530   -5.0590   29.5840 O.2   122  MET122     -0.2864
    102  CB        -3.8560   -6.7250   27.0900 C.3   122  MET122      0.0413
    103  CG        -4.8010   -7.2980   26.0410 C.3   122  MET122      0.0598
    104  SD        -3.8720   -7.6180   24.5230 S.3   122  MET122     -0.1393
    105  CE        -4.7980   -8.9070   23.6880 C.3   122  MET122      0.0692
    106  N         -6.9070  -10.5360   29.2800 N.3   127  VAL127     -0.1231
    107  CA        -7.6450   -9.4150   28.6500 C.3   127  VAL127      0.1692
    108  C         -9.0190   -9.1760   29.2640 C.2   127  VAL127      0.2592
    109  O         -9.8000  -10.1230   29.4430 O.2   127  VAL127     -0.2718
    110  CB        -7.7520   -9.6080   27.1000 C.3   127  VAL127      0.0266
    111  CG1       -8.4760  -10.9590   26.6900 C.3   127  VAL127      0.0020
    112  CG2       -8.3070   -8.3350   26.3570 C.3   127  VAL127      0.0020
    113  N         -9.3510   -7.9430   29.5410 N.am  128  LEU128     -0.1966
    114  CA       -10.6810   -7.5650   29.9460 C.3   128  LEU128      0.1728
    115  C        -11.6820   -7.7240   28.8160 C.2   128  LEU128      0.2616
    116  O        -11.4390   -7.2690   27.7370 O.2   128  LEU128     -0.2715
    117  CB       -10.6940   -6.1600   30.4820 C.3   128  LEU128      0.0311
    118  CG       -10.0000   -5.8240   31.7790 C.3   128  LEU128      0.0022
    119  CD1      -10.0410   -4.3540   31.9760 C.3   128  LEU128      0.0001
    120  CD2      -10.6540   -6.5730   32.9260 C.3   128  LEU128      0.0001
    121  N        -12.8010   -8.3740   29.0750 N.am  129  ILE129     -0.1963
    122  CA       -13.8600   -8.5220   28.0660 C.3   129  ILE129      0.1727
    123  C        -15.2230   -8.0140   28.5980 C.2   129  ILE129      0.2616
    124  O        -15.3530   -7.7210   29.7830 O.2   129  ILE129     -0.2715
    125  CB       -13.9900   -9.9960   27.5620 C.3   129  ILE129      0.0290
    126  CG1      -14.3920  -10.9410   28.7110 C.3   129  ILE129      0.0022
    127  CG2      -12.6910  -10.4560   26.8490 C.3   129  ILE129      0.0023
    128  CD1      -14.7590  -12.3370   28.2230 C.3   129  ILE129      0.0001
    129  N        -16.1970   -7.8960   27.6970 N.am  130  SER130     -0.1950
    130  CA       -17.5740   -7.4660   28.0370 C.3   130  SER130      0.1924
    131  C        -17.5750   -6.2550   28.9340 C.2   130  SER130      0.2314
    132  O        -18.0800   -6.3260   30.0440 O.2   130  SER130     -0.2863
    133  CB       -18.3660   -8.5960   28.7340 C.3   130  SER130      0.2116
    134  OG       -18.2520   -9.8040   28.0150 O.3   130  SER130     -0.2180
    135  N        -10.4340  -12.7660   30.5870 N.3   136  MET136     -0.1245
    136  CA       -10.0470  -14.0710   30.0540 C.3   136  MET136      0.1570
    137  C         -8.5280  -14.2070   30.0260 C.2   136  MET136      0.2261
    138  O         -7.8330  -13.3170   29.5750 O.2   136  MET136     -0.2867
    139  CB       -10.6560  -14.2640   28.6730 C.3   136  MET136      0.0387
    140  CG       -10.4950  -15.6880   28.0760 C.3   136  MET136      0.0595
    141  SD       -11.3380  -15.8100   26.4780 S.3   136  MET136     -0.1393
    142  CE       -13.0500  -15.6090   26.9300 C.3   136  MET136      0.0692
    143  N         -6.7170  -18.7100   26.2520 N.3   141  LEU141     -0.1245
    144  CA        -6.8000  -18.3870   24.8520 C.3   141  LEU141      0.1561
    145  C         -5.7650  -19.1540   24.0320 C.2   141  LEU141      0.2260
    146  O         -6.0960  -19.6900   22.9600 O.2   141  LEU141     -0.2867
    147  CB        -6.7000  -16.8600   24.6630 C.3   141  LEU141      0.0270
    148  CG        -8.0160  -16.1760   25.0450 C.3   141  LEU141      0.0019
    149  CD1       -7.8670  -14.6730   25.4060 C.3   141  LEU141      0.0001
    150  CD2       -9.0390  -16.3730   23.8800 C.3   141  LEU141      0.0001
    151  N         -5.1050  -15.1200   19.1720 N.3   152  MET152     -0.1245
    152  CA        -5.0430  -14.0490   20.1720 C.3   152  MET152      0.1570
    153  C         -3.6240  -13.7760   20.6470 C.2   152  MET152      0.2261
    154  O         -3.2870  -12.6500   20.9820 O.2   152  MET152     -0.2867
    155  CB        -5.9780  -14.3830   21.3390 C.3   152  MET152      0.0387
    156  CG        -6.9870  -15.5480   20.9890 C.3   152  MET152      0.0595
    157  SD        -8.7050  -15.2120   20.4470 S.3   152  MET152     -0.1393
    158  CE        -8.5090  -14.4400   18.8360 C.3   152  MET152      0.0692
    159  N         -1.3960  -10.7370   19.5270 N.3   155  LYS155     -0.1231
    160  CA        -1.9650   -9.5150   20.0320 C.3   155  LYS155      0.1693
    161  C         -1.4580   -9.2480   21.4570 C.2   155  LYS155      0.2592
    162  O         -1.1740   -8.1020   21.8160 O.2   155  LYS155     -0.2718
    163  CB        -3.4850   -9.6340   20.0560 C.3   155  LYS155      0.0285
    164  CG        -4.1970   -9.4750   18.7000 C.3   155  LYS155      0.0035
    165  CD        -3.9690  -10.6500   17.7810 C.3   155  LYS155      0.0206
    166  CE        -4.9860  -10.6350   16.6400 C.3   155  LYS155      0.1093
    167  NZ        -4.9550  -11.8540   15.7980 N.3   155  LYS155     -0.1314
    168  N         -1.3490  -10.3150   22.2550 N.am  156  PHE156     -0.1976
    169  CA        -0.7490  -10.2140   23.5730 C.3   156  PHE156      0.1639
    170  C          0.7480   -9.8370   23.4810 C.2   156  PHE156      0.2290
    171  O          1.2220   -9.0170   24.2500 O.2   156  PHE156     -0.2864
    172  CB        -0.9160  -11.5300   24.3490 C.3   156  PHE156      0.0560
    173  CG        -2.2440  -11.6690   25.0110 C.ar  156  PHE156     -0.0200
    174  CD1       -2.5330  -10.9510   26.1820 C.ar  156  PHE156     -0.0042
    175  CD2       -3.1980  -12.5210   24.4790 C.ar  156  PHE156     -0.0042
    176  CE1       -3.7710  -11.1040   26.8090 C.ar  156  PHE156     -0.0003
    177  CE2       -4.4470  -12.6800   25.0770 C.ar  156  PHE156     -0.0003
    178  CZ        -4.7310  -11.9670   26.2470 C.ar  156  PHE156     -0.0000
@<TRIPOS>BOND
     1    79    77   ar
     2    79    80   ar
     3    81    80    1
     4    69    67    1
     5    77    75   ar
     6    80    78   ar
     7    54    53    2
     8   167   166    1
     9    55    56    1
    10    55    52    1
    11    53    52    1
    12    67    66    1
    13    62    63    1
    14    66    63    1
    15    66    68    1
    16   166   165    1
    17    75    74    1
    18    75    76   ar
    19    78    76   ar
    20    52    51    1
    21    59    60    2
    22    59    58    1
    23    74    71    1
    24    63    64    1
    25    70    64   am
    26    70    71    1
    27   165   164    1
    28    51    42   am
    29    57    58    1
    30    58    61    1
    31    37    36    2
    32    36    35    1
    33    64    65    2
    34    71    72    1
    35   164   163    1
    36    39    38    1
    37    42    43    2
    38    42    41    1
    39   158   157    1
    40    38    35    1
    41    40    41    1
    42   151   152    1
    43    72    73    2
    44    35    34    1
    45    30    31    1
    46   159   160    1
    47    34    32   am
    48    41    44    1
    49   160   163    1
    50   160   161    1
    51    32    33    2
    52    32    31    1
    53   152   153    1
    54   152   155    1
    55    24    25    2
    56    24    23    1
    57    14    13    1
    58    14    15    2
    59   157   156    1
    60    16    13    1
    61    16    17    1
    62    13    12    1
    63   153   154    2
    64    44    45    1
    65   156   155    1
    66    22    23    1
    67    89    87    1
    68   161   162    2
    69   161   168   am
    70    23    26    1
    71    17    18   ar
    72    17    19   ar
    73    86    87    1
    74    86    83    1
    75    82    83    1
    76    45    46    1
    77    18    20   ar
    78    26    28    1
    79    26    27    1
    80   168   169    1
    81    87    88    1
    82    19    21   ar
    83    83    84    1
    84   146   145    2
    85    46    47    1
    86    20    21   ar
    87   170   169    1
    88   170   171    2
    89    27    29    1
    90   169   172    1
    91   105   104    1
    92   150   148    1
    93    84    85    2
    94   145   144    1
    95    47    48    2
    96    49    48    1
    97   172   173    1
    98   175   173   ar
    99   175   177   ar
   100   104   103    1
   101    48    50    1
   102   147   144    1
   103   147   148    1
   104   144   143    1
   105     4     3    2
   106   173   174   ar
   107   148   149    1
   108   177   178   ar
   109     3     2    1
   110     5     2    1
   111     5     6    1
   112   103   102    1
   113   174   176   ar
   114     2     1    1
   115   178   176   ar
   116   112   110    1
   117    97    95    1
   118   141   142    1
   119   141   140    1
   120   111   110    1
   121   127   125    1
   122     6     7   ar
   123     6     8   ar
   124   102    99    1
   125   110   107    1
   126     7     9   ar
   127    96    95    1
   128    90    91    1
   129    94    95    1
   130    94    91    1
   131   125   122    1
   132   125   126    1
   133     8    10   ar
   134   129   130    1
   135   129   123   am
   136   116   115    2
   137   134   133    1
   138   130   133    1
   139   130   131    1
   140   122   123    1
   141   122   121    1
   142   140   139    1
   143     9    11   ar
   144   128   126    1
   145    98    99    1
   146    98    92   am
   147    91    92    1
   148    99   100    1
   149    92    93    2
   150    10    11   ar
   151   123   124    2
   152   107   108    1
   153   107   106    1
   154   139   136    1
   155   115   121   am
   156   115   114    1
   157   131   132    2
   158   108   109    2
   159   108   113   am
   160   100   101    2
   161   113   114    1
   162   138   137    2
   163   114   117    1
   164   137   136    1
   165   136   135    1
   166   117   118    1
   167   118   119    1
   168   118   120    1
