@<TRIPOS>MOLECULE
tmp/3wjbA00.pdb
 118 110 0 0 0
SMALL
GASTEIGER

@<TRIPOS>ATOM
      1  N         39.7620   -8.4620  -27.2630 N.3    25  TYR25      -0.1241
      2  CA        40.4970   -9.6930  -26.9920 C.3    25  TYR25       0.1605
      3  C         41.6040   -9.7700  -28.0610 C.2    25  TYR25       0.2264
      4  O         41.6680   -8.9100  -28.9260 O.2    25  TYR25      -0.2867
      5  CB        39.5420  -10.9180  -26.9010 C.3    25  TYR25       0.0534
      6  CG        40.0640  -12.1200  -26.0920 C.ar   25  TYR25      -0.0201
      7  CD1       40.3620  -12.0240  -24.7110 C.ar   25  TYR25      -0.0009
      8  CD2       40.2210  -13.3760  -26.7100 C.ar   25  TYR25      -0.0009
      9  CE1       40.8420  -13.1700  -23.9800 C.ar   25  TYR25       0.0417
     10  CE2       40.7010  -14.5080  -25.9940 C.ar   25  TYR25       0.0417
     11  CZ        41.0110  -14.4050  -24.6520 C.ar   25  TYR25       0.1957
     12  OH        41.4890  -15.5560  -24.0100 O.3    25  TYR25      -0.2866
     13  N         41.9350  -11.5900  -30.5070 N.3    27  THR27      -0.1203
     14  CA        41.4790  -12.0530  -31.7670 C.3    27  THR27       0.1994
     15  C         40.3440  -11.1380  -32.2230 C.2    27  THR27       0.2617
     16  O         39.9780  -11.1410  -33.4170 O.2    27  THR27      -0.2717
     17  CB        40.9770  -13.5100  -31.7160 C.3    27  THR27       0.1784
     18  OG1       39.7430  -13.5510  -30.9910 O.3    27  THR27      -0.2211
     19  CG2       42.0840  -14.5230  -31.1180 C.3    27  THR27       0.0376
     20  N         39.7680  -10.3790  -31.2860 N.am   28  ILE28      -0.1979
     21  CA        38.7540   -9.4250  -31.7070 C.3    28  ILE28       0.1595
     22  C         39.0510   -7.9860  -31.2960 C.2    28  ILE28       0.2287
     23  O         39.2330   -7.6750  -30.1310 O.2    28  ILE28      -0.2864
     24  CB        37.2640   -9.9210  -31.4920 C.3    28  ILE28       0.0276
     25  CG1       36.3500   -9.2270  -32.5090 C.3    28  ILE28       0.0022
     26  CG2       36.7970   -9.7860  -30.0560 C.3    28  ILE28       0.0022
     27  CD1       34.9540   -9.7600  -32.4940 C.3    28  ILE28       0.0001
     28  N         35.1070   -3.6380  -29.0270 N.3    31  PHE31      -0.1241
     29  CA        33.7010   -3.4110  -29.3880 C.3    31  PHE31       0.1605
     30  C         32.9260   -2.9640  -28.2240 C.2    31  PHE31       0.2264
     31  O         33.4960   -2.6770  -27.2190 O.2    31  PHE31      -0.2867
     32  CB        33.0130   -4.5980  -30.0520 C.3    31  PHE31       0.0534
     33  CG        32.9650   -5.8210  -29.2210 C.ar   31  PHE31      -0.0203
     34  CD1       34.0920   -6.6040  -29.0510 C.ar   31  PHE31      -0.0042
     35  CD2       31.7720   -6.2330  -28.6710 C.ar   31  PHE31      -0.0042
     36  CE1       34.0310   -7.7760  -28.3140 C.ar   31  PHE31      -0.0003
     37  CE2       31.7110   -7.3890  -27.9230 C.ar   31  PHE31      -0.0003
     38  CZ        32.8400   -8.1780  -27.7580 C.ar   31  PHE31      -0.0000
     39  N         28.7070   -2.6700  -26.3930 N.3    33  TYR33      -0.1241
     40  CA        27.3030   -3.2380  -26.4280 C.3    33  TYR33       0.1605
     41  C         26.4800   -2.6320  -25.2920 C.2    33  TYR33       0.2264
     42  O         27.0180   -2.1020  -24.2880 O.2    33  TYR33      -0.2867
     43  CB        27.3360   -4.8030  -26.2760 C.3    33  TYR33       0.0534
     44  CG        28.1970   -5.1530  -25.0970 C.ar   33  TYR33      -0.0201
     45  CD1       29.6080   -5.2200  -25.2680 C.ar   33  TYR33      -0.0009
     46  CD2       27.6840   -5.1790  -23.8110 C.ar   33  TYR33      -0.0009
     47  CE1       30.4660   -5.4580  -24.2130 C.ar   33  TYR33       0.0417
     48  CE2       28.4940   -5.4210  -22.6980 C.ar   33  TYR33       0.0417
     49  CZ        30.0020   -5.6000  -23.0200 C.ar   33  TYR33       0.1957
     50  OH        31.0290   -5.7420  -22.1240 O.3    33  TYR33      -0.2866
     51  N         22.5080   -8.3070  -23.2100 N.3    53  THR53      -0.1218
     52  CA        23.3130   -7.3120  -23.9470 C.3    53  THR53       0.1862
     53  C         22.6130   -6.9890  -25.2330 C.2    53  THR53       0.2287
     54  O         22.0580   -7.8860  -25.8260 O.2    53  THR53      -0.2866
     55  CB        24.6980   -7.8950  -24.3010 C.3    53  THR53       0.1770
     56  OG1       24.5710   -9.3080  -24.4440 O.3    53  THR53      -0.2211
     57  CG2       25.7100   -7.6510  -23.1820 C.3    53  THR53       0.0375
     58  N         21.8480   -9.4830  -28.3950 N.3    62  LEU62      -0.1231
     59  CA        23.1760  -10.0820  -28.5730 C.3    62  LEU62       0.1693
     60  C         23.0970  -11.3860  -27.7420 C.2    62  LEU62       0.2591
     61  O         22.8600  -12.4610  -28.2610 O.2    62  LEU62      -0.2718
     62  CB        24.3000   -9.1350  -28.0610 C.3    62  LEU62       0.0284
     63  CG        25.0420   -8.1520  -29.0080 C.3    62  LEU62       0.0019
     64  CD1       26.0960   -7.5300  -28.2020 C.3    62  LEU62       0.0001
     65  CD2       25.7740   -8.6460  -30.2940 C.3    62  LEU62       0.0001
     66  N         23.1770  -11.2510  -26.4430 N.am   63  LEU63      -0.1980
     67  CA        23.2010  -12.4200  -25.5540 C.3    63  LEU63       0.1596
     68  C         22.4970  -12.1680  -24.2470 C.2    63  LEU63       0.2287
     69  O         22.4090  -11.0290  -23.6840 O.2    63  LEU63      -0.2864
     70  CB        24.6330  -12.8510  -25.2790 C.3    63  LEU63       0.0297
     71  CG        25.5000  -13.0730  -26.5090 C.3    63  LEU63       0.0022
     72  CD1       27.0010  -13.0330  -26.0560 C.3    63  LEU63       0.0001
     73  CD2       25.1740  -14.3880  -27.2170 C.3    63  LEU63       0.0001
     74  N         24.4350  -18.3320  -25.5360 N.3    85  THR85      -0.1218
     75  CA        25.4590  -19.1910  -26.2150 C.3    85  THR85       0.1862
     76  C         25.1150  -20.6980  -26.1420 C.2    85  THR85       0.2287
     77  O         25.1230  -21.4190  -27.1360 O.2    85  THR85      -0.2866
     78  CB        26.8300  -18.9440  -25.6540 C.3    85  THR85       0.1770
     79  OG1       26.7550  -18.9720  -24.2470 O.3    85  THR85      -0.2211
     80  CG2       27.3230  -17.5380  -26.0340 C.3    85  THR85       0.0375
     81  N         36.6120  -22.4500  -24.8640 N.3   115  VAL115     -0.1245
     82  CA        36.7970  -21.7320  -23.6020 C.3   115  VAL115      0.1561
     83  C         37.4650  -22.6670  -22.6280 C.2   115  VAL115      0.2260
     84  O         37.1410  -23.8470  -22.5990 O.2   115  VAL115     -0.2867
     85  CB        35.4230  -21.4060  -22.9780 C.3   115  VAL115      0.0252
     86  CG1       35.5670  -20.4230  -21.8510 C.3   115  VAL115      0.0019
     87  CG2       34.5350  -20.8460  -23.9860 C.3   115  VAL115      0.0019
     88  N         38.7240  -14.3940  -19.4330 N.3   135  LEU135     -0.1245
     89  CA        38.5960  -15.7310  -19.9650 C.3   135  LEU135      0.1561
     90  C         39.9580  -16.1930  -20.4120 C.2   135  LEU135      0.2260
     91  O         40.7590  -15.3160  -20.7960 O.2   135  LEU135     -0.2867
     92  CB        37.6120  -15.6710  -21.1140 C.3   135  LEU135      0.0270
     93  CG        37.7800  -16.6350  -22.2580 C.3   135  LEU135      0.0019
     94  CD1       36.4160  -17.1970  -22.5250 C.3   135  LEU135      0.0001
     95  CD2       38.3100  -15.8400  -23.4450 C.3   135  LEU135      0.0001
     96  N         41.4560  -19.3140  -23.2630 N.3   137  THR137     -0.1218
     97  CA        41.0340  -20.3960  -24.1420 C.3   137  THR137      0.1862
     98  C         42.1040  -21.5100  -24.3790 C.2   137  THR137      0.2287
     99  O         43.2070  -21.5250  -23.7390 O.2   137  THR137     -0.2866
    100  CB        40.4750  -19.8640  -25.4400 C.3   137  THR137      0.1770
    101  OG1       41.4590  -19.0820  -26.1230 O.3   137  THR137     -0.2211
    102  CG2       39.3010  -18.9760  -25.1700 C.3   137  THR137      0.0375
    103  N         38.2650   -9.6320  -21.2360 N.3   145  LEU145     -0.1231
    104  CA        37.4520   -9.6700  -22.3900 C.3   145  LEU145      0.1693
    105  C         36.3800   -8.6260  -22.1730 C.2   145  LEU145      0.2591
    106  O         36.0590   -7.9180  -23.1070 O.2   145  LEU145     -0.2718
    107  CB        36.7920  -11.0230  -22.6130 C.3   145  LEU145      0.0284
    108  CG        35.9060  -11.1720  -23.8670 C.3   145  LEU145      0.0019
    109  CD1       36.8310  -11.2980  -25.0400 C.3   145  LEU145      0.0001
    110  CD2       34.8730  -12.4060  -23.8800 C.3   145  LEU145      0.0001
    111  N         35.7590   -8.5580  -20.9950 N.am  146  LEU146     -0.1980
    112  CA        34.5020   -7.8080  -20.9630 C.3   146  LEU146      0.1596
    113  C         34.5990   -6.8790  -19.8210 C.2   146  LEU146      0.2287
    114  O         35.0870   -7.2880  -18.7950 O.2   146  LEU146     -0.2864
    115  CB        33.2010   -8.7000  -20.9250 C.3   146  LEU146      0.0297
    116  CG        33.2190   -9.7930  -21.9930 C.3   146  LEU146      0.0022
    117  CD1       31.8960  -10.5430  -22.2070 C.3   146  LEU146      0.0001
    118  CD2       33.5820   -9.1580  -23.3120 C.3   146  LEU146      0.0001
@<TRIPOS>BOND
     1    16    15    2
     2    25    27    1
     3    25    24    1
     4    15    14    1
     5    15    20   am
     6    14    17    1
     7    14    13    1
     8    17    19    1
     9    17    18    1
    10    21    24    1
    11    21    22    1
    12    21    20    1
    13    24    26    1
    14    22    23    2
    15    65    63    1
    16    32    29    1
    17    32    33    1
    18    29    28    1
    19    29    30    1
    20    33    34   ar
    21    33    35   ar
    22    34    36   ar
    23    63    64    1
    24    63    62    1
    25     4     3    2
    26    35    37   ar
    27    59    58    1
    28    59    62    1
    29    59    60    1
    30    36    38   ar
    31    61    60    2
    32    30    31    2
    33     3     2    1
    34    37    38   ar
    35    60    66   am
    36     1     2    1
    37    73    71    1
    38    77    76    2
    39     2     5    1
    40     5     6    1
    41     8     6   ar
    42     8    10   ar
    43    71    72    1
    44    71    70    1
    45    66    67    1
    46    40    39    1
    47    40    43    1
    48    40    41    1
    49    43    44    1
    50    75    76    1
    51    75    78    1
    52    75    74    1
    53   101   100    1
    54     6     7   ar
    55    80    78    1
    56    10    11   ar
    57    54    53    2
    58    78    79    1
    59    67    70    1
    60    67    68    1
    61   100   102    1
    62   100    97    1
    63    41    42    2
    64    45    44   ar
    65    45    47   ar
    66    53    52    1
    67    44    46   ar
    68   109   108    1
    69    81    82    1
    70     7     9   ar
    71    11    12    1
    72    11     9   ar
    73    56    55    1
    74    98    97    1
    75    98    99    2
    76    55    52    1
    77    55    57    1
    78    68    69    2
    79    47    49   ar
    80    97    96    1
    81    87    85    1
    82    52    51    1
    83   110   108    1
    84   108   107    1
    85    46    48   ar
    86    82    85    1
    87    82    83    1
    88    95    93    1
    89   118   116    1
    90   106   105    2
    91    49    48   ar
    92    49    50    1
    93    85    86    1
    94    83    84    2
    95   107   104    1
    96    94    93    1
    97   104   105    1
    98   104   103    1
    99    93    92    1
   100   117   116    1
   101   105   111   am
   102   116   115    1
   103    92    89    1
   104   111   112    1
   105   112   115    1
   106   112   113    1
   107    91    90    2
   108    90    89    1
   109    89    88    1
   110   113   114    2
