@<TRIPOS>MOLECULE
tmp/3wjcA00.pdb
 136 125 0 0 0
SMALL
GASTEIGER

@<TRIPOS>ATOM
      1  N         20.7640  -11.3150  -17.0910 N.3    51  GLN51      -0.1245
      2  CA        21.5460  -10.3130  -17.8220 C.3    51  GLN51       0.1566
      3  C         21.3750  -10.5320  -19.3250 C.2    51  GLN51       0.2260
      4  O         21.1140  -11.6250  -19.8370 O.2    51  GLN51      -0.2867
      5  CB        22.9970  -10.1570  -17.3560 C.3    51  GLN51       0.0367
      6  CG        23.9700   -9.3920  -18.2660 C.3    51  GLN51       0.0905
      7  CD        24.7440  -10.2850  -19.2040 C.2    51  GLN51       0.2608
      8  OE1       25.9860  -10.2660  -19.2480 O.2    51  GLN51      -0.2717
      9  NE2       23.9940  -11.0890  -19.9650 N.am   51  GLN51      -0.0878
     10  N         23.5790  -11.3300  -26.5170 N.3    63  LEU63      -0.1231
     11  CA        23.1670  -12.3690  -25.5810 C.3    63  LEU63       0.1693
     12  C         22.4960  -12.0620  -24.2450 C.2    63  LEU63       0.2592
     13  O         22.4540  -10.9380  -23.7150 O.2    63  LEU63      -0.2718
     14  CB        24.3150  -13.3500  -25.3430 C.3    63  LEU63       0.0284
     15  CG        25.4010  -12.9730  -26.3450 C.3    63  LEU63       0.0019
     16  CD1       26.6870  -12.5520  -25.5770 C.3    63  LEU63       0.0001
     17  CD2       25.3550  -14.0670  -27.4080 C.3    63  LEU63       0.0001
     18  N         21.9720  -13.1570  -23.7060 N.am   64  ALA64      -0.1966
     19  CA        21.4490  -13.2320  -22.3410 C.3    64  ALA64       0.1728
     20  C         22.2240  -14.2290  -21.4920 C.2    64  ALA64       0.2616
     21  O         22.7230  -15.2150  -22.0470 O.2    64  ALA64      -0.2715
     22  CB        20.0020  -13.6870  -22.2970 C.3    64  ALA64       0.0334
     23  N         22.3150  -13.9860  -20.1820 N.am   65  GLU65      -0.1977
     24  CA        22.7710  -15.0770  -19.3230 C.3    65  GLU65       0.1602
     25  C         22.0540  -14.9380  -17.9880 C.2    65  GLU65       0.2287
     26  O         21.7550  -13.8130  -17.6030 O.2    65  GLU65      -0.2864
     27  CB        24.2820  -15.0050  -19.1580 C.3    65  GLU65       0.0415
     28  CG        24.7710  -14.2660  -17.9390 C.3    65  GLU65       0.1163
     29  CD        25.9980  -13.4610  -18.3140 C.2    65  GLU65       0.3649
     30  OE1       26.1830  -13.3420  -19.5410 O.co2  65  GLU65      -0.2457
     31  OE2       26.7620  -12.8850  -17.5130 O.co2  65  GLU65      -0.2457
     32  N         24.1260  -19.7360  -19.7030 N.3    83  CYS83      -0.1221
     33  CA        24.2390  -18.7620  -20.7520 C.3    83  CYS83       0.1808
     34  C         23.6450  -18.5850  -22.1200 C.2    83  CYS83       0.2602
     35  O         23.9310  -19.5860  -22.7480 O.2    83  CYS83      -0.2717
     36  CB        25.6860  -18.3680  -20.4880 C.3    83  CYS83       0.0970
     37  SG        25.9150  -17.5760  -22.0800 S.3    83  CYS83      -0.0800
     38  N         22.9840  -17.6770  -22.8390 N.am   84  SER84      -0.1938
     39  CA        22.5060  -17.8480  -24.2850 C.3    84  SER84       0.2055
     40  C         23.2230  -18.5940  -25.4310 C.2    84  SER84       0.2643
     41  O         22.7110  -19.3260  -26.2770 O.2    84  SER84      -0.2714
     42  CB        21.3700  -16.9820  -24.8660 C.3    84  SER84       0.2130
     43  OG        21.7050  -15.6290  -25.1170 O.3    84  SER84      -0.2179
     44  N         24.5370  -18.4750  -25.5610 N.am   85  THR85      -0.1950
     45  CA        25.3110  -19.3300  -26.4510 C.3    85  THR85       0.1897
     46  C         24.9830  -20.8040  -26.2700 C.2    85  THR85       0.2313
     47  O         25.2320  -21.6490  -27.1460 O.2    85  THR85      -0.2863
     48  CB        26.7720  -19.2890  -25.9850 C.3    85  THR85       0.1794
     49  OG1       26.7790  -19.5660  -24.5820 O.3    85  THR85      -0.2208
     50  CG2       27.2700  -17.8290  -26.0000 C.3    85  THR85       0.0378
     51  N         25.9000  -22.4500  -22.8130 N.3    87  LEU87      -0.1245
     52  CA        27.0030  -22.7570  -21.9050 C.3    87  LEU87       0.1561
     53  C         26.7090  -22.5140  -20.4320 C.2    87  LEU87       0.2260
     54  O         26.3060  -21.3880  -20.1170 O.2    87  LEU87      -0.2867
     55  CB        28.0950  -21.7130  -22.1350 C.3    87  LEU87       0.0270
     56  CG        29.5150  -21.7310  -21.5520 C.3    87  LEU87       0.0019
     57  CD1       30.3490  -21.5360  -22.7890 C.3    87  LEU87       0.0001
     58  CD2       29.8690  -20.5270  -20.7150 C.3    87  LEU87       0.0001
     59  N         28.1990  -22.4200  -16.3670 N.3    89  GLU89      -0.1196
     60  CA        29.3310  -22.2240  -15.4600 C.3    89  GLU89       0.1783
     61  C         28.8750  -22.5410  -14.0290 C.2    89  GLU89       0.2306
     62  O         27.7670  -22.2260  -13.5520 O.2    89  GLU89      -0.2863
     63  CB        29.7840  -20.7660  -15.3710 C.2    89  GLU89       0.0071
     64  CG        30.1470  -20.0410  -16.6750 C.2    89  GLU89       0.0834
     65  CD        30.2510  -18.5090  -16.7000 C.2    89  GLU89       0.3877
     66  OE1       30.5910  -17.7880  -15.7260 O.co2  89  GLU89      -0.2406
     67  OE2       29.9870  -17.9070  -17.7730 O.co2  89  GLU89      -0.2406
     68  N         36.7590  -22.9420  -24.4850 N.3   115  VAL115     -0.1245
     69  CA        36.8140  -22.1140  -23.2850 C.3   115  VAL115      0.1561
     70  C         37.3560  -22.9210  -22.1160 C.2   115  VAL115      0.2260
     71  O         36.8600  -24.0220  -21.8690 O.2   115  VAL115     -0.2867
     72  CB        35.4120  -21.6940  -22.8420 C.3   115  VAL115      0.0252
     73  CG1       35.5160  -20.6740  -21.7320 C.3   115  VAL115      0.0019
     74  CG2       34.6650  -21.0940  -24.0090 C.3   115  VAL115      0.0019
     75  N         36.8720  -19.3260  -16.6310 N.3   118  ILE118     -0.1245
     76  CA        36.2940  -18.0000  -16.6660 C.3   118  ILE118      0.1561
     77  C         36.2620  -17.4110  -15.2610 C.2   118  ILE118      0.2260
     78  O         35.9930  -18.1870  -14.3500 O.2   118  ILE118     -0.2867
     79  CB        34.8480  -18.0510  -17.1120 C.3   118  ILE118      0.0252
     80  CG1       34.7580  -18.6940  -18.4880 C.3   118  ILE118      0.0019
     81  CG2       34.3290  -16.6200  -17.1150 C.3   118  ILE118      0.0019
     82  CD1       33.3000  -18.5910  -18.8020 C.3   118  ILE118      0.0001
     83  N         34.4250  -14.1760  -12.9960 N.3   120  ARG120     -0.1245
     84  CA        33.6000  -12.9910  -12.9550 C.3   120  ARG120      0.1563
     85  C         34.0170  -12.0900  -11.8040 C.2   120  ARG120      0.2260
     86  O         34.8470  -12.4620  -10.9830 O.2   120  ARG120     -0.2867
     87  CB        32.1400  -13.4310  -12.9570 C.3   120  ARG120      0.0307
     88  CG        32.0390  -14.2700  -14.2120 C.3   120  ARG120      0.0489
     89  CD        30.7490  -15.0760  -14.0980 C.3   120  ARG120      0.2205
     90  NE        30.5210  -15.4030  -15.4880 N.pl3 120  ARG120     -0.0865
     91  CZ        29.5450  -14.9200  -16.2510 C.cat 120  ARG120      0.5346
     92  NH1       28.6020  -14.0960  -15.7890 N.pl3 120  ARG120      0.1354
     93  NH2       29.5800  -15.3580  -17.5050 N.pl3 120  ARG120      0.1354
     94  N         31.4950   -4.6440  -13.9180 N.3   131  TYR131     -0.1241
     95  CA        31.3340   -6.0660  -14.1940 C.3   131  TYR131      0.1605
     96  C         32.5370   -6.3970  -15.0640 C.2   131  TYR131      0.2264
     97  O         32.5020   -6.1280  -16.2630 O.2   131  TYR131     -0.2867
     98  CB        30.0280   -6.3170  -14.9470 C.3   131  TYR131      0.0534
     99  CG        29.8590   -7.7590  -15.3510 C.ar  131  TYR131     -0.0201
    100  CD1       30.6040   -8.7750  -14.7620 C.ar  131  TYR131     -0.0009
    101  CD2       28.9120   -8.1210  -16.3030 C.ar  131  TYR131     -0.0009
    102  CE1       30.3800  -10.1030  -15.1370 C.ar  131  TYR131      0.0417
    103  CE2       28.6970   -9.4340  -16.6890 C.ar  131  TYR131      0.0417
    104  CZ        29.4460  -10.4340  -16.1050 C.ar  131  TYR131      0.1957
    105  OH        29.2350  -11.7440  -16.4880 O.3   131  TYR131     -0.2866
    106  N         35.0500   -9.3830  -16.6170 N.3   133  VAL133     -0.1245
    107  CA        35.0830  -10.7880  -16.9820 C.3   133  VAL133      0.1561
    108  C         36.4730  -11.0530  -17.5330 C.2   133  VAL133      0.2260
    109  O         37.1370  -10.1920  -18.1040 O.2   133  VAL133     -0.2867
    110  CB        34.0630  -11.1150  -18.0550 C.3   133  VAL133      0.0252
    111  CG1       33.9130  -12.6170  -18.2440 C.3   133  VAL133      0.0019
    112  CG2       32.7600  -10.5610  -17.5100 C.3   133  VAL133      0.0019
    113  N         38.9230  -14.2040  -19.4780 N.3   135  LEU135     -0.1245
    114  CA        38.8100  -15.6010  -19.9130 C.3   135  LEU135      0.1561
    115  C         40.0980  -16.3330  -20.2450 C.2   135  LEU135      0.2260
    116  O         41.0900  -15.6310  -20.4240 O.2   135  LEU135     -0.2867
    117  CB        37.7960  -15.7260  -21.0400 C.3   135  LEU135      0.0270
    118  CG        37.7980  -16.8000  -22.1190 C.3   135  LEU135      0.0019
    119  CD1       36.3170  -16.9960  -22.4110 C.3   135  LEU135      0.0001
    120  CD2       38.5440  -16.1670  -23.3050 C.3   135  LEU135      0.0001
    121  N         38.3130   -9.6950  -20.9270 N.3   145  LEU145     -0.1231
    122  CA        37.5480   -9.9050  -22.1410 C.3   145  LEU145      0.1693
    123  C         36.4440   -8.8560  -22.0910 C.2   145  LEU145      0.2591
    124  O         36.3830   -7.9460  -22.9310 O.2   145  LEU145     -0.2718
    125  CB        37.0090  -11.3340  -22.0820 C.3   145  LEU145      0.0284
    126  CG        36.0650  -11.5240  -23.2710 C.3   145  LEU145      0.0019
    127  CD1       36.7950  -11.2520  -24.5670 C.3   145  LEU145      0.0001
    128  CD2       35.4130  -12.9040  -23.3350 C.3   145  LEU145      0.0001
    129  N         35.5820   -8.9470  -21.0820 N.am  146  LEU146     -0.1980
    130  CA        34.5140   -7.9460  -21.0700 C.3   146  LEU146      0.1596
    131  C         34.5690   -7.0160  -19.8600 C.2   146  LEU146      0.2287
    132  O         34.8750   -7.4440  -18.7470 O.2   146  LEU146     -0.2864
    133  CB        33.1420   -8.6220  -20.9930 C.3   146  LEU146      0.0297
    134  CG        32.7950   -9.7080  -22.0030 C.3   146  LEU146      0.0022
    135  CD1       31.5460  -10.5450  -21.7350 C.3   146  LEU146      0.0001
    136  CD2       32.7450   -9.0780  -23.3850 C.3   146  LEU146      0.0001
@<TRIPOS>BOND
     1    17    15    1
     2    47    46    2
     3    10    11    1
     4    45    46    1
     5    45    48    1
     6    45    44    1
     7    15    16    1
     8    15    14    1
     9    41    40    2
    10    50    48    1
    11    48    49    1
    12    11    14    1
    13    11    12    1
    14    44    40   am
    15    40    39    1
    16    43    42    1
    17    42    39    1
    18   127   126    1
    19    68    69    1
    20    39    38    1
    21    12    13    2
    22    12    18   am
    23    74    72    1
    24    18    19    1
    25   136   134    1
    26   128   126    1
    27   120   118    1
    28    69    72    1
    29    69    70    1
    30   126   125    1
    31   124   123    2
    32    72    73    1
    33    38    34   am
    34    51    52    1
    35    57    56    1
    36    35    34    2
    37   119   118    1
    38    19    22    1
    39    19    20    1
    40   122   123    1
    41   122   125    1
    42   122   121    1
    43    55    52    1
    44    55    56    1
    45    34    33    1
    46   118   117    1
    47    70    71    2
    48   123   129   am
    49    37    36    1
    50    21    20    2
    51   134   135    1
    52   134   133    1
    53    52    53    1
    54    56    58    1
    55    20    23   am
    56   129   130    1
    57   130   133    1
    58   130   131    1
    59   117   114    1
    60    33    36    1
    61    33    32    1
    62    53    54    2
    63   116   115    2
    64   115   114    1
    65    23    24    1
    66     9     7   am
    67   114   113    1
    68   131   132    2
    69     4     3    2
    70    30    29   ar
    71     3     2    1
    72    24    27    1
    73    24    25    1
    74     8     7    2
    75     7     6    1
    76    27    28    1
    77    82    80    1
    78    80    79    1
    79    29    28    1
    80    29    31   ar
    81     6     5    1
    82   111   110    1
    83   109   108    2
    84   110   112    1
    85   110   107    1
    86    25    26    2
    87     2     5    1
    88     2     1    1
    89    67    65   ar
    90   108   107    1
    91    93    91    1
    92    81    79    1
    93    79    76    1
    94   107   106    1
    95    65    64    1
    96    65    66   ar
    97   103   101   ar
    98   103   104   ar
    99    64    63    2
   100    76    75    1
   101    76    77    1
   102   105   104    1
   103    59    60    1
   104   101    99   ar
   105    97    96    2
   106    91    92    1
   107    91    90    2
   108   104   102   ar
   109    90    89    1
   110    60    63    1
   111    60    61    1
   112    99    98    1
   113    99   100   ar
   114    77    78    2
   115   102   100   ar
   116    96    95    1
   117    98    95    1
   118    88    89    1
   119    88    87    1
   120    95    94    1
   121    61    62    2
   122    83    84    1
   123    87    84    1
   124    84    85    1
   125    85    86    2
