@<TRIPOS>MOLECULE
tmp/3wjmE00.pdb
 114 110 0 0 0
SMALL
GASTEIGER

@<TRIPOS>ATOM
      1  N         29.1930   26.7060   25.1560 N.3   151  GLU151     -0.1245
      2  CA        28.3090   27.8440   24.9630 C.3   151  GLU151      0.1567
      3  C         29.1140   29.1170   24.7630 C.2   151  GLU151      0.2260
      4  O         28.9140   29.8510   23.7790 O.2   151  GLU151     -0.2867
      5  CB        27.3960   27.9990   26.1630 C.3   151  GLU151      0.0388
      6  CG        26.2410   28.9560   25.9500 C.3   151  GLU151      0.1160
      7  CD        25.4020   29.1090   27.2120 C.2   151  GLU151      0.3649
      8  OE1       25.6790   28.3620   28.1970 O.co2 151  GLU151     -0.2457
      9  OE2       24.4900   29.9800   27.2320 O.co2 151  GLU151     -0.2457
     10  N         29.8230   31.3960   21.3830 N.3   155  LYS155     -0.1245
     11  CA        29.5660   32.8220   21.2970 C.3   155  LYS155      0.1561
     12  C         30.8160   33.5240   20.7460 C.2   155  LYS155      0.2260
     13  O         30.7110   34.4270   19.8980 O.2   155  LYS155     -0.2867
     14  CB        29.1510   33.4090   22.6410 C.3   155  LYS155      0.0271
     15  CG        27.8370   32.8830   23.1580 C.3   155  LYS155      0.0035
     16  CD        27.5160   33.3550   24.5510 C.3   155  LYS155      0.0206
     17  CE        26.1510   32.8170   24.9410 C.3   155  LYS155      0.1093
     18  NZ        25.7640   33.1750   26.3370 N.3   155  LYS155     -0.1314
     19  N         21.8770   40.5310   25.8770 N.3   173  LYS173     -0.1231
     20  CA        21.0070   39.4780   26.4540 C.3   173  LYS173      0.1693
     21  C         21.6860   38.0970   26.5570 C.2   173  LYS173      0.2592
     22  O         21.2210   37.2380   27.2960 O.2   173  LYS173     -0.2718
     23  CB        19.6730   39.3840   25.7170 C.3   173  LYS173      0.0285
     24  CG        18.8780   40.6830   25.7450 C.3   173  LYS173      0.0035
     25  CD        17.5650   40.5060   25.0000 C.3   173  LYS173      0.0206
     26  CE        17.2380   41.6850   24.0880 C.3   173  LYS173      0.1093
     27  NZ        16.1160   41.2870   23.1940 N.3   173  LYS173     -0.1314
     28  N         22.7950   37.9130   25.8410 N.am  174  TYR174     -0.1962
     29  CA        23.5410   36.6730   25.8430 C.3   174  TYR174      0.1771
     30  C         24.8190   36.8080   26.6530 C.2   174  TYR174      0.2620
     31  O         25.6690   35.9130   26.6110 O.2   174  TYR174     -0.2715
     32  CB        23.9040   36.2580   24.4080 C.3   174  TYR174      0.0574
     33  CG        22.7910   35.5960   23.6480 C.ar  174  TYR174     -0.0198
     34  CD1       22.2890   34.3700   24.0590 C.ar  174  TYR174     -0.0009
     35  CD2       22.2450   36.1810   22.5050 C.ar  174  TYR174     -0.0009
     36  CE1       21.2650   33.7410   23.3730 C.ar  174  TYR174      0.0417
     37  CE2       21.2130   35.5580   21.8050 C.ar  174  TYR174      0.0417
     38  CZ        20.7320   34.3320   22.2550 C.ar  174  TYR174      0.1957
     39  OH        19.7140   33.6740   21.6100 O.3   174  TYR174     -0.2866
     40  N         24.9720   37.9180   27.3730 N.am  175  GLY175     -0.1954
     41  CA        26.2030   38.1770   28.1390 C.3   175  GLY175      0.1869
     42  C         27.4530   38.5330   27.3250 C.2   175  GLY175      0.2309
     43  O         28.5740   38.2040   27.7230 O.2   175  GLY175     -0.2863
     44  N         30.4220   36.6610   29.4550 N.3   186  LYS186     -0.1231
     45  CA        30.0240   36.0390   30.7100 C.3   186  LYS186      0.1693
     46  C         29.8060   34.5240   30.5300 C.2   186  LYS186      0.2592
     47  O         29.3100   34.0790   29.5170 O.2   186  LYS186     -0.2718
     48  CB        28.7490   36.7060   31.2340 C.3   186  LYS186      0.0285
     49  CG        28.8610   38.1940   31.4960 C.3   186  LYS186      0.0035
     50  CD        27.5160   38.7330   31.9210 C.3   186  LYS186      0.0206
     51  CE        27.6560   40.1530   32.4150 C.3   186  LYS186      0.1093
     52  NZ        26.5610   40.9830   31.8460 N.3   186  LYS186     -0.1314
     53  N         30.1480   33.7520   31.5510 N.am  187  ALA187     -0.1966
     54  CA        30.2000   32.2950   31.4880 C.3   187  ALA187      0.1728
     55  C         29.5950   31.7430   32.7540 C.2   187  ALA187      0.2616
     56  O         29.9570   32.1580   33.8530 O.2   187  ALA187     -0.2715
     57  CB        31.6480   31.8200   31.3740 C.3   187  ALA187      0.0334
     58  N         28.6770   30.8000   32.6140 N.am  188  ASN188     -0.1972
     59  CA        28.2060   30.0740   33.7620 C.3   188  ASN188      0.1688
     60  C         28.9950   28.7820   33.8970 C.2   188  ASN188      0.2292
     61  O         29.6170   28.3230   32.9390 O.2   188  ASN188     -0.2864
     62  CB        26.7520   29.7360   33.5740 C.3   188  ASN188      0.1181
     63  CG        25.8250   30.8980   33.8670 C.2   188  ASN188      0.2629
     64  OD1       26.0380   31.6980   34.7970 O.2   188  ASN188     -0.2716
     65  ND2       24.7600   30.9780   33.0630 N.am  188  ASN188     -0.0877
     66  N         24.5070   25.2740   35.3160 N.3   192  ALA192     -0.1245
     67  CA        23.5140   26.1960   34.7840 C.3   192  ALA192      0.1562
     68  C         22.8030   25.6840   33.5230 C.2   192  ALA192      0.2260
     69  O         21.7960   26.2560   33.1380 O.2   192  ALA192     -0.2867
     70  CB        24.1310   27.5560   34.5370 C.3   192  ALA192      0.0290
     71  N         25.4810   31.5890   39.1770 N.3   663  TYR663     -0.1227
     72  CA        24.7210   31.9550   38.0140 C.3   663  TYR663      0.1736
     73  C         23.9960   33.2840   38.2770 C.2   663  TYR663      0.2595
     74  O         23.7270   34.0480   37.3640 O.2   663  TYR663     -0.2718
     75  CB        23.8010   30.8160   37.5760 C.3   663  TYR663      0.0548
     76  CG        22.5320   30.7020   38.3660 C.ar  663  TYR663     -0.0200
     77  CD1       22.2340   29.5510   39.1000 C.ar  663  TYR663     -0.0009
     78  CD2       21.6030   31.7560   38.3660 C.ar  663  TYR663     -0.0009
     79  CE1       21.0590   29.4580   39.8240 C.ar  663  TYR663      0.0417
     80  CE2       20.4300   31.6800   39.0890 C.ar  663  TYR663      0.0417
     81  CZ        20.1560   30.5290   39.8000 C.ar  663  TYR663      0.1957
     82  OH        18.9820   30.5150   40.5050 O.3   663  TYR663     -0.2866
     83  N         23.7320   33.6100   39.5290 N.am  664  LYS664     -0.1980
     84  CA        23.0570   34.8800   39.7890 C.3   664  LYS664      0.1596
     85  C         23.9450   36.0550   39.4290 C.2   664  LYS664      0.2287
     86  O         23.4830   37.1740   39.3980 O.2   664  LYS664     -0.2864
     87  CB        22.4710   35.0030   41.2200 C.3   664  LYS664      0.0298
     88  CG        21.1820   34.2120   41.4360 C.3   664  LYS664      0.0038
     89  CD        20.0840   34.9460   42.2190 C.3   664  LYS664      0.0206
     90  CE        18.8050   34.0880   42.1920 C.3   664  LYS664      0.1093
     91  NZ        17.9240   33.8820   43.4110 N.3   664  LYS664     -0.1314
     92  N         25.3510   36.1520   36.4140 N.3   666  ASN666     -0.1225
     93  CA        25.3640   36.1980   34.9680 C.3   666  ASN666      0.1785
     94  C         24.0580   36.5620   34.2760 C.2   666  ASN666      0.2597
     95  O         23.9280   36.4020   33.0560 O.2   666  ASN666     -0.2718
     96  CB        25.9590   34.9140   34.4320 C.3   666  ASN666      0.1169
     97  CG        27.4440   34.8220   34.7290 C.2   666  ASN666      0.2627
     98  OD1       28.1360   35.8220   34.6590 O.2   666  ASN666     -0.2716
     99  ND2       27.9260   33.6430   35.0820 N.am  666  ASN666     -0.0877
    100  N         23.1040   37.0730   35.0450 N.am  667  ILE667     -0.1966
    101  CA        21.8120   37.4340   34.4940 C.3   667  ILE667      0.1712
    102  C         21.8460   38.8420   33.8850 C.2   667  ILE667      0.2458
    103  O         22.4140   39.7520   34.4810 O.2   667  ILE667     -0.2730
    104  CB        20.6900   37.2810   35.5490 C.3   667  ILE667      0.0289
    105  CG1       20.6190   35.8310   36.0300 C.3   667  ILE667      0.0022
    106  CG2       19.3360   37.6730   34.9790 C.3   667  ILE667      0.0023
    107  CD1       20.0000   35.6670   37.4100 C.3   667  ILE667      0.0001
    108  N         21.2530   39.0050   32.6750 N.am  668  PRO668     -0.2727
    109  CA        21.0460   40.2630   31.9280 C.3   668  PRO668      0.1402
    110  C         19.8520   41.1180   32.3980 C.2   668  PRO668      0.2269
    111  O         19.1770   40.7570   33.3620 O.2   668  PRO668     -0.2865
    112  CB        20.7640   39.7620   30.5120 C.3   668  PRO668      0.0296
    113  CG        20.1280   38.4370   30.7190 C.3   668  PRO668      0.0237
    114  CD        20.8880   37.8310   31.8550 C.3   668  PRO668      0.0939
@<TRIPOS>BOND
     1    13    12    2
     2    12    11    1
     3    11    10    1
     4    11    14    1
     5    39    38    1
     6    37    38   ar
     7    37    35   ar
     8    38    36   ar
     9    35    33   ar
    10    14    15    1
    11    15    16    1
    12    27    26    1
    13    36    34   ar
    14    33    34   ar
    15    33    32    1
    16     4     3    2
    17    26    25    1
    18    32    29    1
    19    16    17    1
    20     3     2    1
    21    17    18    1
    22     2     1    1
    23     2     5    1
    24    25    24    1
    25    23    24    1
    26    23    20    1
    27    28    29    1
    28    28    21   am
    29    29    30    1
    30    19    20    1
    31     6     5    1
    32     6     7    1
    33    20    21    1
    34    21    22    2
    35    31    30    2
    36    30    40   am
    37     7     9   ar
    38     7     8   ar
    39    42    43    2
    40    42    41    1
    41    40    41    1
    42    44    45    1
    43    47    46    2
    44   112   113    1
    45   112   109    1
    46    46    45    1
    47    46    53   am
    48    45    48    1
    49   113   114    1
    50    48    49    1
    51    57    54    1
    52    54    53    1
    53    54    55    1
    54    49    50    1
    55    52    51    1
    56   114   108    1
    57    50    51    1
    58   109   110    1
    59   109   108    1
    60   110   111    2
    61    58    55   am
    62    58    59    1
    63   108   102   am
    64    55    56    2
    65    61    60    2
    66    95    94    2
    67    65    63   am
    68    69    68    2
    69    68    67    1
    70    62    59    1
    71    62    63    1
    72    59    60    1
    73    63    64    2
    74   102   103    2
    75   102   101    1
    76    94    93    1
    77    94   100   am
    78    96    97    1
    79    96    93    1
    80   101   100    1
    81   101   104    1
    82    70    67    1
    83    98    97    2
    84    97    99   am
    85    67    66    1
    86    93    92    1
    87   106   104    1
    88   104   105    1
    89   105   107    1
    90    74    73    2
    91    75    72    1
    92    75    76    1
    93    72    73    1
    94    72    71    1
    95    73    83   am
    96    78    76   ar
    97    78    80   ar
    98    76    77   ar
    99    80    81   ar
   100    77    79   ar
   101    86    85    2
   102    85    84    1
   103    83    84    1
   104    84    87    1
   105    81    79   ar
   106    81    82    1
   107    87    88    1
   108    88    89    1
   109    90    89    1
   110    90    91    1
