@<TRIPOS>MOLECULE
tmp/3wjmA00.pdb
 126 122 0 0 0
SMALL
GASTEIGER

@<TRIPOS>ATOM
      1  N         17.6790   -0.5570   72.5260 N.3   151  GLU151     -0.1245
      2  CA        18.4900   -0.0520   73.6040 C.3   151  GLU151      0.1567
      3  C         17.6240    0.3960   74.8060 C.2   151  GLU151      0.2260
      4  O         17.7730   -0.1130   75.9240 O.2   151  GLU151     -0.2867
      5  CB        19.3060    1.1070   73.1080 C.3   151  GLU151      0.0388
      6  CG        20.2050    1.6890   74.1520 C.3   151  GLU151      0.1160
      7  CD        21.0640    2.7600   73.5500 C.2   151  GLU151      0.3649
      8  OE1       20.9220    2.9620   72.3140 O.co2 151  GLU151     -0.2457
      9  OE2       21.8730    3.3830   74.2900 O.co2 151  GLU151     -0.2457
     10  N         17.0280   -1.3660   78.6670 N.3   155  LYS155     -0.1245
     11  CA        17.2020   -0.6870   79.9200 C.3   155  LYS155      0.1561
     12  C         15.9190   -0.8100   80.7410 C.2   155  LYS155      0.2260
     13  O         15.9750   -1.1380   81.9290 O.2   155  LYS155     -0.2867
     14  CB        17.5550    0.7680   79.7120 C.3   155  LYS155      0.0271
     15  CG        18.8800    0.9690   79.0770 C.3   155  LYS155      0.0035
     16  CD        19.1760    2.4340   78.8880 C.3   155  LYS155      0.0206
     17  CE        20.2260    2.5580   77.8070 C.3   155  LYS155      0.1093
     18  NZ        20.8720    3.8830   77.8270 N.3   155  LYS155     -0.1314
     19  N         24.2190    7.8210   84.0820 N.3   173  LYS173     -0.1231
     20  CA        25.0880    7.8600   82.9010 C.3   173  LYS173      0.1693
     21  C         24.5150    7.0640   81.6910 C.2   173  LYS173      0.2592
     22  O         24.9800    7.2300   80.5670 O.2   173  LYS173     -0.2718
     23  CB        26.5120    7.4070   83.2530 C.3   173  LYS173      0.0285
     24  CG        27.1850    8.1680   84.3810 C.3   173  LYS173      0.0035
     25  CD        28.4180    7.4070   84.8590 C.3   173  LYS173      0.0206
     26  CE        28.5380    7.3320   86.3980 C.3   173  LYS173      0.1093
     27  NZ        29.6900    6.5420   86.9370 N.3   173  LYS173     -0.1314
     28  N         23.5050    6.2210   81.9280 N.am  174  TYR174     -0.1962
     29  CA        22.7480    5.5530   80.8520 C.3   174  TYR174      0.1771
     30  C         21.4370    6.2730   80.5570 C.2   174  TYR174      0.2620
     31  O         20.6300    5.8000   79.7610 O.2   174  TYR174     -0.2715
     32  CB        22.4390    4.1180   81.2440 C.3   174  TYR174      0.0574
     33  CG        23.5490    3.1630   80.9730 C.ar  174  TYR174     -0.0198
     34  CD1       24.8680    3.5580   81.1010 C.ar  174  TYR174     -0.0009
     35  CD2       23.2860    1.8530   80.6120 C.ar  174  TYR174     -0.0009
     36  CE1       25.9070    2.6890   80.8530 C.ar  174  TYR174      0.0417
     37  CE2       24.3220    0.9620   80.3580 C.ar  174  TYR174      0.0417
     38  CZ        25.6370    1.3890   80.4800 C.ar  174  TYR174      0.1957
     39  OH        26.6940    0.5300   80.2460 O.3   174  TYR174     -0.2866
     40  N         21.2220    7.4120   81.2150 N.am  175  GLY175     -0.1954
     41  CA        20.0380    8.2450   80.9790 C.3   175  GLY175      0.1869
     42  C         18.7910    7.7720   81.7060 C.2   175  GLY175      0.2309
     43  O         17.6710    7.9710   81.2310 O.2   175  GLY175     -0.2863
     44  N         15.7860    8.4520   78.9350 N.3   186  LYS186     -0.1231
     45  CA        16.1460    9.2220   77.7530 C.3   186  LYS186      0.1693
     46  C         16.4170    8.2760   76.5970 C.2   186  LYS186      0.2592
     47  O         16.9890    7.2220   76.7760 O.2   186  LYS186     -0.2718
     48  CB        17.3760   10.0930   78.0650 C.3   186  LYS186      0.0285
     49  CG        17.2130   10.9630   79.3190 C.3   186  LYS186      0.0035
     50  CD        18.4290   11.8230   79.5770 C.3   186  LYS186      0.0206
     51  CE        18.3100   12.5890   80.8860 C.3   186  LYS186      0.1093
     52  NZ        19.6310   12.8270   81.5640 N.3   186  LYS186     -0.1314
     53  N         15.9900    8.6680   75.4090 N.am  187  ALA187     -0.1966
     54  CA        16.1750    7.8930   74.1700 C.3   187  ALA187      0.1728
     55  C         16.6650    8.7730   73.0150 C.2   187  ALA187      0.2616
     56  O         16.1790    9.8980   72.8450 O.2   187  ALA187     -0.2715
     57  CB        14.8820    7.2330   73.7650 C.3   187  ALA187      0.0334
     58  N         17.6330    8.2550   72.2470 N.am  188  ASN188     -0.1972
     59  CA        18.0680    8.8490   70.9970 C.3   188  ASN188      0.1688
     60  C         17.3270    8.2350   69.7950 C.2   188  ASN188      0.2292
     61  O         16.6860    7.1760   69.8680 O.2   188  ASN188     -0.2864
     62  CB        19.5440    8.5970   70.7890 C.3   188  ASN188      0.1181
     63  CG        20.4340    9.4380   71.6650 C.2   188  ASN188      0.2629
     64  OD1       20.1660   10.5970   71.9810 O.2   188  ASN188     -0.2716
     65  ND2       21.5270    8.8460   72.0560 N.am  188  ASN188     -0.0877
     66  N         22.1410    7.7640   66.2610 N.3   192  ALA192     -0.1245
     67  CA        23.0950    7.8220   67.3580 C.3   192  ALA192      0.1562
     68  C         23.9180    6.5040   67.5610 C.2   192  ALA192      0.2260
     69  O         24.9160    6.5020   68.2640 O.2   192  ALA192     -0.2867
     70  CB        22.3750    8.2160   68.6290 C.3   192  ALA192      0.0290
     71  N         20.5830   14.2890   69.6740 N.3   663  TYR663     -0.1227
     72  CA        21.3530   13.5750   70.6650 C.3   663  TYR663      0.1736
     73  C         22.0090   14.5190   71.6760 C.2   663  TYR663      0.2595
     74  O         22.3350   14.0970   72.7900 O.2   663  TYR663     -0.2718
     75  CB        22.3920   12.7070   69.9800 C.3   663  TYR663      0.0548
     76  CG        23.6270   13.4400   69.4900 C.ar  663  TYR663     -0.0200
     77  CD1       23.8710   13.5980   68.1200 C.ar  663  TYR663     -0.0009
     78  CD2       24.5760   13.9510   70.4040 C.ar  663  TYR663     -0.0009
     79  CE1       25.0110   14.2480   67.6750 C.ar  663  TYR663      0.0417
     80  CE2       25.7200   14.5900   69.9740 C.ar  663  TYR663      0.0417
     81  CZ        25.9220   14.7310   68.6200 C.ar  663  TYR663      0.1957
     82  OH        27.0280   15.3850   68.2080 O.3   663  TYR663     -0.2866
     83  N         22.2120   15.7870   71.3060 N.am  664  LYS664     -0.1980
     84  CA        22.8110   16.7440   72.2400 C.3   664  LYS664      0.1596
     85  C         21.8950   17.0110   73.4110 C.2   664  LYS664      0.2287
     86  O         22.3360   17.5840   74.3950 O.2   664  LYS664     -0.2864
     87  CB        23.1710   18.0830   71.5820 C.3   664  LYS664      0.0298
     88  CG        24.2190   18.0270   70.4680 C.3   664  LYS664      0.0038
     89  CD        25.5900   17.5920   70.9580 C.3   664  LYS664      0.0206
     90  CE        26.2990   18.6870   71.7300 C.3   664  LYS664      0.1093
     91  NZ        26.6510   19.8020   70.8040 N.3   664  LYS664     -0.1314
     92  N         20.6000   14.4700   74.9560 N.3   666  ASN666     -0.1225
     93  CA        20.6040   13.2310   75.7080 C.3   666  ASN666      0.1785
     94  C         21.9180   12.8250   76.3940 C.2   666  ASN666      0.2597
     95  O         22.0910   11.6690   76.8400 O.2   666  ASN666     -0.2718
     96  CB        20.0610   12.1330   74.8180 C.3   666  ASN666      0.1169
     97  CG        18.5550   12.1720   74.7320 C.2   666  ASN666      0.2627
     98  OD1       17.9040   12.5610   75.6970 O.2   666  ASN666     -0.2716
     99  ND2       17.9870   11.7650   73.5880 N.am  666  ASN666     -0.0877
    100  N         22.8310   13.7850   76.4870 N.am  667  ILE667     -0.1966
    101  CA        24.1340   13.5870   77.1110 C.3   667  ILE667      0.1712
    102  C         23.9640   13.7140   78.6160 C.2   667  ILE667      0.2458
    103  O         23.2910   14.6180   79.0710 O.2   667  ILE667     -0.2730
    104  CB        25.1430   14.6170   76.5320 C.3   667  ILE667      0.0289
    105  CG1       25.3660   14.3040   75.0540 C.3   667  ILE667      0.0022
    106  CG2       26.4790   14.6180   77.2630 C.3   667  ILE667      0.0023
    107  CD1       25.0340   15.4550   74.1340 C.3   667  ILE667      0.0001
    108  N         24.5320   12.7790   79.3960 N.am  668  PRO668     -0.2727
    109  CA        24.4720   12.9520   80.8610 C.3   668  PRO668      0.1402
    110  C         25.4490   14.0080   81.2590 C.2   668  PRO668      0.2269
    111  O         26.5210   14.0970   80.6560 O.2   668  PRO668     -0.2865
    112  CB        24.9690   11.6210   81.4040 C.3   668  PRO668      0.0296
    113  CG        25.7820   11.0410   80.2930 C.3   668  PRO668      0.0237
    114  CD        25.1680   11.5100   79.0050 C.3   668  PRO668      0.0939
    115  N         28.1900   15.6930   83.8510 N.3   670  TYR670     -0.1241
    116  CA        29.2550   15.0480   84.5990 C.3   670  TYR670      0.1605
    117  C         29.7810   15.9340   85.7170 C.2   670  TYR670      0.2264
    118  O         30.4640   16.9140   85.4500 O.2   670  TYR670     -0.2867
    119  CB        30.3790   14.6580   83.6270 C.3   670  TYR670      0.0534
    120  CG        30.1150   13.3620   82.8790 C.ar  670  TYR670     -0.0201
    121  CD1       29.5210   13.3520   81.5990 C.ar  670  TYR670     -0.0009
    122  CD2       30.4610   12.1320   83.4590 C.ar  670  TYR670     -0.0009
    123  CE1       29.2810   12.1420   80.9280 C.ar  670  TYR670      0.0417
    124  CE2       30.2280   10.9260   82.8030 C.ar  670  TYR670      0.0417
    125  CZ        29.6440   10.9270   81.5490 C.ar  670  TYR670      0.1957
    126  OH        29.4460    9.7060   80.9620 O.3   670  TYR670     -0.2866
@<TRIPOS>BOND
     1    66    67    1
     2    67    68    1
     3    67    70    1
     4    68    69    2
     5    79    77   ar
     6    79    81   ar
     7    77    76   ar
     8    82    81    1
     9    81    80   ar
    10    76    75    1
    11    76    78   ar
    12    71    72    1
    13    60    61    2
    14    60    59    1
    15    80    78   ar
    16    75    72    1
    17    88    89    1
    18    88    87    1
    19    72    73    1
    20    62    59    1
    21    62    63    1
    22    91    90    1
    23    89    90    1
    24    59    58    1
    25    83    73   am
    26    83    84    1
    27    87    84    1
    28    63    64    2
    29    63    65   am
    30    73    74    2
    31    84    85    1
    32    58    55   am
    33     8     7   ar
    34     1     2    1
    35    56    55    2
    36    55    54    1
    37     5     2    1
    38     5     6    1
    39    85    86    2
    40     7     6    1
    41     7     9   ar
    42    99    97   am
    43     2     3    1
    44    57    54    1
    45   107   105    1
    46    54    53    1
    47    97    96    1
    48    97    98    2
    49     3     4    2
    50    96    93    1
    51    92    93    1
    52   105   104    1
    53    53    46   am
    54    93    94    1
    55    94   100   am
    56    94    95    2
    57   100   101    1
    58   104   101    1
    59   104   106    1
    60    46    47    2
    61    46    45    1
    62   101   102    1
    63    45    48    1
    64    45    44    1
    65    17    18    1
    66    17    16    1
    67    48    49    1
    68   102   103    2
    69   102   108   am
    70    10    11    1
    71    16    15    1
    72   114   108    1
    73   114   113    1
    74    15    14    1
    75    49    50    1
    76   108   109    1
    77    50    51    1
    78    14    11    1
    79    31    30    2
    80    11    12    1
    81    39    38    1
    82   113   112    1
    83    37    38   ar
    84    37    35   ar
    85    38    36   ar
    86    30    29    1
    87    30    40   am
    88    22    21    2
    89    35    33   ar
    90   111   110    2
    91    12    13    2
    92    29    32    1
    93    29    28    1
    94    36    34   ar
    95   109   110    1
    96   109   112    1
    97    51    52    1
    98   123   125   ar
    99   123   121   ar
   100   126   125    1
   101    33    34   ar
   102    33    32    1
   103    41    40    1
   104    41    42    1
   105    43    42    2
   106   125   124   ar
   107   121   120   ar
   108    21    28   am
   109    21    20    1
   110   124   122   ar
   111   120   122   ar
   112   120   119    1
   113    20    23    1
   114    20    19    1
   115    23    24    1
   116   119   116    1
   117   115   116    1
   118    24    25    1
   119   116   117    1
   120    25    26    1
   121   118   117    2
   122    26    27    1
