@<TRIPOS>MOLECULE
tmp/3wjmC00.pdb
 110 108 0 0 0
SMALL
GASTEIGER

@<TRIPOS>ATOM
      1  N         34.1660   17.9960   12.3280 N.3   151  GLU151     -0.1245
      2  CA        35.4340   18.2850   11.6790 C.3   151  GLU151      0.1567
      3  C         35.2760   19.3480   10.5940 C.2   151  GLU151      0.2260
      4  O         35.9950   20.3420   10.5640 O.2   151  GLU151     -0.2867
      5  CB        35.9960   16.9950   11.0790 C.3   151  GLU151      0.0388
      6  CG        37.2640   17.1530   10.2450 C.3   151  GLU151      0.1160
      7  CD        37.9320   15.8180    9.8970 C.2   151  GLU151      0.3649
      8  OE1       37.3070   14.7650    9.9820 O.co2 151  GLU151     -0.2457
      9  OE2       39.1110   15.7780    9.5320 O.co2 151  GLU151     -0.2457
     10  N         36.3960   23.4020   10.3100 N.3   155  LYS155     -0.1245
     11  CA        37.2140   23.8930    9.1920 C.3   155  LYS155      0.1561
     12  C         36.5790   25.1230    8.5420 C.2   155  LYS155      0.2260
     13  O         37.2650   26.1130    8.2860 O.2   155  LYS155     -0.2867
     14  CB        37.4380   22.8020    8.1350 C.3   155  LYS155      0.0271
     15  CG        38.6600   21.9390    8.3640 C.3   155  LYS155      0.0035
     16  CD        38.6710   20.7630    7.4010 C.3   155  LYS155      0.0206
     17  CE        39.7150   19.7380    7.8210 C.3   155  LYS155      0.1093
     18  NZ        39.6290   18.5400    6.9410 N.3   155  LYS155     -0.1314
     19  N         46.0320   20.9670    1.7300 N.3   173  ASN173     -0.1225
     20  CA        46.4130   19.7560    2.4340 C.3   173  ASN173      0.1785
     21  C         45.4330   19.4080    3.5460 C.2   173  ASN173      0.2597
     22  O         45.3960   18.2750    4.0040 O.2   173  ASN173     -0.2718
     23  CB        47.8730   19.8140    2.9000 C.3   173  ASN173      0.1169
     24  CG        48.8620   19.6580    1.7410 C.2   173  ASN173      0.2627
     25  OD1       48.5940   18.9640    0.7590 O.2   173  ASN173     -0.2716
     26  ND2       50.0170   20.2910    1.8620 N.am  173  ASN173     -0.0877
     27  N         44.6150   20.3790    3.9420 N.am  174  TYR174     -0.1962
     28  CA        43.4680   20.1250    4.8200 C.3   174  TYR174      0.1771
     29  C         42.1560   19.8980    4.0920 C.2   174  TYR174      0.2620
     30  O         41.1050   19.8250    4.7360 O.2   174  TYR174     -0.2715
     31  CB        43.3180   21.2290    5.8480 C.3   174  TYR174      0.0574
     32  CG        44.4160   21.1110    6.8450 C.ar  174  TYR174     -0.0198
     33  CD1       45.4080   22.0930    6.9580 C.ar  174  TYR174     -0.0009
     34  CD2       44.5050   19.9730    7.6490 C.ar  174  TYR174     -0.0009
     35  CE1       46.4400   21.9530    7.8770 C.ar  174  TYR174      0.0417
     36  CE2       45.5300   19.8170    8.5640 C.ar  174  TYR174      0.0417
     37  CZ        46.4920   20.8020    8.6740 C.ar  174  TYR174      0.1957
     38  OH        47.4930   20.6100    9.5890 O.3   174  TYR174     -0.2866
     39  N         42.2250   19.7540    2.7640 N.am  175  GLY175     -0.1954
     40  CA        41.0520   19.4730    1.9330 C.3   175  GLY175      0.1869
     41  C         40.1870   20.6990    1.7050 C.2   175  GLY175      0.2309
     42  O         38.9810   20.5900    1.5420 O.2   175  GLY175     -0.2863
     43  N         36.4680   19.2960    1.3670 N.3   186  TYR186     -0.1227
     44  CA        36.2890   17.8530    1.1680 C.3   186  TYR186      0.1736
     45  C         35.9010   17.1360    2.4770 C.2   186  TYR186      0.2595
     46  O         36.5040   17.3620    3.4930 O.2   186  TYR186     -0.2718
     47  CB        37.5590   17.2430    0.5430 C.3   186  TYR186      0.0548
     48  CG        37.6400   17.5040   -0.9170 C.ar  186  TYR186     -0.0200
     49  CD1       38.2740   18.6400   -1.4080 C.ar  186  TYR186     -0.0009
     50  CD2       37.0280   16.6360   -1.8300 C.ar  186  TYR186     -0.0009
     51  CE1       38.3140   18.9030   -2.7780 C.ar  186  TYR186      0.0417
     52  CE2       37.0630   16.8740   -3.2020 C.ar  186  TYR186      0.0417
     53  CZ        37.7050   18.0150   -3.6770 C.ar  186  TYR186      0.1957
     54  OH        37.7430   18.2610   -5.0390 O.3   186  TYR186     -0.2866
     55  N         34.8850   16.2910    2.4580 N.am  187  ALA187     -0.1966
     56  CA        34.4440   15.6300    3.6980 C.3   187  ALA187      0.1728
     57  C         34.3860   14.1290    3.5900 C.2   187  ALA187      0.2616
     58  O         33.8390   13.5790    2.6410 O.2   187  ALA187     -0.2715
     59  CB        33.1120   16.1790    4.2020 C.3   187  ALA187      0.0334
     60  N         35.0060   13.4860    4.5740 N.am  188  ASN188     -0.1972
     61  CA        35.0210   12.0440    4.7110 C.3   188  ASN188      0.1688
     62  C         33.7750   11.6140    5.4510 C.2   188  ASN188      0.2292
     63  O         33.1690   12.4230    6.1430 O.2   188  ASN188     -0.2864
     64  CB        36.2420   11.6560    5.5050 C.3   188  ASN188      0.1181
     65  CG        37.4250   11.3370    4.6270 C.2   188  ASN188      0.2629
     66  OD1       37.2700   10.7590    3.5640 O.2   188  ASN188     -0.2716
     67  ND2       38.6150   11.6990    5.0680 N.am  188  ASN188     -0.0877
     68  N         36.7560    7.2000    1.1120 N.3   662  TYR662     -0.1227
     69  CA        37.8850    8.0780    1.5280 C.3   662  TYR662      0.1736
     70  C         38.9930    8.1930    0.4770 C.2   662  TYR662      0.2595
     71  O         39.7080    9.1840    0.4580 O.2   662  TYR662     -0.2718
     72  CB        38.4930    7.7090    2.8890 C.3   662  TYR662      0.0548
     73  CG        39.4010    6.5150    2.8240 C.ar  662  TYR662     -0.0200
     74  CD1       38.9220    5.2420    3.1260 C.ar  662  TYR662     -0.0009
     75  CD2       40.7280    6.6480    2.4090 C.ar  662  TYR662     -0.0009
     76  CE1       39.7480    4.1450    3.0350 C.ar  662  TYR662      0.0417
     77  CE2       41.5730    5.5610    2.3230 C.ar  662  TYR662      0.0417
     78  CZ        41.0830    4.3170    2.6350 C.ar  662  TYR662      0.1957
     79  OH        41.9090    3.2220    2.5420 O.3   662  TYR662     -0.2866
     80  N         39.1270    7.1970   -0.3970 N.am  663  LEU663     -0.1980
     81  CA        40.0980    7.2740   -1.4890 C.3   663  LEU663      0.1596
     82  C         39.8830    8.4740   -2.4270 C.2   663  LEU663      0.2287
     83  O         40.7430    8.7770   -3.2450 O.2   663  LEU663     -0.2864
     84  CB        40.1280    5.9670   -2.2750 C.3   663  LEU663      0.0297
     85  CG        40.7540    4.7720   -1.5480 C.3   663  LEU663      0.0022
     86  CD1       40.0730    3.4790   -2.0040 C.3   663  LEU663      0.0001
     87  CD2       42.2850    4.7200   -1.6960 C.3   663  LEU663      0.0001
     88  N         39.0640   11.6170   -1.1620 N.3   665  ASN665     -0.1225
     89  CA        39.3040   12.8010   -0.3780 C.3   665  ASN665      0.1785
     90  C         40.7510   12.8870    0.0650 C.2   665  ASN665      0.2597
     91  O         41.0670   13.5790    1.0320 O.2   665  ASN665     -0.2718
     92  CB        38.3840   12.8230    0.8370 C.3   665  ASN665      0.1169
     93  CG        36.9130   13.0240    0.4710 C.2   665  ASN665      0.2627
     94  OD1       36.5830   13.5260   -0.6180 O.2   665  ASN665     -0.2716
     95  ND2       36.0110   12.6130    1.3830 N.am  665  ASN665     -0.0877
     96  N         41.6350   12.1850   -0.6400 N.am  666  ILE666     -0.1966
     97  CA        43.0670   12.1810   -0.3210 C.3   666  ILE666      0.1712
     98  C         43.7360   13.2810   -1.1430 C.2   666  ILE666      0.2458
     99  O         43.5750   13.3140   -2.3680 O.2   666  ILE666     -0.2730
    100  CB        43.7170   10.7910   -0.5860 C.3   666  ILE666      0.0289
    101  CG1       42.8360    9.6740   -0.0020 C.3   666  ILE666      0.0022
    102  CG2       45.1190   10.7110   -0.0030 C.3   666  ILE666      0.0023
    103  CD1       43.4040    8.2700   -0.0730 C.3   666  ILE666      0.0001
    104  N         44.4620   14.2000   -0.4750 N.am  667  PRO667     -0.2727
    105  CA        45.1290   15.3100   -1.1620 C.3   667  PRO667      0.1402
    106  C         45.9610   14.9340   -2.4020 C.2   667  PRO667      0.2269
    107  O         45.4120   14.8970   -3.5090 O.2   667  PRO667     -0.2865
    108  CB        45.9710   15.9360   -0.0520 C.3   667  PRO667      0.0296
    109  CG        45.0970   15.7610    1.1430 C.3   667  PRO667      0.0237
    110  CD        44.5320   14.3740    0.9870 C.3   667  PRO667      0.0939
@<TRIPOS>BOND
     1    54    53    1
     2    53    52   ar
     3    53    51   ar
     4   107   106    2
     5    83    82    2
     6    52    50   ar
     7    51    49   ar
     8    82    81    1
     9   106   105    1
    10    99    98    2
    11    84    85    1
    12    84    81    1
    13    86    85    1
    14    50    48   ar
    15    87    85    1
    16    81    80    1
    17    49    48   ar
    18   105   104    1
    19   105   108    1
    20    88    89    1
    21    98   104   am
    22    98    97    1
    23    48    47    1
    24    96    97    1
    25    96    90   am
    26    94    93    2
    27   100    97    1
    28   100   102    1
    29   100   101    1
    30   104   110    1
    31    80    70   am
    32    89    90    1
    33    89    92    1
    34   103   101    1
    35   108   109    1
    36    90    91    2
    37    71    70    2
    38    93    92    1
    39    93    95   am
    40    70    69    1
    41    47    44    1
    42    25    24    2
    43   110   109    1
    44    68    69    1
    45    44    43    1
    46    44    45    1
    47    69    72    1
    48    42    41    2
    49    41    40    1
    50    19    20    1
    51    24    26   am
    52    24    23    1
    53    40    39    1
    54    77    75   ar
    55    77    78   ar
    56    75    73   ar
    57    20    23    1
    58    20    21    1
    59    55    45   am
    60    55    56    1
    61    45    46    2
    62    79    78    1
    63    78    76   ar
    64    58    57    2
    65    39    29   am
    66    73    72    1
    67    73    74   ar
    68    76    74   ar
    69    21    27   am
    70    21    22    2
    71    66    65    2
    72    57    56    1
    73    57    60   am
    74    56    59    1
    75    27    28    1
    76    29    30    2
    77    29    28    1
    78    60    61    1
    79    65    67   am
    80    65    64    1
    81    61    62    1
    82    61    64    1
    83    28    31    1
    84    62    63    2
    85    31    32    1
    86    32    33   ar
    87    32    34   ar
    88    18    17    1
    89    33    35   ar
    90    16    17    1
    91    16    15    1
    92    34    36   ar
    93    35    37   ar
    94    14    15    1
    95    14    11    1
    96    13    12    2
    97    12    11    1
    98    36    37   ar
    99    37    38    1
   100    11    10    1
   101     9     7   ar
   102     7     8   ar
   103     7     6    1
   104     6     5    1
   105     4     3    2
   106     3     2    1
   107     5     2    1
   108     2     1    1
