@<TRIPOS>MOLECULE
tmp/3wjmD01.pdb
 102 100 0 0 0
SMALL
GASTEIGER

@<TRIPOS>ATOM
      1  N         13.6280  -16.2960   71.6990 N.3   151  GLU151     -0.1245
      2  CA        12.3130  -16.7000   72.2100 C.3   151  GLU151      0.1567
      3  C         12.3730  -17.0640   73.6830 C.2   151  GLU151      0.2260
      4  O         11.6280  -16.5070   74.5110 O.2   151  GLU151     -0.2867
      5  CB        11.7440  -17.8810   71.4210 C.3   151  GLU151      0.0388
      6  CG        10.2140  -17.9430   71.4640 C.3   151  GLU151      0.1160
      7  CD         9.6100  -19.1300   70.7260 C.2   151  GLU151      0.3649
      8  OE1        8.6360  -19.7030   71.1260 O.co2 151  GLU151     -0.2457
      9  OE2       10.0770  -19.5610   69.7140 O.co2 151  GLU151     -0.2457
     10  N         11.2300  -15.2300   77.2510 N.3   155  LYS155     -0.1245
     11  CA        10.3300  -15.8820   78.1810 C.3   155  LYS155      0.1561
     12  C         10.8770  -15.7990   79.5970 C.2   155  LYS155      0.2260
     13  O         10.1270  -15.5370   80.5450 O.2   155  LYS155     -0.2867
     14  CB        10.0910  -17.3420   77.7800 C.3   155  LYS155      0.0271
     15  CG         8.9990  -17.5180   76.7470 C.3   155  LYS155      0.0035
     16  CD         8.7720  -18.9600   76.3360 C.3   155  LYS155      0.0206
     17  CE         7.4250  -19.0700   75.6140 C.3   155  LYS155      0.1093
     18  NZ         7.1430  -20.4060   74.9990 N.3   155  LYS155     -0.1314
     19  N          1.6040  -24.2990   79.4580 N.3   173  ASN173     -0.1225
     20  CA         1.2480  -24.2310   78.0410 C.3   173  ASN173      0.1785
     21  C          2.2550  -23.4350   77.2050 C.2   173  ASN173      0.2597
     22  O          2.2400  -23.5060   75.9830 O.2   173  ASN173     -0.2718
     23  CB        -0.1350  -23.6060   77.8680 C.3   173  ASN173      0.1169
     24  CG        -1.2710  -24.5780   78.1180 C.2   173  ASN173      0.2627
     25  OD1       -1.1220  -25.8000   78.0180 O.2   173  ASN173     -0.2716
     26  ND2       -2.4350  -24.0240   78.4230 N.am  173  ASN173     -0.0877
     27  N          3.1070  -22.6650   77.8650 N.am  174  TYR174     -0.1962
     28  CA         4.1080  -21.8800   77.1830 C.3   174  TYR174      0.1771
     29  C          5.4990  -22.4540   77.4160 C.2   174  TYR174      0.2620
     30  O          6.5070  -21.8010   77.1610 O.2   174  TYR174     -0.2715
     31  CB         4.0220  -20.4380   77.6490 C.3   174  TYR174      0.0574
     32  CG         2.8680  -19.7020   77.0170 C.ar  174  TYR174     -0.0198
     33  CD1        2.0630  -18.8250   77.7620 C.ar  174  TYR174     -0.0009
     34  CD2        2.5710  -19.8920   75.6550 C.ar  174  TYR174     -0.0009
     35  CE1        1.0010  -18.1550   77.1590 C.ar  174  TYR174      0.0417
     36  CE2        1.5090  -19.2390   75.0450 C.ar  174  TYR174      0.0417
     37  CZ         0.7300  -18.3770   75.7940 C.ar  174  TYR174      0.1957
     38  OH        -0.2900  -17.7170   75.1490 O.3   174  TYR174     -0.2866
     39  N          5.5290  -23.6930   77.8950 N.am  175  GLY175     -0.1954
     40  CA         6.7640  -24.4020   78.1290 C.3   175  GLY175      0.1869
     41  C          7.5080  -23.8820   79.3250 C.2   175  GLY175      0.2309
     42  O          8.7210  -23.9350   79.3650 O.2   175  GLY175     -0.2863
     43  N         11.3640  -24.9900   78.3010 N.3   186  TYR186     -0.1227
     44  CA        11.5100  -25.8640   77.1540 C.3   186  TYR186      0.1736
     45  C         11.8650  -25.0070   75.9210 C.2   186  TYR186      0.2595
     46  O         11.2870  -23.9670   75.6950 O.2   186  TYR186     -0.2718
     47  CB        10.2030  -26.6920   76.9760 C.3   186  TYR186      0.0548
     48  CG        10.1020  -27.8070   77.9960 C.ar  186  TYR186     -0.0200
     49  CD1        9.8740  -27.5380   79.3520 C.ar  186  TYR186     -0.0009
     50  CD2       10.2890  -29.1280   77.6240 C.ar  186  TYR186     -0.0009
     51  CE1        9.8360  -28.5540   80.2840 C.ar  186  TYR186      0.0417
     52  CE2       10.2500  -30.1450   78.5520 C.ar  186  TYR186      0.0417
     53  CZ        10.0300  -29.8440   79.8690 C.ar  186  TYR186      0.1957
     54  OH        10.0070  -30.8670   80.7740 O.3   186  TYR186     -0.2866
     55  N         12.8390  -25.4520   75.1470 N.am  187  ALA187     -0.1966
     56  CA        13.3340  -24.6980   74.0030 C.3   187  ALA187      0.1728
     57  C         13.3570  -25.5620   72.7710 C.2   187  ALA187      0.2616
     58  O         13.8650  -26.6830   72.7900 O.2   187  ALA187     -0.2715
     59  CB        14.7380  -24.1580   74.2660 C.3   187  ALA187      0.0334
     60  N         12.7850  -25.0230   71.6950 N.am  188  ASN188     -0.1972
     61  CA        12.9060  -25.6170   70.3750 C.3   188  ASN188      0.1688
     62  C         14.1700  -25.0990   69.6990 C.2   188  ASN188      0.2292
     63  O         14.6790  -24.0290   70.0210 O.2   188  ASN188     -0.2864
     64  CB        11.7070  -25.2170   69.5560 C.3   188  ASN188      0.1181
     65  CG        10.5120  -26.1250   69.7700 C.2   188  ASN188      0.2629
     66  OD1       10.6280  -27.3300   69.8760 O.2   188  ASN188     -0.2716
     67  ND2        9.3450  -25.5310   69.8100 N.am  188  ASN188     -0.0877
     68  N         11.2380  -31.2470   67.9800 N.3   662  TYR662     -0.1241
     69  CA        10.0800  -30.4960   68.4890 C.3   662  TYR662      0.1605
     70  C          9.0430  -31.3770   69.1970 C.2   662  TYR662      0.2264
     71  O          8.2800  -30.8930   70.0490 O.2   662  TYR662     -0.2867
     72  CB         9.4070  -29.6410   67.4080 C.3   662  TYR662      0.0534
     73  CG         8.5390  -30.3900   66.4170 C.ar  662  TYR662     -0.0201
     74  CD1        8.9820  -30.6230   65.1180 C.ar  662  TYR662     -0.0009
     75  CD2        7.2550  -30.8530   66.7750 C.ar  662  TYR662     -0.0009
     76  CE1        8.1980  -31.3000   64.2050 C.ar  662  TYR662      0.0417
     77  CE2        6.4540  -31.5350   65.8750 C.ar  662  TYR662      0.0417
     78  CZ         6.9260  -31.7530   64.5930 C.ar  662  TYR662      0.1957
     79  OH         6.1250  -32.4160   63.6740 O.3   662  TYR662     -0.2866
     80  N          8.6170  -31.1190   73.0140 N.3   665  ASN665     -0.1225
     81  CA         8.3390  -29.8610   73.7020 C.3   665  ASN665      0.1785
     82  C          6.9190  -29.3640   73.5180 C.2   665  ASN665      0.2597
     83  O          6.6670  -28.1430   73.5790 O.2   665  ASN665     -0.2718
     84  CB         9.2750  -28.7760   73.1850 C.3   665  ASN665      0.1169
     85  CG        10.7190  -29.1330   73.3470 C.2   665  ASN665      0.2627
     86  OD1       11.0980  -29.8100   74.3050 O.2   665  ASN665     -0.2716
     87  ND2       11.5520  -28.6590   72.4220 N.am  665  ASN665     -0.0877
     88  N          6.0230  -30.3110   73.2280 N.am  666  ILE666     -0.1966
     89  CA         4.6150  -30.0470   72.9820 C.3   666  ILE666      0.1712
     90  C          3.9390  -30.2710   74.3110 C.2   666  ILE666      0.2458
     91  O          4.1400  -31.3330   74.9160 O.2   666  ILE666     -0.2730
     92  CB         4.0260  -31.0000   71.9310 C.3   666  ILE666      0.0289
     93  CG1        4.7790  -30.8680   70.6130 C.3   666  ILE666      0.0022
     94  CG2        2.5420  -30.7460   71.7160 C.3   666  ILE666      0.0023
     95  CD1        4.4580  -31.9750   69.6240 C.3   666  ILE666      0.0001
     96  N          3.1800  -29.2500   74.7940 N.am  667  PRO667     -0.2727
     97  CA         2.4690  -29.3430   76.0580 C.3   667  PRO667      0.1402
     98  C          1.8200  -30.6840   76.2850 C.2   667  PRO667      0.2269
     99  O          2.4830  -31.5640   76.8090 O.2   667  PRO667     -0.2865
    100  CB         1.4720  -28.1990   75.9680 C.3   667  PRO667      0.0296
    101  CG         2.2980  -27.1300   75.3230 C.3   667  PRO667      0.0237
    102  CD         3.1090  -27.8620   74.2720 C.3   667  PRO667      0.0939
@<TRIPOS>BOND
     1    79    78    1
     2    76    78   ar
     3    76    74   ar
     4    78    77   ar
     5    74    73   ar
     6    77    75   ar
     7    73    75   ar
     8    73    72    1
     9    72    69    1
    10    68    69    1
    11    69    70    1
    12    70    71    2
    13    64    65    1
    14    64    61    1
    15    95    93    1
    16    62    63    2
    17    62    61    1
    18     9     7   ar
    19    65    67   am
    20    65    66    2
    21    61    60    1
    22    93    92    1
    23     7     8   ar
    24     7     6    1
    25     5     6    1
    26     5     2    1
    27    60    57   am
    28     1     2    1
    29    94    92    1
    30    92    89    1
    31     2     3    1
    32    87    85   am
    33    57    58    2
    34    57    56    1
    35    89    88    1
    36    89    90    1
    37    80    81    1
    38    84    85    1
    39    84    81    1
    40    88    82   am
    41    85    86    2
    42    82    83    2
    43    82    81    1
    44     3     4    2
    45    56    59    1
    46    56    55    1
    47   102    96    1
    48   102   101    1
    49    90    96   am
    50    90    91    2
    51    96    97    1
    52    18    17    1
    53    36    34   ar
    54    36    37   ar
    55    55    45   am
    56    38    37    1
    57   101   100    1
    58    17    16    1
    59    34    32   ar
    60    46    45    2
    61    37    35   ar
    62    45    44    1
    63   100    97    1
    64    22    21    2
    65    97    98    1
    66    98    99    2
    67    16    15    1
    68    15    14    1
    69    47    44    1
    70    47    48    1
    71    32    31    1
    72    32    33   ar
    73    44    43    1
    74    35    33   ar
    75    30    29    2
    76    28    29    1
    77    28    31    1
    78    28    27    1
    79    21    27   am
    80    21    20    1
    81    10    11    1
    82    29    39   am
    83    50    48   ar
    84    50    52   ar
    85    14    11    1
    86    23    20    1
    87    23    24    1
    88    39    40    1
    89    48    49   ar
    90    25    24    2
    91    20    19    1
    92    24    26   am
    93    40    41    1
    94    11    12    1
    95    52    53   ar
    96    41    42    2
    97    49    51   ar
    98    12    13    2
    99    53    51   ar
   100    53    54    1
