@<TRIPOS>MOLECULE
tmp/3wjmF01.pdb
 114 110 0 0 0
SMALL
GASTEIGER

@<TRIPOS>ATOM
      1  N         25.3670  -37.2250   10.7600 N.3   151  GLU151     -0.1245
      2  CA        24.5580  -37.5450    9.5860 C.3   151  GLU151      0.1567
      3  C         25.1940  -38.6670    8.7310 C.2   151  GLU151      0.2260
      4  O         24.5810  -39.7330    8.5410 O.2   151  GLU151     -0.2867
      5  CB        24.2630  -36.2940    8.7470 C.3   151  GLU151      0.0388
      6  CG        23.1670  -36.5090    7.6940 C.3   151  GLU151      0.1160
      7  CD        22.9310  -35.2970    6.7870 C.2   151  GLU151      0.3649
      8  OE1       23.4280  -34.1940    7.1100 O.co2 151  GLU151     -0.2457
      9  OE2       22.2390  -35.4370    5.7530 O.co2 151  GLU151     -0.2457
     10  N         24.1460  -42.7770    8.2230 N.3   155  LYS155     -0.1245
     11  CA        23.9980  -43.3740    6.9070 C.3   155  LYS155      0.1561
     12  C         24.9000  -44.6010    6.7700 C.2   155  LYS155      0.2260
     13  O         24.4270  -45.6820    6.3690 O.2   155  LYS155     -0.2867
     14  CB        24.2830  -42.3440    5.8190 C.3   155  LYS155      0.0271
     15  CG        23.1890  -41.2930    5.6810 C.3   155  LYS155      0.0035
     16  CD        23.4740  -40.4270    4.4860 C.3   155  LYS155      0.0206
     17  CE        22.7700  -39.1020    4.6080 C.3   155  LYS155      0.1093
     18  NZ        23.6620  -38.0470    4.0360 N.3   155  LYS155     -0.1314
     19  N         19.6250  -40.3690   -3.6540 N.3   173  LYS173     -0.1231
     20  CA        19.0130  -39.1730   -3.0490 C.3   173  LYS173      0.1693
     21  C         19.6230  -38.7610   -1.6970 C.2   173  LYS173      0.2592
     22  O         19.5210  -37.5950   -1.3030 O.2   173  LYS173     -0.2718
     23  CB        17.4910  -39.3430   -2.8950 C.3   173  LYS173      0.0285
     24  CG        16.7230  -39.5490   -4.1900 C.3   173  LYS173      0.0035
     25  CD        17.0770  -38.5530   -5.2820 C.3   173  LYS173      0.0206
     26  CE        16.1390  -38.7150   -6.4720 C.3   173  LYS173      0.1093
     27  NZ        16.8120  -38.4250   -7.7760 N.3   173  LYS173     -0.1314
     28  N         20.2310  -39.7210   -1.0000 N.am  174  TYR174     -0.1962
     29  CA        20.8770  -39.4720    0.2920 C.3   174  TYR174      0.1771
     30  C         22.3950  -39.2880    0.1900 C.2   174  TYR174      0.2620
     31  O         23.0860  -39.2210    1.1910 O.2   174  TYR174     -0.2715
     32  CB        20.5130  -40.5690    1.3000 C.3   174  TYR174      0.0574
     33  CG        19.1420  -40.3590    1.9030 C.ar  174  TYR174     -0.0198
     34  CD1       17.9930  -40.8820    1.2990 C.ar  174  TYR174     -0.0009
     35  CD2       18.9930  -39.6150    3.0670 C.ar  174  TYR174     -0.0009
     36  CE1       16.7380  -40.6730    1.8510 C.ar  174  TYR174      0.0417
     37  CE2       17.7550  -39.3990    3.6360 C.ar  174  TYR174      0.0417
     38  CZ        16.6340  -39.9250    3.0290 C.ar  174  TYR174      0.1957
     39  OH        15.4120  -39.6960    3.6250 O.3   174  TYR174     -0.2866
     40  N         22.8970  -39.1710   -1.0280 N.am  175  GLY175     -0.1954
     41  CA        24.3080  -39.0570   -1.2470 C.3   175  GLY175      0.1869
     42  C         25.0540  -40.3640   -1.0380 C.2   175  GLY175      0.2309
     43  O         26.2630  -40.3480   -0.7830 O.2   175  GLY175     -0.2863
     44  N         28.5610  -39.0240    0.2180 N.3   186  LYS186     -0.1231
     45  CA        28.7840  -37.6020    0.2300 C.3   186  LYS186      0.1693
     46  C         28.4680  -36.9630    1.6040 C.2   186  LYS186      0.2592
     47  O         27.5960  -37.4150    2.3360 O.2   186  LYS186     -0.2718
     48  CB        27.9880  -36.9750   -0.8900 C.3   186  LYS186      0.0285
     49  CG        28.5650  -37.3380   -2.2310 C.3   186  LYS186      0.0035
     50  CD        27.4730  -37.5280   -3.2530 C.3   186  LYS186      0.0206
     51  CE        28.0750  -37.9380   -4.5790 C.3   186  LYS186      0.1093
     52  NZ        27.3090  -37.2060   -5.6280 N.3   186  LYS186     -0.1314
     53  N         29.1950  -35.9080    1.9370 N.am  187  ALA187     -0.1966
     54  CA        29.0980  -35.2800    3.2410 C.3   187  ALA187      0.1728
     55  C         29.2450  -33.7790    3.0970 C.2   187  ALA187      0.2616
     56  O         30.1020  -33.2770    2.3770 O.2   187  ALA187     -0.2715
     57  CB        30.1600  -35.8190    4.1810 C.3   187  ALA187      0.0334
     58  N         28.3790  -33.0690    3.8010 N.am  188  ASN188     -0.1972
     59  CA        28.3610  -31.6270    3.8150 C.3   188  ASN188      0.1688
     60  C         29.0620  -31.2020    5.0660 C.2   188  ASN188      0.2292
     61  O         29.1750  -31.9750    6.0140 O.2   188  ASN188     -0.2864
     62  CB        26.9160  -31.1610    3.9120 C.3   188  ASN188      0.1181
     63  CG        26.2200  -31.0500    2.5700 C.2   188  ASN188      0.2629
     64  OD1       26.8330  -30.7910    1.5270 O.2   188  ASN188     -0.2716
     65  ND2       24.9070  -31.2340    2.5970 N.am  188  ASN188     -0.0877
     66  N         25.5480  -26.4380    6.3410 N.3   192  ALA192     -0.1245
     67  CA        24.4730  -26.8720    5.4480 C.3   192  ALA192      0.1562
     68  C         23.2280  -27.3640    6.2390 C.2   192  ALA192      0.2260
     69  O         22.1260  -27.5430    5.6840 O.2   192  ALA192     -0.2867
     70  CB        24.9960  -27.9570    4.5320 C.3   192  ALA192      0.0290
     71  N         28.2680  -26.9920   -0.4400 N.3   663  TYR663     -0.1227
     72  CA        27.0750  -27.8250   -0.4150 C.3   663  TYR663      0.1736
     73  C         26.5890  -28.0560   -1.8330 C.2   663  TYR663      0.2595
     74  O         25.9210  -29.0450   -2.1390 O.2   663  TYR663     -0.2718
     75  CB        25.9940  -27.2070    0.4670 C.3   663  TYR663      0.0548
     76  CG        25.2460  -26.0270   -0.1360 C.ar  663  TYR663     -0.0200
     77  CD1       25.4650  -24.7130    0.3230 C.ar  663  TYR663     -0.0009
     78  CD2       24.2740  -26.2300   -1.1320 C.ar  663  TYR663     -0.0009
     79  CE1       24.7700  -23.6390   -0.2110 C.ar  663  TYR663      0.0417
     80  CE2       23.5870  -25.1680   -1.6890 C.ar  663  TYR663      0.0417
     81  CZ        23.8360  -23.8790   -1.2330 C.ar  663  TYR663      0.1957
     82  OH        23.1220  -22.8550   -1.8100 O.3   663  TYR663     -0.2866
     83  N         26.9550  -27.1340   -2.7090 N.am  664  LYS664     -0.1980
     84  CA        26.6120  -27.2190   -4.0990 C.3   664  LYS664      0.1596
     85  C         27.2010  -28.4600   -4.8040 C.2   664  LYS664      0.2287
     86  O         26.7930  -28.8170   -5.9190 O.2   664  LYS664     -0.2864
     87  CB        27.0350  -25.9300   -4.7790 C.3   664  LYS664      0.0298
     88  CG        25.8560  -25.1440   -5.2990 C.3   664  LYS664      0.0038
     89  CD        25.2850  -24.1230   -4.3390 C.3   664  LYS664      0.0206
     90  CE        24.0390  -23.5380   -5.0260 C.3   664  LYS664      0.1093
     91  NZ        23.1250  -22.6800   -4.1960 N.3   664  LYS664     -0.1314
     92  N         27.2500  -31.4330   -3.2990 N.3   666  ASN666     -0.1225
     93  CA        26.6150  -32.5960   -2.7390 C.3   666  ASN666      0.1785
     94  C         25.1290  -32.7140   -3.0650 C.2   666  ASN666      0.2597
     95  O         24.4080  -33.5310   -2.4830 O.2   666  ASN666     -0.2718
     96  CB        26.8820  -32.6290   -1.2430 C.3   666  ASN666      0.1169
     97  CG        28.3120  -33.0010   -0.9270 C.2   666  ASN666      0.2627
     98  OD1       28.9310  -33.7770   -1.6560 O.2   666  ASN666     -0.2716
     99  ND2       28.8440  -32.4570    0.1620 N.am  666  ASN666     -0.0877
    100  N         24.6880  -31.9150   -4.0320 N.am  667  ILE667     -0.1966
    101  CA        23.3100  -31.9630   -4.4880 C.3   667  ILE667      0.1712
    102  C         23.1280  -33.1720   -5.4140 C.2   667  ILE667      0.2458
    103  O         23.9320  -33.4110   -6.3150 O.2   667  ILE667     -0.2730
    104  CB        22.8920  -30.6310   -5.1550 C.3   667  ILE667      0.0289
    105  CG1       22.6850  -29.5430   -4.0920 C.3   667  ILE667      0.0022
    106  CG2       21.6330  -30.8090   -6.0030 C.3   667  ILE667      0.0023
    107  CD1       22.9390  -28.1330   -4.5860 C.3   667  ILE667      0.0001
    108  N         22.0820  -33.9640   -5.1870 N.am  668  PRO668     -0.2727
    109  CA        21.9570  -35.0290   -6.1640 C.3   668  PRO668      0.1402
    110  C         21.1890  -34.5900   -7.4260 C.2   668  PRO668      0.2269
    111  O         20.0940  -34.0670   -7.3260 O.2   668  PRO668     -0.2865
    112  CB        21.1950  -36.1210   -5.3920 C.3   668  PRO668      0.0296
    113  CG        20.5460  -35.4320   -4.2330 C.3   668  PRO668      0.0237
    114  CD        21.0340  -34.0120   -4.1550 C.3   668  PRO668      0.0939
@<TRIPOS>BOND
     1    27    26    1
     2   110   111    2
     3   110   109    1
     4    26    25    1
     5   103   102    2
     6   109   112    1
     7   109   108    1
     8   106   104    1
     9    86    85    2
    10    52    51    1
    11   102   108   am
    12   102   101    1
    13   112   113    1
    14    88    87    1
    15    88    89    1
    16    25    24    1
    17   108   114    1
    18   104   101    1
    19   104   105    1
    20    90    89    1
    21    90    91    1
    22    85    84    1
    23    87    84    1
    24   107   105    1
    25    51    50    1
    26   101   100    1
    27   113   114    1
    28    24    23    1
    29    84    83    1
    30   100    94   am
    31    19    20    1
    32    92    93    1
    33    50    49    1
    34    94    93    1
    35    94    95    2
    36    20    23    1
    37    20    21    1
    38    93    96    1
    39    83    73   am
    40    49    48    1
    41    74    73    2
    42    73    72    1
    43    82    81    1
    44    21    22    2
    45    21    28   am
    46    80    81   ar
    47    80    78   ar
    48    98    97    2
    49    41    42    1
    50    41    40    1
    51    96    97    1
    52    81    79   ar
    53    78    76   ar
    54    42    43    2
    55    40    30   am
    56    28    29    1
    57    97    99   am
    58    48    45    1
    59    71    72    1
    60    72    75    1
    61    79    77   ar
    62    76    77   ar
    63    76    75    1
    64    30    29    1
    65    30    31    2
    66    44    45    1
    67    45    46    1
    68    29    32    1
    69    34    36   ar
    70    34    33   ar
    71    32    33    1
    72    64    63    2
    73    46    53   am
    74    46    47    2
    75    36    38   ar
    76    33    35   ar
    77    53    54    1
    78    56    55    2
    79    63    65   am
    80    63    62    1
    81    38    39    1
    82    38    37   ar
    83    35    37   ar
    84    55    54    1
    85    55    58   am
    86    54    57    1
    87    58    59    1
    88    59    62    1
    89    59    60    1
    90    18    17    1
    91    16    17    1
    92    16    15    1
    93    70    67    1
    94    60    61    2
    95    67    68    1
    96    67    66    1
    97    15    14    1
    98    69    68    2
    99     9     7   ar
   100    14    11    1
   101    13    12    2
   102    12    11    1
   103     7     8   ar
   104     7     6    1
   105    11    10    1
   106     6     5    1
   107     4     3    2
   108     3     2    1
   109     5     2    1
   110     2     1    1
