@<TRIPOS>MOLECULE
tmp/3wjnA00.pdb
 208 194 0 0 0
SMALL
GASTEIGER

@<TRIPOS>ATOM
      1  N         29.6470  -13.2120   -0.0940 N.3    76  ILE76      -0.1231
      2  CA        29.4690  -12.5890    1.2100 C.3    76  ILE76       0.1692
      3  C         29.0620  -11.1410    0.9940 C.2    76  ILE76       0.2592
      4  O         28.0780  -10.6740    1.5670 O.2    76  ILE76      -0.2718
      5  CB        30.7630  -12.6630    2.0270 C.3    76  ILE76       0.0266
      6  CG1       31.0130  -14.1160    2.4260 C.3    76  ILE76       0.0019
      7  CG2       30.6780  -11.7410    3.2470 C.3    76  ILE76       0.0020
      8  CD1       32.3200  -14.3550    3.1100 C.3    76  ILE76       0.0001
      9  N         29.8120  -10.4420    0.1510 N.am   77  HIS77      -0.1976
     10  CA        29.5150   -9.0610   -0.1710 C.3    77  HIS77       0.1656
     11  C         28.1080   -8.9610   -0.7500 C.2    77  HIS77       0.2291
     12  O         27.3220   -8.0830   -0.3690 O.2    77  HIS77      -0.2864
     13  CB        30.5080   -8.5310   -1.1990 C.3    77  HIS77       0.0771
     14  CG        30.1390   -7.1870   -1.7370 C.ar   77  HIS77       0.0820
     15  ND1       30.0330   -6.0720   -0.9340 N.ar   77  HIS77      -0.2267
     16  CD2       29.7860   -6.7930   -2.9820 C.ar   77  HIS77       0.1154
     17  CE1       29.6250   -5.0480   -1.6610 C.ar   77  HIS77       0.1986
     18  NE2       29.4680   -5.4590   -2.9070 N.ar   77  HIS77      -0.2212
     19  N         25.5590  -10.9500   -0.3350 N.3    79  ALA79      -0.1231
     20  CA        24.6090  -11.1520    0.7490 C.3    79  ALA79       0.1694
     21  C         24.3950   -9.8730    1.5730 C.2    79  ALA79       0.2593
     22  O         23.2520   -9.4710    1.8390 O.2    79  ALA79      -0.2718
     23  CB        25.0860  -12.2800    1.6530 C.3    79  ALA79       0.0304
     24  N         25.4800   -9.2230    1.9770 N.am   80  THR80      -0.1939
     25  CA        25.3190   -8.0070    2.7620 C.3    80  THR80       0.2028
     26  C         24.4510   -6.9860    2.0140 C.2    80  THR80       0.2642
     27  O         23.6300   -6.2950    2.6270 O.2    80  THR80      -0.2714
     28  CB        26.6880   -7.3670    3.1420 C.3    80  THR80       0.1808
     29  OG1       27.3590   -6.8940    1.9630 O.3    80  THR80      -0.2208
     30  CG2       27.5710   -8.3980    3.8690 C.3    80  THR80       0.0379
     31  N         24.6020   -6.9100    0.6920 N.am   81  LEU81      -0.1977
     32  CA        23.8090   -5.9630   -0.0960 C.3    81  LEU81       0.1596
     33  C         22.3240   -6.3100   -0.0450 C.2    81  LEU81       0.2287
     34  O         21.4760   -5.4400    0.1650 O.2    81  LEU81      -0.2864
     35  CB        24.2550   -5.9610   -1.5600 C.3    81  LEU81       0.0297
     36  CG        25.6820   -5.5450   -1.8930 C.3    81  LEU81       0.0022
     37  CD1       25.8630   -5.6860   -3.4040 C.3    81  LEU81       0.0001
     38  CD2       25.9680   -4.1200   -1.4130 C.3    81  LEU81       0.0001
     39  N         20.6960   -8.1320    2.1700 N.3    83  HIS83      -0.1226
     40  CA        20.1930   -7.8470    3.4830 C.3    83  HIS83       0.1752
     41  C         20.0970   -6.3560    3.7090 C.2    83  HIS83       0.2596
     42  O         19.1060   -5.8740    4.2490 O.2    83  HIS83      -0.2718
     43  CB        21.0640   -8.5190    4.5380 C.3    83  HIS83       0.0759
     44  CG        20.7810   -9.9800    4.6860 C.ar   83  HIS83       0.0818
     45  ND1       21.2030  -10.7180    5.7710 N.ar   83  HIS83      -0.2268
     46  CD2       20.0750  -10.8300    3.9030 C.ar   83  HIS83       0.1154
     47  CE1       20.7630  -11.9580    5.6520 C.ar   83  HIS83       0.1986
     48  NE2       20.0770  -12.0540    4.5290 N.ar   83  HIS83      -0.2212
     49  N         21.1050   -5.6190    3.2610 N.am   84  ASP84      -0.1960
     50  CA        21.1000   -4.1780    3.4510 C.3    84  ASP84       0.1840
     51  C         19.9550   -3.4680    2.7130 C.2    84  ASP84       0.2622
     52  O         19.3330   -2.5560    3.2590 O.2    84  ASP84      -0.2715
     53  CB        22.4410   -3.5840    3.0270 C.3    84  ASP84       0.1450
     54  CG        22.5630   -2.1250    3.3980 C.2    84  ASP84       0.3671
     55  OD1       22.5110   -1.8130    4.6070 O.co2  84  ASP84      -0.2456
     56  OD2       22.7020   -1.2860    2.4850 O.co2  84  ASP84      -0.2456
     57  N         19.6710   -3.8670    1.4780 N.am   85  ASP85      -0.1971
     58  CA        18.5860   -3.2310    0.7460 C.3    85  ASP85       0.1709
     59  C         17.2630   -3.4470    1.4450 C.2    85  ASP85       0.2293
     60  O         16.3770   -2.6110    1.3580 O.2    85  ASP85      -0.2864
     61  CB        18.4850   -3.7680   -0.6750 C.3    85  ASP85       0.1436
     62  CG        19.5870   -3.2510   -1.5620 C.2    85  ASP85       0.3671
     63  OD1       19.9360   -2.0560   -1.4100 O.co2  85  ASP85      -0.2456
     64  OD2       20.0910   -4.0310   -2.4100 O.co2  85  ASP85      -0.2456
     65  N         16.9890   -3.6930    4.6650 N.3    87  VAL87      -0.1231
     66  CA        17.0140   -2.8580    5.8540 C.3    87  VAL87       0.1692
     67  C         16.8860   -1.3680    5.5090 C.2    87  VAL87       0.2592
     68  O         16.1300   -0.6460    6.1620 O.2    87  VAL87      -0.2718
     69  CB        18.3070   -3.0900    6.6650 C.3    87  VAL87       0.0266
     70  CG1       18.3950   -2.0900    7.8170 C.3    87  VAL87       0.0020
     71  CG2       18.3250   -4.5070    7.2010 C.3    87  VAL87       0.0020
     72  N         17.6270   -0.9130    4.4950 N.am   88  ASP88      -0.1974
     73  CA        17.5930    0.4910    4.0580 C.3    88  ASP88       0.1709
     74  C         16.3280    0.7610    3.2430 C.2    88  ASP88       0.2293
     75  O         16.1070    1.8830    2.7840 O.2    88  ASP88      -0.2864
     76  CB        18.7950    0.8320    3.1620 C.3    88  ASP88       0.1436
     77  CG        20.1130    0.9160    3.9190 C.2    88  ASP88       0.3671
     78  OD1       21.1540    1.0480    3.2310 O.co2  88  ASP88      -0.2456
     79  OD2       20.1220    0.8590    5.1720 O.co2  88  ASP88      -0.2456
     80  N         15.6330    0.0680    0.2720 N.3    90  SER90      -0.1217
     81  CA        16.0080    0.5830   -1.0400 C.3    90  SER90       0.1889
     82  C         15.2240   -0.1260   -2.1350 C.2    90  SER90       0.2288
     83  O         15.0300   -1.3380   -2.0810 O.2    90  SER90      -0.2866
     84  CB        17.4980    0.3430   -1.3040 C.3    90  SER90       0.2089
     85  OG        18.2920    0.6230   -0.1670 O.3    90  SER90      -0.2183
     86  N         19.0330   -0.0240   -7.0540 N.3    93  ARG93      -0.1245
     87  CA        20.4480   -0.3160   -6.9250 C.3    93  ARG93       0.1563
     88  C         21.0680   -0.3050   -8.3150 C.2    93  ARG93       0.2260
     89  O         21.1900   -1.3300   -8.9840 O.2    93  ARG93      -0.2867
     90  CB        20.6850   -1.6550   -6.2350 C.3    93  ARG93       0.0307
     91  CG        22.1440   -2.0770   -6.2410 C.3    93  ARG93       0.0489
     92  CD        22.3550   -3.2920   -5.3760 C.3    93  ARG93       0.2205
     93  NE        22.3050   -2.9230   -3.9690 N.pl3  93  ARG93      -0.0865
     94  CZ        23.2710   -2.2620   -3.3420 C.cat  93  ARG93       0.5346
     95  NH1       24.3660   -1.9060   -4.0000 N.pl3  93  ARG93       0.1354
     96  NH2       23.1420   -1.9570   -2.0550 N.pl3  93  ARG93       0.1354
     97  N         19.7250  -14.4150    0.4950 N.3   112  GLY112     -0.1210
     98  CA        20.9930  -13.8900    0.9770 C.3   112  GLY112      0.1956
     99  C         21.6080  -14.8540    1.9780 C.2   112  GLY112      0.2611
    100  O         22.8300  -15.0280    2.0300 O.2   112  GLY112     -0.2717
    101  N         20.7530  -15.4800    2.7840 N.am  113  ASP113     -0.1973
    102  CA        21.2080  -16.4520    3.7720 C.3   113  ASP113      0.1709
    103  C         21.7380  -17.6880    3.0470 C.2   113  ASP113      0.2293
    104  O         22.6760  -18.3440    3.5030 O.2   113  ASP113     -0.2864
    105  CB        20.0580  -16.8820    4.6850 C.3   113  ASP113      0.1436
    106  CG        19.6460  -15.8010    5.6670 C.2   113  ASP113      0.3671
    107  OD1       20.4070  -14.8220    5.8640 O.co2 113  ASP113     -0.2456
    108  OD2       18.5590  -15.9460    6.2620 O.co2 113  ASP113     -0.2456
    109  N         25.2810  -16.7180    1.6960 N.3   116  TYR116     -0.1241
    110  CA        26.3050  -16.6370    2.7140 C.3   116  TYR116      0.1605
    111  C         26.6710  -18.0240    3.1980 C.2   116  TYR116      0.2264
    112  O         27.8530  -18.3440    3.2920 O.2   116  TYR116     -0.2867
    113  CB        25.8380  -15.7980    3.8940 C.3   116  TYR116      0.0534
    114  CG        26.8210  -15.8180    5.0380 C.ar  116  TYR116     -0.0201
    115  CD1       28.1020  -15.2900    4.8860 C.ar  116  TYR116     -0.0009
    116  CD2       26.4680  -16.3420    6.2790 C.ar  116  TYR116     -0.0009
    117  CE1       29.0110  -15.2750    5.9430 C.ar  116  TYR116      0.0417
    118  CE2       27.3670  -16.3330    7.3480 C.ar  116  TYR116      0.0417
    119  CZ        28.6370  -15.7920    7.1730 C.ar  116  TYR116      0.1957
    120  OH        29.5130  -15.7370    8.2370 O.3   116  TYR116     -0.2866
    121  N         33.1220  -11.2290    9.1030 N.3   139  VAL139     -0.1245
    122  CA        31.7060  -11.1090    8.8400 C.3   139  VAL139      0.1561
    123  C         30.9310  -10.7910   10.1170 C.2   139  VAL139      0.2260
    124  O         29.9560  -10.0360   10.0940 O.2   139  VAL139     -0.2867
    125  CB        31.1920  -12.3980    8.1600 C.3   139  VAL139      0.0252
    126  CG1       29.6880  -12.3020    7.9040 C.3   139  VAL139      0.0019
    127  CG2       31.9480  -12.6110    6.8400 C.3   139  VAL139      0.0019
    128  N         31.3620   -7.1360   10.7170 N.3   142  ILE142     -0.1231
    129  CA        30.5130   -6.3270    9.8650 C.3   142  ILE142      0.1692
    130  C         29.1000   -6.2810   10.4350 C.2   142  ILE142      0.2591
    131  O         28.4980   -5.2060   10.5270 O.2   142  ILE142     -0.2718
    132  CB        30.4730   -6.8930    8.4330 C.3   142  ILE142      0.0266
    133  CG1       31.8800   -6.8500    7.8300 C.3   142  ILE142      0.0019
    134  CG2       29.4810   -6.1080    7.5770 C.3   142  ILE142      0.0020
    135  CD1       31.9990   -7.5330    6.4780 C.3   142  ILE142      0.0001
    136  N         28.5950   -7.4490   10.8340 N.am  143  ALA143     -0.1980
    137  CA        27.2470   -7.5890   11.3820 C.3   143  ALA143      0.1597
    138  C         27.0340   -6.8530   12.6900 C.2   143  ALA143      0.2287
    139  O         26.0480   -6.1370   12.8470 O.2   143  ALA143     -0.2864
    140  CB        26.8940   -9.0700   11.5700 C.3   143  ALA143      0.0319
    141  N         26.5020   -3.3530   11.9580 N.3   146  GLU146     -0.1245
    142  CA        25.2270   -2.9220   11.4100 C.3   146  GLU146      0.1567
    143  C         24.1510   -2.8600   12.4900 C.2   146  GLU146      0.2260
    144  O         23.2770   -1.9860   12.4520 O.2   146  GLU146     -0.2867
    145  CB        24.7820   -3.8550   10.2790 C.3   146  GLU146      0.0388
    146  CG        25.7030   -3.8590    9.0690 C.3   146  GLU146      0.1160
    147  CD        25.7890   -2.5010    8.3640 C.2   146  GLU146      0.3649
    148  OE1       24.7220   -1.9450    8.0160 O.co2 146  GLU146     -0.2457
    149  OE2       26.9190   -1.9950    8.1510 O.co2 146  GLU146     -0.2457
    150  N         24.9030    0.6210   14.3150 N.3   149  GLN149     -0.1245
    151  CA        24.3850    1.8270   13.6770 C.3   149  GLN149      0.1566
    152  C         22.9130    1.6960   13.3420 C.2   149  GLN149      0.2260
    153  O         22.4450    2.1990   12.3260 O.2   149  GLN149     -0.2867
    154  CB        25.2020    2.1680   12.4160 C.3   149  GLN149      0.0367
    155  CG        25.2190    1.1050   11.3120 C.3   149  GLN149      0.0905
    156  CD        26.5990    0.9850   10.6450 C.2   149  GLN149      0.2608
    157  OE1       27.5810    0.6080   11.2940 O.2   149  GLN149     -0.2717
    158  NE2       26.6770    1.3150    9.3550 N.am  149  GLN149     -0.0878
    159  N         31.9840   -1.7450    8.2770 N.3   164  LYS164     -0.1231
    160  CA        31.2000   -1.8150    7.0620 C.3   164  LYS164      0.1693
    161  C         31.9000   -2.1620    5.7510 C.2   164  LYS164      0.2592
    162  O         31.4190   -3.0120    5.0030 O.2   164  LYS164     -0.2718
    163  CB        30.4390   -0.5060    6.8950 C.3   164  LYS164      0.0285
    164  CG        29.2210   -0.6360    6.0210 C.3   164  LYS164      0.0035
    165  CD        28.4940    0.6890    5.8580 C.3   164  LYS164      0.0206
    166  CE        29.3070    1.6740    5.0370 C.3   164  LYS164      0.1093
    167  NZ        28.5420    2.9310    4.7910 N.3   164  LYS164     -0.1314
    168  N         33.0270   -1.5210    5.4690 N.am  165  THR165     -0.1953
    169  CA        33.7130   -1.7580    4.2040 C.3   165  THR165      0.1897
    170  C         35.1340   -2.3040    4.3000 C.2   165  THR165      0.2313
    171  O         35.4400   -3.3770    3.7720 O.2   165  THR165     -0.2863
    172  CB        33.7510   -0.4460    3.3580 C.3   165  THR165      0.1794
    173  OG1       32.4140   -0.0460    3.0360 O.3   165  THR165     -0.2208
    174  CG2       34.5280   -0.6460    2.0670 C.3   165  THR165      0.0378
    175  N         33.7310    6.6570   -1.9490 N.3   205  ASP205     -0.1239
    176  CA        32.3150    6.3890   -2.1580 C.3   205  ASP205      0.1674
    177  C         31.4320    7.4530   -1.5030 C.2   205  ASP205      0.2266
    178  O         30.4140    7.8470   -2.0690 O.2   205  ASP205     -0.2867
    179  CB        31.9190    5.0200   -1.6080 C.3   205  ASP205      0.1410
    180  CG        30.5130    4.6160   -2.0370 C.2   205  ASP205      0.3668
    181  OD1       30.3200    4.3700   -3.2470 O.co2 205  ASP205     -0.2456
    182  OD2       29.5990    4.5590   -1.1800 O.co2 205  ASP205     -0.2456
    183  N         22.8450    9.7520    0.9300 N.3   217  ASP217     -0.1239
    184  CA        23.3670    9.8230    2.2930 C.3   217  ASP217      0.1674
    185  C         22.8160   11.0680    2.9780 C.2   217  ASP217      0.2266
    186  O         22.4750   11.0430    4.1610 O.2   217  ASP217     -0.2867
    187  CB        24.8960    9.9140    2.3080 C.3   217  ASP217      0.1410
    188  CG        25.5740    8.6100    1.9280 C.2   217  ASP217      0.3668
    189  OD1       24.9080    7.5570    1.8780 O.co2 217  ASP217     -0.2456
    190  OD2       26.7990    8.6470    1.6930 O.co2 217  ASP217     -0.2456
    191  N         19.1290   10.9430    4.3180 N.3   220  GLU220     -0.1245
    192  CA        18.9100   10.3180    5.6120 C.3   220  GLU220      0.1567
    193  C         19.8720   10.9160    6.6320 C.2   220  GLU220      0.2260
    194  O         20.1600   10.3110    7.6630 O.2   220  GLU220     -0.2867
    195  CB        19.1120    8.8090    5.5060 C.3   220  GLU220      0.0388
    196  CG        20.5230    8.3970    5.1170 C.3   220  GLU220      0.1160
    197  CD        20.6440    6.8980    4.8240 C.2   220  GLU220      0.3649
    198  OE1       20.1050    6.4430    3.7850 O.co2 220  GLU220     -0.2457
    199  OE2       21.2760    6.1760    5.6350 O.co2 220  GLU220     -0.2457
    200  N         23.1350   11.2430    7.2150 N.3   222  LYS222     -0.1245
    201  CA        24.1550   10.4260    7.8540 C.3   222  LYS222      0.1561
    202  C         25.4920   11.1660    7.8370 C.2   222  LYS222      0.2260
    203  O         25.8520   11.8140    6.8490 O.2   222  LYS222     -0.2867
    204  CB        24.2710    9.0830    7.1500 C.3   222  LYS222      0.0271
    205  CG        24.5920    9.1820    5.6910 C.3   222  LYS222      0.0035
    206  CD        24.7910    7.7980    5.1210 C.3   222  LYS222      0.0206
    207  CE        25.8710    7.0520    5.8910 C.3   222  LYS222      0.1093
    208  NZ        26.0500    5.6580    5.3900 N.3   222  LYS222     -0.1314
@<TRIPOS>BOND
     1    89    88    2
     2    88    87    1
     3    86    87    1
     4    87    90    1
     5    91    90    1
     6    91    92    1
     7    92    93    1
     8    95    94    1
     9    93    94    2
    10    37    36    1
    11    94    96    1
    12   181   180   ar
    13    16    18   ar
    14    16    14   ar
    15    18    17   ar
    16    64    62   ar
    17   176   175    1
    18   176   179    1
    19   176   177    1
    20    82    83    2
    21    82    81    1
    22   178   177    2
    23   180   179    1
    24   180   182   ar
    25    36    35    1
    26    36    38    1
    27    14    13    1
    28    14    15   ar
    29    17    15   ar
    30    62    63   ar
    31    62    61    1
    32    35    32    1
    33    84    81    1
    34    84    85    1
    35    13    10    1
    36    81    80    1
    37    11    12    2
    38    11    10    1
    39    61    58    1
    40    19    20    1
    41    10     9    1
    42    32    33    1
    43    32    31    1
    44     1     2    1
    45    33    34    2
    46     9     3   am
    47    97    98    1
    48    31    26   am
    49    58    59    1
    50    58    57    1
    51    20    21    1
    52    20    23    1
    53   183   184    1
    54    98    99    1
    55     3     2    1
    56     3     4    2
    57     2     5    1
    58    60    59    2
    59    57    51   am
    60    21    22    2
    61    21    24   am
    62   190   188   ar
    63   109   110    1
    64   189   188   ar
    65   188   187    1
    66    29    28    1
    67    24    25    1
    68    99   100    2
    69    99   101   am
    70    26    27    2
    71    26    25    1
    72     5     6    1
    73     5     7    1
    74   174   172    1
    75    39    40    1
    76   184   187    1
    77   184   185    1
    78     6     8    1
    79    56    54   ar
    80    51    52    2
    81    51    50    1
    82   110   111    1
    83   110   113    1
    84    25    28    1
    85    75    74    2
    86   101   102    1
    87   185   186    2
    88    53    54    1
    89    53    50    1
    90   173   172    1
    91   103   104    2
    92   103   102    1
    93    28    30    1
    94    76    77    1
    95    76    73    1
    96   111   112    2
    97    78    77   ar
    98    74    73    1
    99    49    50    1
   100    49    41   am
   101   172   169    1
   102    54    55   ar
   103    40    41    1
   104    40    43    1
   105    41    42    2
   106   102   105    1
   107   171   170    2
   108   198   197   ar
   109   113   114    1
   110    46    48   ar
   111    46    44   ar
   112    77    79   ar
   113    73    72    1
   114   169   170    1
   115   169   168    1
   116   191   192    1
   117    72    67   am
   118    48    47   ar
   119    43    44    1
   120    65    66    1
   121   105   106    1
   122    44    45   ar
   123   167   166    1
   124   197   196    1
   125   197   199   ar
   126   115   114   ar
   127   115   117   ar
   128   162   161    2
   129   166   165    1
   130   114   116   ar
   131   196   195    1
   132   206   205    1
   133   206   207    1
   134   208   207    1
   135   168   161   am
   136   195   192    1
   137    67    66    1
   138    67    68    2
   139   192   193    1
   140    47    45   ar
   141   106   107   ar
   142   106   108   ar
   143   205   204    1
   144   161   160    1
   145    66    69    1
   146   165   164    1
   147   117   119   ar
   148   164   163    1
   149   116   118   ar
   150   135   133    1
   151   193   194    2
   152    69    71    1
   153    69    70    1
   154   127   125    1
   155   203   202    2
   156   163   160    1
   157   160   159    1
   158   204   201    1
   159   119   118   ar
   160   119   120    1
   161   200   201    1
   162   134   132    1
   163   133   132    1
   164   202   201    1
   165   126   125    1
   166   148   147   ar
   167   149   147   ar
   168   125   122    1
   169   147   146    1
   170   132   129    1
   171   122   121    1
   172   122   123    1
   173   146   145    1
   174   158   156   am
   175   129   130    1
   176   129   128    1
   177   124   123    2
   178   145   142    1
   179   130   131    2
   180   130   136   am
   181   156   157    2
   182   156   155    1
   183   136   137    1
   184   155   154    1
   185   137   140    1
   186   137   138    1
   187   142   141    1
   188   142   143    1
   189   153   152    2
   190   154   151    1
   191   144   143    2
   192   138   139    2
   193   152   151    1
   194   151   150    1
