@<TRIPOS>MOLECULE
tmp/3wjoA01.pdb
 104 98 0 0 0
SMALL
GASTEIGER

@<TRIPOS>ATOM
      1  N         28.1970   -5.8190  -11.0160 N.3    44  GLY44      -0.1210
      2  CA        29.0730   -5.9740   -9.8720 C.3    44  GLY44       0.1956
      3  C         30.2960   -5.0720   -9.8800 C.2    44  GLY44       0.2611
      4  O         30.1770   -3.8480   -9.8240 O.2    44  GLY44      -0.2717
      5  N         31.4780   -5.6790   -9.9480 N.am   45  LYS45      -0.1979
      6  CA        32.7390   -4.9420   -9.9370 C.3    45  LYS45       0.1596
      7  C         33.8430   -5.9770   -9.8210 C.2    45  LYS45       0.2287
      8  O         34.8980   -5.8660  -10.4410 O.2    45  LYS45      -0.2864
      9  CB        32.7720   -3.9750   -8.7380 C.3    45  LYS45       0.0298
     10  CG        33.2420   -4.5270   -7.3570 C.3    45  LYS45       0.0038
     11  CD        32.6570   -5.8780   -6.9150 C.3    45  LYS45       0.0206
     12  CE        31.1560   -5.9910   -7.0970 C.3    45  LYS45       0.1093
     13  NZ        30.7240   -7.4020   -7.2560 N.3    45  LYS45      -0.1314
     14  N         36.7840   -7.5280   -4.8850 N.3    48  ARG48      -0.1245
     15  CA        37.1280   -8.4120   -3.7910 C.3    48  ARG48       0.1563
     16  C         37.6770   -9.7270   -4.3310 C.2    48  ARG48       0.2260
     17  O         38.6910  -10.2180   -3.8620 O.2    48  ARG48      -0.2867
     18  CB        35.9130   -8.6310   -2.8960 C.3    48  ARG48       0.0307
     19  CG        35.3980   -7.3330   -2.2780 C.3    48  ARG48       0.0489
     20  CD        34.1670   -7.5840   -1.4200 C.3    48  ARG48       0.2205
     21  NE        33.6550   -6.3560   -0.8220 N.pl3  48  ARG48      -0.0865
     22  CZ        33.2380   -5.3030   -1.5150 C.cat  48  ARG48       0.5346
     23  NH1       33.2750   -5.3300   -2.8320 N.pl3  48  ARG48       0.1354
     24  NH2       32.7780   -4.2280   -0.8910 N.pl3  48  ARG48       0.1354
     25  N         29.7780  -11.2700   -0.2260 N.3    77  HIS77      -0.1241
     26  CA        29.5050   -9.8740   -0.5150 C.3    77  HIS77       0.1621
     27  C         28.0710   -9.7810   -1.0340 C.2    77  HIS77       0.2264
     28  O         27.2820   -8.9490   -0.5660 O.2    77  HIS77      -0.2867
     29  CB        30.4830   -9.3610   -1.5710 C.3    77  HIS77       0.0745
     30  CG        30.1930   -7.9690   -2.0390 C.ar   77  HIS77       0.0817
     31  ND1       30.1460   -6.8900   -1.1830 N.ar   77  HIS77      -0.2268
     32  CD2       29.9250   -7.4840   -3.2750 C.ar   77  HIS77       0.1154
     33  CE1       29.8590   -5.8000   -1.8730 C.ar   77  HIS77       0.1986
     34  NE2       29.7200   -6.1340   -3.1430 N.ar   77  HIS77      -0.2212
     35  N         25.4560  -10.0010    1.7160 N.3    80  THR80      -0.1203
     36  CA        25.2700   -8.8130    2.5510 C.3    80  THR80       0.1994
     37  C         24.5520   -7.7220    1.7650 C.2    80  THR80       0.2617
     38  O         23.8950   -6.8750    2.3550 O.2    80  THR80      -0.2717
     39  CB        26.6100   -8.2340    3.1160 C.3    80  THR80       0.1784
     40  OG1       27.2360   -7.4010    2.1390 O.3    80  THR80      -0.2211
     41  CG2       27.5640   -9.3420    3.4770 C.3    80  THR80       0.0376
     42  N         24.6860   -7.7320    0.4400 N.am   81  LEU81      -0.1979
     43  CA        23.9970   -6.7370   -0.3800 C.3    81  LEU81       0.1596
     44  C         22.4940   -7.0330   -0.3200 C.2    81  LEU81       0.2287
     45  O         21.6660   -6.1360   -0.1190 O.2    81  LEU81      -0.2864
     46  CB        24.4720   -6.7810   -1.8440 C.3    81  LEU81       0.0297
     47  CG        25.8550   -6.2070   -2.2110 C.3    81  LEU81       0.0022
     48  CD1       25.9580   -6.1090   -3.7320 C.3    81  LEU81       0.0001
     49  CD2       26.0630   -4.8060   -1.5830 C.3    81  LEU81       0.0001
     50  N         19.5370   -0.6070   -6.9840 N.3    93  ARG93      -0.1245
     51  CA        20.9480   -0.8990   -6.7850 C.3    93  ARG93       0.1563
     52  C         21.6020   -0.6610   -8.1340 C.2    93  ARG93       0.2260
     53  O         21.8490   -1.5990   -8.8990 O.2    93  ARG93      -0.2867
     54  CB        21.1790   -2.3410   -6.3220 C.3    93  ARG93       0.0307
     55  CG        22.6600   -2.6700   -6.1260 C.3    93  ARG93       0.0489
     56  CD        22.8760   -3.8340   -5.1700 C.3    93  ARG93       0.2205
     57  NE        22.6860   -3.4380   -3.7770 N.pl3  93  ARG93      -0.0865
     58  CZ        23.5250   -2.6600   -3.1000 C.cat  93  ARG93       0.5346
     59  NH1       24.6150   -2.1920   -3.6870 N.pl3  93  ARG93       0.1354
     60  NH2       23.2800   -2.3530   -1.8360 N.pl3  93  ARG93       0.1354
     61  N         32.3250   -2.5500    8.3850 N.3   161  LYS161     -0.1231
     62  CA        31.4150   -2.5880    7.2540 C.3   161  LYS161      0.1693
     63  C         32.0410   -2.9380    5.9070 C.2   161  LYS161      0.2592
     64  O         31.4550   -3.6910    5.1250 O.2   161  LYS161     -0.2718
     65  CB        30.7040   -1.2300    7.1580 C.3   161  LYS161      0.0285
     66  CG        29.8190   -1.0080    5.9300 C.3   161  LYS161      0.0035
     67  CD        29.2510    0.4160    5.9330 C.3   161  LYS161      0.0206
     68  CE        28.5270    0.7470    4.6360 C.3   161  LYS161      0.1093
     69  NZ        29.4430    0.7390    3.4530 N.3   161  LYS161     -0.1314
     70  N         33.2350   -2.4180    5.6440 N.am  162  THR162     -0.1953
     71  CA        33.8680   -2.6270    4.3500 C.3   162  THR162      0.1897
     72  C         35.2660   -3.2130    4.3360 C.2   162  THR162      0.2313
     73  O         35.5260   -4.2200    3.6710 O.2   162  THR162     -0.2863
     74  CB        33.9410   -1.2840    3.5730 C.3   162  THR162      0.1794
     75  OG1       32.6560   -0.6520    3.5950 O.3   162  THR162     -0.2208
     76  CG2       34.3660   -1.5080    2.1310 C.3   162  THR162      0.0378
     77  N         38.7350    2.2800   -0.3530 N.3   198  PHE198     -0.1227
     78  CA        37.6210    1.9610   -1.2370 C.3   198  PHE198      0.1736
     79  C         36.3330    2.5920   -0.7120 C.2   198  PHE198      0.2595
     80  O         35.5670    3.1800   -1.4690 O.2   198  PHE198     -0.2718
     81  CB        37.4390    0.4530   -1.3220 C.3   198  PHE198      0.0547
     82  CG        36.3860    0.0210   -2.3040 C.ar  198  PHE198     -0.0202
     83  CD1       36.7130   -0.2040   -3.6410 C.ar  198  PHE198     -0.0042
     84  CD2       35.0740   -0.1920   -1.8890 C.ar  198  PHE198     -0.0042
     85  CE1       35.7490   -0.6430   -4.5520 C.ar  198  PHE198     -0.0003
     86  CE2       34.1000   -0.6310   -2.7870 C.ar  198  PHE198     -0.0003
     87  CZ        34.4380   -0.8590   -4.1210 C.ar  198  PHE198     -0.0000
     88  N         36.1140    2.4660    0.5940 N.am  199  GLN199     -0.1979
     89  CA        34.9240    3.0020    1.2330 C.3   199  GLN199      0.1601
     90  C         34.9230    4.5280    1.3100 C.2   199  GLN199      0.2287
     91  O         33.8910    5.1600    1.0650 O.2   199  GLN199     -0.2864
     92  CB        34.7700    2.4120    2.6400 C.3   199  GLN199      0.0394
     93  CG        33.5160    2.8740    3.3690 C.3   199  GLN199      0.0908
     94  CD        32.2370    2.5300    2.6240 C.2   199  GLN199      0.2608
     95  OE1       31.9410    1.3620    2.3820 O.2   199  GLN199     -0.2717
     96  NE2       31.4720    3.5530    2.2570 N.am  199  GLN199     -0.0878
     97  N         33.9710    5.7950   -1.9140 N.3   202  ASP202     -0.1239
     98  CA        32.5400    5.5550   -2.0480 C.3   202  ASP202      0.1674
     99  C         31.6880    6.6300   -1.3820 C.2   202  ASP202      0.2266
    100  O         30.7500    7.1400   -1.9860 O.2   202  ASP202     -0.2867
    101  CB        32.1780    4.1930   -1.4580 C.3   202  ASP202      0.1410
    102  CG        30.7740    3.7540   -1.8290 C.2   202  ASP202      0.3668
    103  OD1       30.5260    3.5620   -3.0390 O.co2 202  ASP202     -0.2456
    104  OD2       29.9240    3.6020   -0.9210 O.co2 202  ASP202     -0.2456
@<TRIPOS>BOND
     1     1     2    1
     2     8     7    2
     3     5     6    1
     4     5     3   am
     5     6     7    1
     6     6     9    1
     7     3     2    1
     8     3     4    2
     9    53    52    2
    10     9    10    1
    11    52    51    1
    12    10    11    1
    13    13    12    1
    14    12    11    1
    15    50    51    1
    16    51    54    1
    17    54    55    1
    18    55    56    1
    19    56    57    1
    20    14    15    1
    21    85    87   ar
    22    85    83   ar
    23    16    17    2
    24    16    15    1
    25    87    86   ar
    26    15    18    1
    27    57    58    2
    28    48    47    1
    29    59    58    1
    30    83    82   ar
    31    32    34   ar
    32    32    30   ar
    33    34    33   ar
    34    58    60    1
    35   103   102   ar
    36    18    19    1
    37    23    22    1
    38    86    84   ar
    39    82    84   ar
    40    82    81    1
    41    19    20    1
    42    47    46    1
    43    47    49    1
    44    98    97    1
    45    98   101    1
    46    98    99    1
    47    30    29    1
    48    30    31   ar
    49   100    99    2
    50    33    31   ar
    51    46    43    1
    52   102   101    1
    53   102   104   ar
    54    29    26    1
    55    22    24    1
    56    22    21    2
    57    80    79    2
    58    20    21    1
    59    81    78    1
    60    78    79    1
    61    78    77    1
    62    27    28    2
    63    27    26    1
    64    79    88   am
    65    26    25    1
    66    43    44    1
    67    43    42    1
    68    44    45    2
    69    42    37   am
    70    88    89    1
    71    91    90    2
    72    89    90    1
    73    89    92    1
    74    35    36    1
    75    37    38    2
    76    37    36    1
    77    76    74    1
    78    40    39    1
    79    96    94   am
    80    95    94    2
    81    36    39    1
    82    94    93    1
    83    92    93    1
    84    39    41    1
    85    69    68    1
    86    74    75    1
    87    74    71    1
    88    73    72    2
    89    72    71    1
    90    71    70    1
    91    68    67    1
    92    64    63    2
    93    70    63   am
    94    63    62    1
    95    66    67    1
    96    66    65    1
    97    65    62    1
    98    62    61    1
