@<TRIPOS>MOLECULE
tmp/3wjoA00.pdb
 109 99 0 0 0
SMALL
GASTEIGER

@<TRIPOS>ATOM
      1  N         25.4560  -10.0010    1.7160 N.3    80  THR80      -0.1203
      2  CA        25.2700   -8.8130    2.5510 C.3    80  THR80       0.1994
      3  C         24.5520   -7.7220    1.7650 C.2    80  THR80       0.2617
      4  O         23.8950   -6.8750    2.3550 O.2    80  THR80      -0.2717
      5  CB        26.6100   -8.2340    3.1160 C.3    80  THR80       0.1784
      6  OG1       27.2360   -7.4010    2.1390 O.3    80  THR80      -0.2211
      7  CG2       27.5640   -9.3420    3.4770 C.3    80  THR80       0.0376
      8  N         24.6860   -7.7320    0.4400 N.am   81  LEU81      -0.1979
      9  CA        23.9970   -6.7370   -0.3800 C.3    81  LEU81       0.1596
     10  C         22.4940   -7.0330   -0.3200 C.2    81  LEU81       0.2287
     11  O         21.6660   -6.1360   -0.1190 O.2    81  LEU81      -0.2864
     12  CB        24.4720   -6.7810   -1.8440 C.3    81  LEU81       0.0297
     13  CG        25.8550   -6.2070   -2.2110 C.3    81  LEU81       0.0022
     14  CD1       25.9580   -6.1090   -3.7320 C.3    81  LEU81       0.0001
     15  CD2       26.0630   -4.8060   -1.5830 C.3    81  LEU81       0.0001
     16  N         21.3130   -5.9840    3.0630 N.3    84  ASP84      -0.1239
     17  CA        21.3910   -4.5390    3.2640 C.3    84  ASP84       0.1674
     18  C         20.2340   -3.8270    2.5800 C.2    84  ASP84       0.2266
     19  O         19.6480   -2.9190    3.1470 O.2    84  ASP84      -0.2867
     20  CB        22.7050   -3.9790    2.7280 C.3    84  ASP84       0.1410
     21  CG        22.7920   -2.4670    2.8690 C.2    84  ASP84       0.3668
     22  OD1       22.8850   -1.9650    4.0160 O.co2  84  ASP84      -0.2456
     23  OD2       22.7590   -1.7750    1.8230 O.co2  84  ASP84      -0.2456
     24  N         17.8080   -1.4430    4.5390 N.3    88  ASP88      -0.1239
     25  CA        17.7470   -0.0380    4.1390 C.3    88  ASP88       0.1674
     26  C         16.5230    0.2640    3.2650 C.2    88  ASP88       0.2266
     27  O         16.3630    1.3780    2.7700 O.2    88  ASP88      -0.2867
     28  CB        19.0200    0.3600    3.3680 C.3    88  ASP88       0.1410
     29  CG        20.2980    0.1570    4.1770 C.2    88  ASP88       0.3668
     30  OD1       20.2280    0.1160    5.4280 O.co2  88  ASP88      -0.2456
     31  OD2       21.3800    0.0540    3.5530 O.co2  88  ASP88      -0.2456
     32  N         19.5370   -0.6070   -6.9840 N.3    93  ARG93      -0.1245
     33  CA        20.9480   -0.8990   -6.7850 C.3    93  ARG93       0.1563
     34  C         21.6020   -0.6610   -8.1340 C.2    93  ARG93       0.2260
     35  O         21.8490   -1.5990   -8.8990 O.2    93  ARG93      -0.2867
     36  CB        21.1790   -2.3410   -6.3220 C.3    93  ARG93       0.0307
     37  CG        22.6600   -2.6700   -6.1260 C.3    93  ARG93       0.0489
     38  CD        22.8760   -3.8340   -5.1700 C.3    93  ARG93       0.2205
     39  NE        22.6860   -3.4380   -3.7770 N.pl3  93  ARG93      -0.0865
     40  CZ        23.5250   -2.6600   -3.1000 C.cat  93  ARG93       0.5346
     41  NH1       24.6150   -2.1920   -3.6870 N.pl3  93  ARG93       0.1354
     42  NH2       23.2800   -2.3530   -1.8360 N.pl3  93  ARG93       0.1354
     43  N         26.6070   -3.9260   11.7750 N.3   146  GLU146     -0.1245
     44  CA        25.3330   -3.5160   11.2170 C.3   146  GLU146      0.1567
     45  C         24.2630   -3.4440   12.2830 C.2   146  GLU146      0.2260
     46  O         23.3410   -2.6410   12.1790 O.2   146  GLU146     -0.2867
     47  CB        24.9010   -4.4670   10.0990 C.3   146  GLU146      0.0388
     48  CG        25.7810   -4.3870    8.8670 C.3   146  GLU146      0.1160
     49  CD        25.9480   -2.9620    8.3810 C.2   146  GLU146      0.3649
     50  OE1       27.0960   -2.4670    8.3650 O.co2 146  GLU146     -0.2457
     51  OE2       24.9270   -2.3340    8.0210 O.co2 146  GLU146     -0.2457
     52  N         32.3250   -2.5500    8.3850 N.3   161  LYS161     -0.1231
     53  CA        31.4150   -2.5880    7.2540 C.3   161  LYS161      0.1693
     54  C         32.0410   -2.9380    5.9070 C.2   161  LYS161      0.2592
     55  O         31.4550   -3.6910    5.1250 O.2   161  LYS161     -0.2718
     56  CB        30.7040   -1.2300    7.1580 C.3   161  LYS161      0.0285
     57  CG        29.8190   -1.0080    5.9300 C.3   161  LYS161      0.0035
     58  CD        29.2510    0.4160    5.9330 C.3   161  LYS161      0.0206
     59  CE        28.5270    0.7470    4.6360 C.3   161  LYS161      0.1093
     60  NZ        29.4430    0.7390    3.4530 N.3   161  LYS161     -0.1314
     61  N         33.2350   -2.4180    5.6440 N.am  162  THR162     -0.1953
     62  CA        33.8680   -2.6270    4.3500 C.3   162  THR162      0.1897
     63  C         35.2660   -3.2130    4.3360 C.2   162  THR162      0.2313
     64  O         35.5260   -4.2200    3.6710 O.2   162  THR162     -0.2863
     65  CB        33.9410   -1.2840    3.5730 C.3   162  THR162      0.1794
     66  OG1       32.6560   -0.6520    3.5950 O.3   162  THR162     -0.2208
     67  CG2       34.3660   -1.5080    2.1310 C.3   162  THR162      0.0378
     68  N         36.1140    2.4660    0.5940 N.3   199  GLN199     -0.1245
     69  CA        34.9240    3.0020    1.2330 C.3   199  GLN199      0.1566
     70  C         34.9230    4.5280    1.3100 C.2   199  GLN199      0.2260
     71  O         33.8910    5.1600    1.0650 O.2   199  GLN199     -0.2867
     72  CB        34.7700    2.4120    2.6400 C.3   199  GLN199      0.0367
     73  CG        33.5160    2.8740    3.3690 C.3   199  GLN199      0.0905
     74  CD        32.2370    2.5300    2.6240 C.2   199  GLN199      0.2608
     75  OE1       31.9410    1.3620    2.3820 O.2   199  GLN199     -0.2717
     76  NE2       31.4720    3.5530    2.2570 N.am  199  GLN199     -0.0878
     77  N         33.9710    5.7950   -1.9140 N.3   202  ASP202     -0.1239
     78  CA        32.5400    5.5550   -2.0480 C.3   202  ASP202      0.1674
     79  C         31.6880    6.6300   -1.3820 C.2   202  ASP202      0.2266
     80  O         30.7500    7.1400   -1.9860 O.2   202  ASP202     -0.2867
     81  CB        32.1780    4.1930   -1.4580 C.3   202  ASP202      0.1410
     82  CG        30.7740    3.7540   -1.8290 C.2   202  ASP202      0.3668
     83  OD1       30.5260    3.5620   -3.0390 O.co2 202  ASP202     -0.2456
     84  OD2       29.9240    3.6020   -0.9210 O.co2 202  ASP202     -0.2456
     85  N         21.8030    9.2060   -1.2990 N.3   212  ASP212     -0.1225
     86  CA        21.2240    8.5250   -0.1490 C.3   212  ASP212      0.1805
     87  C         21.8590    8.8900    1.2000 C.2   212  ASP212      0.2597
     88  O         21.1530    9.1110    2.1790 O.2   212  ASP212     -0.2718
     89  CB        21.2890    7.0020   -0.3630 C.3   212  ASP212      0.1424
     90  CG        20.4110    6.5280   -1.5240 C.2   212  ASP212      0.3668
     91  OD1       19.9390    7.3810   -2.3110 O.co2 212  ASP212     -0.2456
     92  OD2       20.1990    5.2990   -1.6560 O.co2 212  ASP212     -0.2456
     93  N         23.1850    8.9500    1.2580 N.am  213  ASP213     -0.1974
     94  CA        23.8670    9.2730    2.5070 C.3   213  ASP213      0.1709
     95  C         23.3250   10.5240    3.2110 C.2   213  ASP213      0.2293
     96  O         23.0720   10.4950    4.4190 O.2   213  ASP213     -0.2864
     97  CB        25.3720    9.4260    2.2650 C.3   213  ASP213      0.1436
     98  CG        26.0650    8.0960    2.0130 C.2   213  ASP213      0.3671
     99  OD1       25.3860    7.0560    1.9500 O.co2 213  ASP213     -0.2456
    100  OD2       27.3040    8.0920    1.8820 O.co2 213  ASP213     -0.2456
    101  N         23.5030   10.5240    7.1030 N.3   218  LYS218     -0.1245
    102  CA        24.5900    9.6420    7.5070 C.3   218  LYS218      0.1561
    103  C         25.8160   10.4510    7.8960 C.2   218  LYS218      0.2260
    104  O         26.1690   11.4180    7.2260 O.2   218  LYS218     -0.2867
    105  CB        24.9550    8.6730    6.3850 C.3   218  LYS218      0.0271
    106  CG        26.2790    7.9520    6.6140 C.3   218  LYS218      0.0035
    107  CD        26.4740    6.8010    5.6450 C.3   218  LYS218      0.0206
    108  CE        25.7290    5.5730    6.1130 C.3   218  LYS218      0.1093
    109  NZ        24.3130    5.8910    6.4440 N.3   218  LYS218     -0.1314
@<TRIPOS>BOND
     1    35    34    2
     2    34    33    1
     3    32    33    1
     4    33    36    1
     5    36    37    1
     6    37    38    1
     7    38    39    1
     8    39    40    2
     9    14    13    1
    10    41    40    1
    11    40    42    1
    12    83    82   ar
    13    91    90   ar
    14    13    12    1
    15    13    15    1
    16    78    77    1
    17    78    81    1
    18    78    79    1
    19    80    79    2
    20    12     9    1
    21    82    81    1
    22    82    84   ar
    23    92    90   ar
    24    90    89    1
    25    85    86    1
    26     9    10    1
    27     9     8    1
    28    89    86    1
    29    10    11    2
    30    86    87    1
    31     8     3   am
    32    68    69    1
    33    71    70    2
    34    87    93   am
    35    87    88    2
    36    69    70    1
    37    69    72    1
    38    93    94    1
    39     1     2    1
    40     3     4    2
    41     3     2    1
    42    23    21   ar
    43   100    98   ar
    44    99    98   ar
    45    98    97    1
    46    67    65    1
    47     6     5    1
    48    76    74   am
    49    97    94    1
    50    75    74    2
    51    94    95    1
    52     2     5    1
    53    18    19    2
    54    18    17    1
    55    74    73    1
    56    72    73    1
    57    20    21    1
    58    20    17    1
    59    27    26    2
    60    21    22   ar
    61    16    17    1
    62     5     7    1
    63    95    96    2
    64    26    25    1
    65    28    25    1
    66    28    29    1
    67    60    59    1
    68    31    29   ar
    69    65    66    1
    70    65    62    1
    71    64    63    2
    72    25    24    1
    73    29    30   ar
    74    63    62    1
    75    62    61    1
    76    59    58    1
    77    55    54    2
    78    61    54   am
    79   107   108    1
    80   107   106    1
    81    54    53    1
    82    57    58    1
    83    57    56    1
    84   108   109    1
    85   105   106    1
    86   105   102    1
    87   101   102    1
    88    56    53    1
    89   104   103    2
    90    53    52    1
    91   102   103    1
    92    51    49   ar
    93    50    49   ar
    94    49    48    1
    95    48    47    1
    96    47    44    1
    97    44    43    1
    98    44    45    1
    99    46    45    2
