@<TRIPOS>MOLECULE
tmp/3wjpA00.pdb
 147 135 0 0 0
SMALL
GASTEIGER

@<TRIPOS>ATOM
      1  N         13.9360   12.4380   19.0090 N.3    14  MET14      -0.1245
      2  CA        14.7800   12.7380   17.8570 C.3    14  MET14       0.1570
      3  C         16.1610   13.1880   18.3150 C.2    14  MET14       0.2261
      4  O         17.1740   12.7850   17.7450 O.2    14  MET14      -0.2867
      5  CB        14.1480   13.8140   16.9720 C.3    14  MET14       0.0387
      6  CG        14.9850   14.1070   15.7280 C.3    14  MET14       0.0595
      7  SD        14.5150   15.6690   14.9480 S.3    14  MET14      -0.1393
      8  CE        15.1610   16.8300   16.1450 C.3    14  MET14       0.0692
      9  N         19.9410   11.8450   17.2720 N.3    18  LEU18      -0.1245
     10  CA        21.0020   12.6790   16.7100 C.3    18  LEU18       0.1561
     11  C         22.2990   12.5610   17.5170 C.2    18  LEU18       0.2260
     12  O         23.3830   12.4270   16.9460 O.2    18  LEU18      -0.2867
     13  CB        20.5420   14.1350   16.6040 C.3    18  LEU18       0.0270
     14  CG        19.3250   14.3340   15.6960 C.3    18  LEU18       0.0019
     15  CD1       18.9570   15.8060   15.6100 C.3    18  LEU18       0.0001
     16  CD2       19.5760   13.7680   14.3050 C.3    18  LEU18       0.0001
     17  N         23.6860    9.7170   14.9640 N.3    22  ILE22      -0.1245
     18  CA        24.2600   10.5800   13.9300 C.3    22  ILE22       0.1561
     19  C         25.6470   11.1220   14.3080 C.2    22  ILE22       0.2260
     20  O         26.6090   10.9430   13.5570 O.2    22  ILE22      -0.2867
     21  CB        23.3130   11.7440   13.5430 C.3    22  ILE22       0.0252
     22  CG1       22.2010   11.2580   12.5980 C.3    22  ILE22       0.0019
     23  CG2       24.0770   12.8250   12.8040 C.3    22  ILE22       0.0019
     24  CD1       21.2180   10.2590   13.1790 C.3    22  ILE22       0.0001
     25  N         29.0960    9.7160   12.2290 N.3    26  LEU26      -0.1245
     26  CA        29.8290   10.6100   11.3490 C.3    26  LEU26       0.1561
     27  C         31.0540   11.1570   12.0690 C.2    26  LEU26       0.2260
     28  O         30.9930   11.4660   13.2640 O.2    26  LEU26      -0.2867
     29  CB        28.9320   11.7600   10.8920 C.3    26  LEU26       0.0270
     30  CG        27.6710   11.3050   10.1510 C.3    26  LEU26       0.0019
     31  CD1       26.9250   12.5580    9.7080 C.3    26  LEU26       0.0001
     32  CD2       28.0070   10.4320    8.9460 C.3    26  LEU26       0.0001
     33  N         28.5160   20.0570   12.8780 N.3    36  LEU36      -0.1245
     34  CA        27.4190   19.1670   13.2260 C.3    36  LEU36       0.1561
     35  C         27.2970   18.9430   14.7240 C.2    36  LEU36       0.2260
     36  O         26.1920   18.8090   15.2410 O.2    36  LEU36      -0.2867
     37  CB        27.5800   17.8190   12.5170 C.3    36  LEU36       0.0270
     38  CG        26.2700   17.0750   12.2880 C.3    36  LEU36       0.0019
     39  CD1       25.3940   17.8860   11.3430 C.3    36  LEU36       0.0001
     40  CD2       26.5410   15.6910   11.7090 C.3    36  LEU36       0.0001
     41  N         24.8750   20.9710   16.6690 N.3    39  LEU39      -0.1231
     42  CA        23.4440   20.7140   16.4370 C.3    39  LEU39       0.1693
     43  C         22.6230   21.9980   16.3530 C.2    39  LEU39       0.2592
     44  O         21.5030   22.0780   16.8860 O.2    39  LEU39      -0.2718
     45  CB        22.8730   19.7740   17.4990 C.3    39  LEU39       0.0284
     46  CG        23.4780   18.3680   17.5110 C.3    39  LEU39       0.0019
     47  CD1       22.9180   17.5750   18.6800 C.3    39  LEU39       0.0001
     48  CD2       23.2060   17.6340   16.2060 C.3    39  LEU39       0.0001
     49  N         23.1740   22.9920   15.6680 N.am   40  ASP40      -0.1960
     50  CA        22.5330   24.2950   15.5240 C.3    40  ASP40       0.1840
     51  C         21.7050   24.3280   14.2380 C.2    40  ASP40       0.2622
     52  O         21.6580   23.3540   13.4810 O.2    40  ASP40      -0.2715
     53  CB        23.6040   25.4010   15.5230 C.3    40  ASP40       0.1450
     54  CG        23.1090   26.7120   16.1300 C.2    40  ASP40       0.3671
     55  OD1       21.8800   26.9320   16.2030 O.co2  40  ASP40      -0.2456
     56  OD2       23.9620   27.5490   16.5160 O.co2  40  ASP40      -0.2456
     57  N         21.0490   25.4470   13.9850 N.am   41  ASP41      -0.1957
     58  CA        20.1650   25.5390   12.8300 C.3    41  ASP41       0.1840
     59  C         20.8920   25.3780   11.5060 C.2    41  ASP41       0.2622
     60  O         20.2890   24.9530   10.5190 O.2    41  ASP41      -0.2715
     61  CB        19.4060   26.8540   12.8620 C.3    41  ASP41       0.1450
     62  CG        18.5610   26.9790   14.1020 C.2    41  ASP41       0.3671
     63  OD1       17.4370   26.4340   14.1040 O.co2  41  ASP41      -0.2456
     64  OD2       19.0360   27.5800   15.0820 O.co2  41  ASP41      -0.2456
     65  N         22.1830   25.7150   11.4830 N.am   42  GLY42      -0.1954
     66  CA        23.0000   25.4900   10.3100 C.3    42  GLY42       0.1869
     67  C         24.4590   25.3840   10.6880 C.2    42  GLY42       0.2309
     68  O         24.7980   25.4100   11.8680 O.2    42  GLY42      -0.2863
     69  N         22.5580   25.1500    5.3340 N.3    55  THR55      -0.1203
     70  CA        21.5040   24.4570    6.0590 C.3    55  THR55       0.1994
     71  C         20.6540   23.6400    5.0890 C.2    55  THR55       0.2618
     72  O         20.6830   23.8760    3.8750 O.2    55  THR55      -0.2717
     73  CB        20.6310   25.4790    6.8120 C.3    55  THR55       0.1784
     74  OG1       19.8830   24.8060    7.8350 O.3    55  THR55      -0.2211
     75  CG2       19.6920   26.2190    5.8510 C.3    55  THR55       0.0376
     76  N         19.9050   22.6730    5.6100 N.am   56  ILE56      -0.1965
     77  CA        19.0260   21.8650    4.7670 C.3    56  ILE56       0.1727
     78  C         17.8350   21.3880    5.5770 C.2    56  ILE56       0.2616
     79  O         17.9610   21.1040    6.7600 O.2    56  ILE56      -0.2715
     80  CB        19.7800   20.6440    4.1520 C.3    56  ILE56       0.0290
     81  CG1       18.9510   19.9950    3.0340 C.3    56  ILE56       0.0022
     82  CG2       20.1550   19.6020    5.2350 C.3    56  ILE56       0.0023
     83  CD1       19.7600   18.9940    2.1640 C.3    56  ILE56       0.0001
     84  N         16.6670   21.3430    4.9390 N.am   57  ASP57      -0.1971
     85  CA        15.5000   20.7140    5.5410 C.3    57  ASP57       0.1709
     86  C         14.7370   19.9390    4.4940 C.2    57  ASP57       0.2293
     87  O         14.5230   20.4150    3.3650 O.2    57  ASP57      -0.2864
     88  CB        14.5510   21.7560    6.1520 C.3    57  ASP57       0.1436
     89  CG        14.7100   21.8950    7.6550 C.2    57  ASP57       0.3671
     90  OD1       15.0420   20.9050    8.3250 O.co2  57  ASP57      -0.2456
     91  OD2       14.4790   23.0110    8.1870 O.co2  57  ASP57      -0.2456
     92  N         11.1470   27.5590    5.4590 N.3    78  GLY78      -0.1225
     93  CA        11.8330   26.8770    6.5390 C.3    78  GLY78       0.1811
     94  C         13.3360   26.9660    6.4140 C.2    78  GLY78       0.2280
     95  O         14.0460   27.1210    7.4030 O.2    78  GLY78      -0.2866
     96  N         16.0450   29.0100    8.7780 N.3    82  ASP82      -0.1239
     97  CA        17.2120   28.4200    9.4280 C.3    82  ASP82       0.1674
     98  C         18.4790   29.2190    9.1160 C.2    82  ASP82       0.2266
     99  O         19.3690   29.3260    9.9630 O.2    82  ASP82      -0.2867
    100  CB        17.3600   26.9390    9.0600 C.3    82  ASP82       0.1410
    101  CG        16.5730   26.0420    9.9830 C.2    82  ASP82       0.3668
    102  OD1       16.6340   26.2410   11.2210 O.co2  82  ASP82      -0.2456
    103  OD2       15.8630   25.1410    9.4850 O.co2  82  ASP82      -0.2456
    104  N         16.6770   30.7620   17.6750 N.3   218  LYS218     -0.1231
    105  CA        16.2520   29.5390   16.9890 C.3   218  LYS218      0.1693
    106  C         14.8780   29.8170   16.4190 C.2   218  LYS218      0.2592
    107  O         14.1390   30.6350   16.9660 O.2   218  LYS218     -0.2718
    108  CB        16.1630   28.3350   17.9340 C.3   218  LYS218      0.0285
    109  CG        17.5180   27.7920   18.3920 C.3   218  LYS218      0.0035
    110  CD        17.4490   26.3460   18.8610 C.3   218  LYS218      0.0206
    111  CE        17.5780   25.3570   17.7100 C.3   218  LYS218      0.1093
    112  NZ        18.9320   25.4310   17.0600 N.3   218  LYS218     -0.1314
    113  N         14.5300   29.1620   15.3180 N.am  219  ASP219     -0.1974
    114  CA        13.1410   29.1900   14.8640 C.3   219  ASP219      0.1709
    115  C         12.3970   28.0350   15.5200 C.2   219  ASP219      0.2293
    116  O         12.8560   26.9040   15.5140 O.2   219  ASP219     -0.2864
    117  CB        13.0310   29.1650   13.3330 C.3   219  ASP219      0.1436
    118  CG        13.7870   28.0150   12.6870 C.2   219  ASP219      0.3671
    119  OD1       14.8240   27.5660   13.2400 O.co2 219  ASP219     -0.2456
    120  OD2       13.3340   27.5640   11.6060 O.co2 219  ASP219     -0.2456
    121  N         10.3870   25.5570   15.3000 N.3   221  THR221     -0.1203
    122  CA         9.7890   24.6200   14.3670 C.3   221  THR221      0.1994
    123  C          9.3510   23.3370   15.1080 C.2   221  THR221      0.2617
    124  O          8.6760   23.4490   16.1390 O.2   221  THR221     -0.2717
    125  CB        10.7440   24.4090   13.1720 C.3   221  THR221      0.1784
    126  OG1       12.1020   24.2810   13.6480 O.3   221  THR221     -0.2211
    127  CG2       10.6890   25.6330   12.2470 C.3   221  THR221      0.0376
    128  N          9.7080   22.1400   14.6400 N.am  222  ARG222     -0.1979
    129  CA         9.1570   20.9210   15.2640 C.3   222  ARG222      0.1597
    130  C          9.3640   20.9090   16.7720 C.2   222  ARG222      0.2287
    131  O         10.4570   21.2230   17.2640 O.2   222  ARG222     -0.2864
    132  CB         9.7460   19.6470   14.6600 C.3   222  ARG222      0.0334
    133  CG         9.2020   19.3020   13.2840 C.3   222  ARG222      0.0492
    134  CD         9.8660   18.0310   12.7780 C.3   222  ARG222      0.2205
    135  NE        11.2440   18.3080   12.3790 N.pl3 222  ARG222     -0.0865
    136  CZ        12.1110   17.3620   12.0310 C.cat 222  ARG222      0.5346
    137  NH1       11.7540   16.0760   12.0470 N.pl3 222  ARG222      0.1354
    138  NH2       13.3390   17.7120   11.6680 N.pl3 222  ARG222      0.1354
    139  N         16.0600   24.1190   24.3500 N.3   231  GLU231     -0.1245
    140  CA        17.3400   23.8940   23.6790 C.3   231  GLU231      0.1567
    141  C         18.3010   25.0620   23.8840 C.2   231  GLU231      0.2260
    142  O         19.4820   24.8500   24.1490 O.2   231  GLU231     -0.2867
    143  CB        17.1650   23.5720   22.1880 C.3   231  GLU231      0.0388
    144  CG        18.5010   23.2100   21.5060 C.3   231  GLU231      0.1160
    145  CD        18.3470   22.3370   20.2670 C.2   231  GLU231      0.3649
    146  OE1       17.2410   22.3080   19.6860 O.co2 231  GLU231     -0.2457
    147  OE2       19.3380   21.6770   19.8750 O.co2 231  GLU231     -0.2457
@<TRIPOS>BOND
     1    83    81    1
     2    81    80    1
     3    87    86    2
     4    72    71    2
     5    80    77    1
     6    80    82    1
     7    86    85    1
     8    77    78    1
     9    77    76    1
    10    84    85    1
    11    84    78   am
    12    71    76   am
    13    71    70    1
    14    69    70    1
    15    92    93    1
    16    85    88    1
    17    78    79    2
    18    75    73    1
    19    70    73    1
    20    88    89    1
    21    94    93    1
    22    94    95    2
    23    73    74    1
    24    89    91   ar
    25    89    90   ar
    26    96    97    1
    27    32    30    1
    28   100    97    1
    29   100   101    1
    30    98    97    1
    31    98    99    2
    32   103   101   ar
    33    31    30    1
    34   101   102   ar
    35    30    29    1
    36    66    67    1
    37    66    65    1
    38    60    59    2
    39    67    68    2
    40    29    26    1
    41    39    38    1
    42    26    27    1
    43    26    25    1
    44    65    59   am
    45    59    58    1
    46   120   118   ar
    47   138   136    1
    48    40    38    1
    49   136   137    1
    50   136   135    2
    51    27    28    2
    52   127   125    1
    53    38    37    1
    54   135   134    1
    55    37    34    1
    56    22    24    1
    57    22    21    1
    58   118   119   ar
    59   118   117    1
    60   134   133    1
    61    23    21    1
    62    58    61    1
    63    58    57    1
    64    61    62    1
    65    33    34    1
    66   125   126    1
    67   125   122    1
    68    34    35    1
    69   133   132    1
    70   117   114    1
    71    52    51    2
    72    21    18    1
    73    20    19    2
    74    18    19    1
    75    18    17    1
    76    57    51   am
    77    62    63   ar
    78    62    64   ar
    79    51    50    1
    80    16    14    1
    81   122   123    1
    82   122   121    1
    83   128   123   am
    84   128   129    1
    85   132   129    1
    86    35    36    2
    87   114   113    1
    88   114   115    1
    89     7     6    1
    90     7     8    1
    91   123   124    2
    92   129   130    1
    93   113   106   am
    94   116   115    2
    95    53    50    1
    96    53    54    1
    97    50    49    1
    98    15    14    1
    99    49    43   am
   100    14    13    1
   101     6     5    1
   102    54    55   ar
   103    54    56   ar
   104    48    46    1
   105    43    42    1
   106    43    44    2
   107   106   107    2
   108   106   105    1
   109    42    41    1
   110    42    45    1
   111    13    10    1
   112    10     9    1
   113    10    11    1
   114   130   131    2
   115    12    11    2
   116     5     2    1
   117   105   104    1
   118   105   108    1
   119   112   111    1
   120    45    46    1
   121    46    47    1
   122   111   110    1
   123     4     3    2
   124     2     3    1
   125     2     1    1
   126   108   109    1
   127   109   110    1
   128   146   145   ar
   129   147   145   ar
   130   145   144    1
   131   144   143    1
   132   143   140    1
   133   140   141    1
   134   140   139    1
   135   141   142    2
