@<TRIPOS>MOLECULE
tmp/3wjqA01.pdb
 147 136 0 0 0
SMALL
GASTEIGER

@<TRIPOS>ATOM
      1  N         11.0690   15.6530   16.1960 N.3    10  GLY10      -0.1225
      2  CA        11.7630   16.8880   16.5320 C.3    10  GLY10       0.1811
      3  C         11.9750   17.2900   17.9840 C.2    10  GLY10       0.2280
      4  O         12.4450   18.4070   18.2620 O.2    10  GLY10      -0.2866
      5  N         13.9980   12.5120   19.0370 N.3    14  MET14      -0.1230
      6  CA        14.8550   12.7440   17.8790 C.3    14  MET14       0.1702
      7  C         16.2430   13.1780   18.3290 C.2    14  MET14       0.2592
      8  O         17.2480   12.7610   17.7540 O.2    14  MET14      -0.2718
      9  CB        14.2530   13.7970   16.9480 C.3    14  MET14       0.0401
     10  CG        15.0460   13.9510   15.6760 C.3    14  MET14       0.0596
     11  SD        14.3710   15.2460   14.6350 S.3    14  MET14      -0.1393
     12  CE        15.0360   16.7070   15.4060 C.3    14  MET14       0.0692
     13  N         16.2970   14.0050   19.3680 N.am   15  GLU15      -0.1979
     14  CA        17.5700   14.5210   19.8620 C.3    15  GLU15       0.1602
     15  C         18.4670   13.3770   20.3350 C.2    15  GLU15       0.2287
     16  O         19.6800   13.3970   20.1260 O.2    15  GLU15      -0.2864
     17  CB        17.3430   15.5220   20.9950 C.3    15  GLU15       0.0415
     18  CG        18.6050   16.2570   21.4220 C.3    15  GLU15       0.1163
     19  CD        19.0200   17.3210   20.4290 C.2    15  GLU15       0.3649
     20  OE1       18.1770   17.7210   19.5960 O.co2  15  GLU15      -0.2457
     21  OE2       20.1900   17.7560   20.4760 O.co2  15  GLU15      -0.2457
     22  N         19.9510   11.7640   17.2620 N.3    18  LEU18      -0.1245
     23  CA        21.0270   12.5970   16.7220 C.3    18  LEU18       0.1561
     24  C         22.3180   12.4370   17.5270 C.2    18  LEU18       0.2260
     25  O         23.3890   12.2590   16.9560 O.2    18  LEU18      -0.2867
     26  CB        20.6010   14.0610   16.6700 C.3    18  LEU18       0.0270
     27  CG        19.4350   14.3070   15.7100 C.3    18  LEU18       0.0019
     28  CD1       18.9690   15.7480   15.7880 C.3    18  LEU18       0.0001
     29  CD2       19.8410   13.9440   14.2860 C.3    18  LEU18       0.0001
     30  N         23.6970    9.5810   14.9780 N.3    22  ILE22      -0.1245
     31  CA        24.2680   10.4210   13.9220 C.3    22  ILE22       0.1561
     32  C         25.6430   10.9910   14.2830 C.2    22  ILE22       0.2260
     33  O         26.6060   10.8300   13.5220 O.2    22  ILE22      -0.2867
     34  CB        23.3150   11.5580   13.4920 C.3    22  ILE22       0.0252
     35  CG1       22.2270   11.0120   12.5640 C.3    22  ILE22       0.0019
     36  CG2       24.0830   12.6300   12.7190 C.3    22  ILE22       0.0019
     37  CD1       21.2390   10.0910   13.2040 C.3    22  ILE22       0.0001
     38  N         29.0820    9.6280   12.2400 N.3    26  LEU26      -0.1245
     39  CA        29.8200   10.5210   11.3560 C.3    26  LEU26       0.1561
     40  C         31.0410   11.0910   12.0650 C.2    26  LEU26       0.2260
     41  O         30.9730   11.4370   13.2500 O.2    26  LEU26      -0.2867
     42  CB        28.9150   11.6580   10.8880 C.3    26  LEU26       0.0270
     43  CG        27.6440   11.2040   10.1680 C.3    26  LEU26       0.0019
     44  CD1       26.9050   12.4440    9.6940 C.3    26  LEU26       0.0001
     45  CD2       27.9600   10.2910    8.9900 C.3    26  LEU26       0.0001
     46  N         28.5000   19.9920   12.8490 N.3    36  LEU36      -0.1245
     47  CA        27.3730   19.1220   13.1600 C.3    36  LEU36       0.1561
     48  C         27.2260   18.8960   14.6620 C.2    36  LEU36       0.2260
     49  O         26.1080   18.7670   15.1720 O.2    36  LEU36      -0.2867
     50  CB        27.5160   17.7790   12.4400 C.3    36  LEU36       0.0270
     51  CG        26.2300   16.9740   12.2840 C.3    36  LEU36       0.0019
     52  CD1       25.2430   17.7580   11.4130 C.3    36  LEU36       0.0001
     53  CD2       26.5130   15.5920   11.6870 C.3    36  LEU36       0.0001
     54  N         24.7960   20.9210   16.5900 N.3    39  LEU39      -0.1231
     55  CA        23.3680   20.6800   16.3480 C.3    39  LEU39       0.1693
     56  C         22.5550   21.9710   16.2850 C.2    39  LEU39       0.2592
     57  O         21.4450   22.0500   16.8240 O.2    39  LEU39      -0.2718
     58  CB        22.7880   19.7300   17.4010 C.3    39  LEU39       0.0284
     59  CG        23.3930   18.3180   17.3810 C.3    39  LEU39       0.0019
     60  CD1       22.8140   17.4860   18.5150 C.3    39  LEU39       0.0001
     61  CD2       23.1340   17.6380   16.0390 C.3    39  LEU39       0.0001
     62  N         23.1010   22.9690   15.6000 N.am   40  ASP40      -0.1960
     63  CA        22.4590   24.2780   15.4850 C.3    40  ASP40       0.1840
     64  C         21.5850   24.3160   14.2350 C.2    40  ASP40       0.2622
     65  O         21.4620   23.3280   13.5140 O.2    40  ASP40      -0.2715
     66  CB        23.5310   25.3820   15.4260 C.3    40  ASP40       0.1450
     67  CG        23.0770   26.6900   16.0590 C.2    40  ASP40       0.3671
     68  OD1       21.8620   26.9800   16.0870 O.co2  40  ASP40      -0.2456
     69  OD2       23.9530   27.4600   16.5170 O.co2  40  ASP40      -0.2456
     70  N         20.9540   25.4500   13.9750 N.am   41  ASP41      -0.1957
     71  CA        20.0620   25.5330   12.8200 C.3    41  ASP41       0.1840
     72  C         20.7820   25.3570   11.4820 C.2    41  ASP41       0.2622
     73  O         20.1850   24.9250   10.4930 O.2    41  ASP41      -0.2715
     74  CB        19.3040   26.8500   12.8400 C.3    41  ASP41       0.1450
     75  CG        18.4580   26.9940   14.0830 C.2    41  ASP41       0.3671
     76  OD1       17.3270   26.4670   14.1020 O.co2  41  ASP41      -0.2456
     77  OD2       18.9260   27.6030   15.0560 O.co2  41  ASP41      -0.2456
     78  N         22.0700   25.6810   11.4600 N.am   42  GLY42      -0.1954
     79  CA        22.8920   25.4270   10.2930 C.3    42  GLY42       0.1869
     80  C         24.3600   25.3370   10.6740 C.2    42  GLY42       0.2309
     81  O         24.7000   25.3780   11.8560 O.2    42  GLY42      -0.2863
     82  N         22.4690   25.1130    5.3120 N.3    55  THR55      -0.1203
     83  CA        21.4120   24.4060    6.0200 C.3    55  THR55       0.1994
     84  C         20.6050   23.5420    5.0500 C.2    55  THR55       0.2618
     85  O         20.6660   23.7510    3.8400 O.2    55  THR55      -0.2717
     86  CB        20.4950   25.4160    6.7270 C.3    55  THR55       0.1784
     87  OG1       19.6820   24.7320    7.6890 O.3    55  THR55      -0.2211
     88  CG2       19.6200   26.1660    5.7130 C.3    55  THR55       0.0376
     89  N         19.8730   22.5650    5.5760 N.am   56  ILE56      -0.1965
     90  CA        18.9970   21.7520    4.7340 C.3    56  ILE56       0.1727
     91  C         17.8060   21.2670    5.5420 C.2    56  ILE56       0.2616
     92  O         17.9320   21.0080    6.7360 O.2    56  ILE56      -0.2715
     93  CB        19.7540   20.5380    4.1160 C.3    56  ILE56       0.0290
     94  CG1       18.9400   19.9200    2.9690 C.3    56  ILE56       0.0022
     95  CG2       20.0970   19.4820    5.1930 C.3    56  ILE56       0.0023
     96  CD1       19.7320   18.9100    2.1220 C.3    56  ILE56       0.0001
     97  N         16.6480   21.1740    4.8910 N.am   57  ASP57      -0.1971
     98  CA        15.4570   20.6180    5.5260 C.3    57  ASP57       0.1709
     99  C         14.6540   19.8480    4.5020 C.2    57  ASP57       0.2293
    100  O         14.4020   20.3380    3.3940 O.2    57  ASP57      -0.2864
    101  CB        14.5690   21.7250    6.1040 C.3    57  ASP57       0.1436
    102  CG        14.6610   21.8390    7.6150 C.2    57  ASP57       0.3671
    103  OD1       14.9700   20.8430    8.2980 O.co2  57  ASP57      -0.2456
    104  OD2       14.4060   22.9460    8.1390 O.co2  57  ASP57      -0.2456
    105  N         15.9410   29.0260    8.7230 N.3    82  ASP82      -0.1239
    106  CA        17.1240   28.4320    9.3400 C.3    82  ASP82       0.1674
    107  C         18.3890   29.2560    9.0700 C.2    82  ASP82       0.2266
    108  O         19.2580   29.3620    9.9420 O.2    82  ASP82      -0.2867
    109  CB        17.3060   26.9770    8.9160 C.3    82  ASP82       0.1410
    110  CG        16.5450   26.0180    9.8210 C.2    82  ASP82       0.3668
    111  OD1       16.6030   26.1920   11.0630 O.co2  82  ASP82      -0.2456
    112  OD2       15.8920   25.0930    9.3020 O.co2  82  ASP82      -0.2456
    113  N         16.6620   30.7880   17.5830 N.3   218  LYS218     -0.1231
    114  CA        16.2460   29.5270   16.9770 C.3   218  LYS218      0.1693
    115  C         14.8950   29.7820   16.3300 C.2   218  LYS218      0.2592
    116  O         14.1600   30.6630   16.7640 O.2   218  LYS218     -0.2718
    117  CB        16.1060   28.4070   18.0190 C.3   218  LYS218      0.0285
    118  CG        17.4130   27.8010   18.4960 C.3   218  LYS218      0.0035
    119  CD        17.3010   26.3110   18.8210 C.3   218  LYS218      0.0206
    120  CE        17.4530   25.4510   17.5720 C.3   218  LYS218      0.1093
    121  NZ        18.8340   25.4870   16.9940 N.3   218  LYS218     -0.1314
    122  N         14.5650   29.0290   15.2900 N.am  219  ASP219     -0.1974
    123  CA        13.1890   29.0690   14.7780 C.3   219  ASP219      0.1709
    124  C         12.4370   27.8900   15.3680 C.2   219  ASP219      0.2293
    125  O         12.8870   26.7500   15.2760 O.2   219  ASP219     -0.2864
    126  CB        13.0830   29.1460   13.2550 C.3   219  ASP219      0.1436
    127  CG        13.7510   27.9990   12.5610 C.2   219  ASP219      0.3671
    128  OD1       14.7540   27.4910   13.1090 O.co2 219  ASP219     -0.2456
    129  OD2       13.2720   27.6250   11.4530 O.co2 219  ASP219     -0.2456
    130  N         10.3850   25.4830   15.1050 N.3   221  THR221     -0.1203
    131  CA         9.7200   24.5290   14.2240 C.3   221  THR221      0.1994
    132  C          9.2910   23.2720   15.0080 C.2   221  THR221      0.2617
    133  O          8.6590   23.4090   16.0550 O.2   221  THR221     -0.2717
    134  CB        10.6050   24.2310   12.9970 C.3   221  THR221      0.1784
    135  OG1       11.9570   23.9760   13.4260 O.3   221  THR221     -0.2211
    136  CG2       10.6260   25.4500   12.0870 C.3   221  THR221      0.0376
    137  N          9.6260   22.0630   14.5480 N.am  222  ARG222     -0.1979
    138  CA         9.1180   20.8490   15.2260 C.3   222  ARG222      0.1597
    139  C          9.3090   20.9000   16.7380 C.2   222  ARG222      0.2287
    140  O         10.3830   21.2630   17.2350 O.2   222  ARG222     -0.2864
    141  CB         9.7630   19.5700   14.6760 C.3   222  ARG222      0.0334
    142  CG         9.1170   19.0520   13.4120 C.3   222  ARG222      0.0492
    143  CD         9.8360   17.8120   12.9000 C.3   222  ARG222      0.2205
    144  NE        11.1550   18.1490   12.3750 N.pl3 222  ARG222     -0.0865
    145  CZ        12.0280   17.2420   11.9360 C.cat 222  ARG222      0.5346
    146  NH1       11.7170   15.9520   11.9620 N.pl3 222  ARG222      0.1354
    147  NH2       13.2100   17.6310   11.4660 N.pl3 222  ARG222      0.1354
@<TRIPOS>BOND
     1    96    94    1
     2    94    93    1
     3   100    99    2
     4    85    84    2
     5    93    90    1
     6    93    95    1
     7    99    98    1
     8    90    91    1
     9    90    89    1
    10    97    98    1
    11    97    91   am
    12    84    89   am
    13    84    83    1
    14    82    83    1
    15    98   101    1
    16    91    92    2
    17    88    86    1
    18    83    86    1
    19   101   102    1
    20    86    87    1
    21   102   104   ar
    22   102   103   ar
    23   105   106    1
    24   109   106    1
    25   109   110    1
    26    45    43    1
    27   107   106    1
    28   107   108    2
    29   112   110   ar
    30    44    43    1
    31   110   111   ar
    32    43    42    1
    33    79    80    1
    34    79    78    1
    35    73    72    2
    36    80    81    2
    37    42    39    1
    38    39    40    1
    39    39    38    1
    40    52    51    1
    41   129   127   ar
    42    78    72   am
    43   147   145    1
    44    72    71    1
    45    53    51    1
    46   145   146    1
    47   145   144    2
    48    40    41    2
    49   136   134    1
    50    51    50    1
    51   144   143    1
    52    50    47    1
    53   127   128   ar
    54   127   126    1
    55    35    37    1
    56    35    34    1
    57    36    34    1
    58    71    74    1
    59    71    70    1
    60    74    75    1
    61    46    47    1
    62   143   142    1
    63   134   135    1
    64   134   131    1
    65    47    48    1
    66   126   123    1
    67   142   141    1
    68    34    31    1
    69    65    64    2
    70    33    32    2
    71    31    32    1
    72    31    30    1
    73    70    64   am
    74    75    76   ar
    75    75    77   ar
    76   131   132    1
    77   131   130    1
    78    64    63    1
    79    29    27    1
    80   137   132   am
    81   137   138    1
    82    11    12    1
    83    11    10    1
    84    48    49    2
    85   141   138    1
    86   123   122    1
    87   123   124    1
    88   132   133    2
    89   138   139    1
    90   125   124    2
    91   122   115   am
    92    66    63    1
    93    66    67    1
    94    63    62    1
    95    62    56   am
    96    10     9    1
    97    27    28    1
    98    27    26    1
    99    61    59    1
   100    67    68   ar
   101    67    69   ar
   102     1     2    1
   103    56    55    1
   104    56    57    2
   105   115   116    2
   106   115   114    1
   107    55    54    1
   108    55    58    1
   109     2     3    1
   110    26    23    1
   111    23    22    1
   112    23    24    1
   113   139   140    2
   114     9     6    1
   115    25    24    2
   116   114   113    1
   117   114   117    1
   118   121   120    1
   119    59    58    1
   120    59    60    1
   121   120   119    1
   122     8     7    2
   123     6     7    1
   124     6     5    1
   125     3     4    2
   126   117   118    1
   127     7    13   am
   128   118   119    1
   129    13    14    1
   130    20    19   ar
   131    14    15    1
   132    14    17    1
   133    16    15    2
   134    19    21   ar
   135    19    18    1
   136    17    18    1
