@<TRIPOS>MOLECULE
tmp/3wjqA03.pdb
 91 87 0 0 0
SMALL
GASTEIGER

@<TRIPOS>ATOM
      1  N          4.1780   33.4340   31.3150 N.3   244  GLU244     -0.1245
      2  CA         3.2180   32.7760   30.4310 C.3   244  GLU244      0.1567
      3  C          2.2130   33.7510   29.8260 C.2   244  GLU244      0.2260
      4  O          1.8710   33.6470   28.6490 O.2   244  GLU244     -0.2867
      5  CB         2.4940   31.6320   31.1500 C.3   244  GLU244      0.0388
      6  CG         1.6090   30.8080   30.2220 C.3   244  GLU244      0.1160
      7  CD         1.2100   29.4630   30.7990 C.2   244  GLU244      0.3649
      8  OE1        1.3350   29.2740   32.0250 O.co2 244  GLU244     -0.2457
      9  OE2        0.7680   28.5880   30.0240 O.co2 244  GLU244     -0.2457
     10  N         -0.6510   34.5160   21.9390 N.3   249  ILE249     -0.1245
     11  CA        -1.3790   33.4020   21.3500 C.3   249  ILE249      0.1561
     12  C         -2.6480   33.9740   20.7220 C.2   249  ILE249      0.2260
     13  O         -3.3870   34.7240   21.3650 O.2   249  ILE249     -0.2867
     14  CB        -1.7470   32.3300   22.3950 C.3   249  ILE249      0.0252
     15  CG1       -0.5140   31.9020   23.1960 C.3   249  ILE249      0.0019
     16  CG2       -2.3920   31.1140   21.7290 C.3   249  ILE249      0.0019
     17  CD1       -0.7840   30.8140   24.2050 C.3   249  ILE249      0.0001
     18  N         -5.8290   29.5690   20.6440 N.3   254  ARG254     -0.1245
     19  CA        -6.0970   29.1080   21.9990 C.3   254  ARG254      0.1563
     20  C         -7.3480   28.2220   22.0390 C.2   254  ARG254      0.2260
     21  O         -7.3110   27.1090   22.5540 O.2   254  ARG254     -0.2867
     22  CB        -6.2480   30.3070   22.9390 C.3   254  ARG254      0.0307
     23  CG        -6.1010   29.9580   24.4100 C.3   254  ARG254      0.0489
     24  CD        -6.3460   31.1710   25.3440 C.3   254  ARG254      0.2205
     25  NE        -5.4260   32.2800   25.0780 N.pl3 254  ARG254     -0.0865
     26  CZ        -4.2260   32.4310   25.6330 C.cat 254  ARG254      0.5346
     27  NH1       -3.4800   33.4940   25.3390 N.pl3 254  ARG254      0.1354
     28  NH2       -3.7710   31.5210   26.4730 N.pl3 254  ARG254      0.1354
     29  N         -6.8440   24.9140   20.1850 N.3   257  SER257     -0.1202
     30  CA        -5.9240   24.0260   20.8870 C.3   257  SER257      0.2020
     31  C         -6.6280   23.3670   22.0760 C.2   257  SER257      0.2618
     32  O         -6.3670   22.2180   22.3980 O.2   257  SER257     -0.2717
     33  CB        -4.6570   24.7730   21.3340 C.3   257  SER257      0.2103
     34  OG        -4.9520   25.7400   22.3250 O.3   257  SER257     -0.2182
     35  N         -7.5480   24.0970   22.6980 N.am  258  GLU258     -0.1979
     36  CA        -8.3530   23.5400   23.7790 C.3   258  GLU258      0.1602
     37  C         -9.2550   22.4180   23.2590 C.2   258  GLU258      0.2287
     38  O         -9.3490   21.3540   23.8740 O.2   258  GLU258     -0.2864
     39  CB        -9.1970   24.6320   24.4450 C.3   258  GLU258      0.0415
     40  CG        -8.4090   25.6820   25.2260 C.3   258  GLU258      0.1163
     41  CD        -7.8150   25.1370   26.5140 C.2   258  GLU258      0.3649
     42  OE1       -8.2690   24.0710   26.9870 O.co2 258  GLU258     -0.2457
     43  OE2       -6.8890   25.7780   27.0570 O.co2 258  GLU258     -0.2457
     44  N         -7.0660   19.4550   22.4450 N.3   261  GLY261     -0.1210
     45  CA        -6.3130   18.9040   23.5520 C.3   261  GLY261      0.1956
     46  C         -4.8240   18.8590   23.2420 C.2   261  GLY261      0.2612
     47  O         -4.1390   17.9070   23.5930 O.2   261  GLY261     -0.2717
     48  N         -4.3420   19.9000   22.5750 N.am  262  ILE262     -0.1965
     49  CA        -2.9360   20.0060   22.1760 C.3   262  ILE262      0.1727
     50  C         -2.3670   21.3270   22.6770 C.2   262  ILE262      0.2617
     51  O         -3.0140   22.3700   22.5660 O.2   262  ILE262     -0.2715
     52  CB        -2.8120   19.9550   20.6340 C.3   262  ILE262      0.0290
     53  CG1       -3.2070   18.5720   20.1100 C.3   262  ILE262      0.0022
     54  CG2       -1.3840   20.2710   20.1920 C.3   262  ILE262      0.0023
     55  CD1       -3.3530   18.5210   18.5900 C.3   262  ILE262      0.0001
     56  N         -1.1580   21.3050   23.2320 N.am  263  SER263     -0.1936
     57  CA        -0.5510   22.5480   23.6940 C.3   263  SER263      0.2040
     58  C          0.0260   23.3600   22.5390 C.2   263  SER263      0.2485
     59  O          0.8280   22.8390   21.7620 O.2   263  SER263     -0.2729
     60  CB         0.5780   22.2650   24.6860 C.3   263  SER263      0.2129
     61  OG         1.1980   23.4890   25.0250 O.3   263  SER263     -0.2179
     62  N         -0.3580   24.6360   22.4250 N.am  264  PRO264     -0.2715
     63  CA         0.2130   25.4550   21.3490 C.3   264  PRO264      0.1536
     64  C          1.7220   25.6960   21.5160 C.2   264  PRO264      0.2598
     65  O          2.3600   26.1410   20.5640 O.2   264  PRO264     -0.2715
     66  CB        -0.5740   26.7720   21.4440 C.3   264  PRO264      0.0310
     67  CG        -1.1190   26.8000   22.8290 C.3   264  PRO264      0.0237
     68  CD        -1.3450   25.3830   23.2300 C.3   264  PRO264      0.0939
     69  N          2.2750   25.4180   22.6950 N.am  265  TYR265     -0.1974
     70  CA         3.7100   25.6390   22.9150 C.3   265  TYR265      0.1639
     71  C          4.5330   24.5080   22.3210 C.2   265  TYR265      0.2290
     72  O          5.7590   24.6510   22.1560 O.2   265  TYR265     -0.2864
     73  CB         4.0610   25.7270   24.4080 C.3   265  TYR265      0.0560
     74  CG         3.2690   26.7320   25.2140 C.ar  265  TYR265     -0.0198
     75  CD1        2.8670   27.9340   24.6640 C.ar  265  TYR265     -0.0009
     76  CD2        2.9270   26.4650   26.5340 C.ar  265  TYR265     -0.0009
     77  CE1        2.1370   28.8440   25.3990 C.ar  265  TYR265      0.0417
     78  CE2        2.2020   27.3750   27.2820 C.ar  265  TYR265      0.0417
     79  CZ         1.8070   28.5590   26.7060 C.ar  265  TYR265      0.1957
     80  OH         1.0760   29.4670   27.4410 O.3   265  TYR265     -0.2866
     81  N          6.3300   27.1440   37.2800 N.3   322  ARG322     -0.1245
     82  CA         6.4300   25.7150   36.9850 C.3   322  ARG322      0.1563
     83  C          7.3620   25.5260   35.7950 C.2   322  ARG322      0.2260
     84  O          7.7980   26.5040   35.1870 O.2   322  ARG322     -0.2867
     85  CB         5.0530   25.1150   36.6860 C.3   322  ARG322      0.0307
     86  CG         4.4820   25.4790   35.3180 C.3   322  ARG322      0.0489
     87  CD         3.0040   25.0940   35.2210 C.3   322  ARG322      0.2205
     88  NE         2.4860   25.1770   33.8560 N.pl3 322  ARG322     -0.0865
     89  CZ         2.0890   26.3050   33.2730 C.cat 322  ARG322      0.5346
     90  NH1        2.1580   27.4570   33.9310 N.pl3 322  ARG322      0.1354
     91  NH2        1.6260   26.2860   32.0280 N.pl3 322  ARG322      0.1354
@<TRIPOS>BOND
     1    55    53    1
     2    53    52    1
     3    29    30    1
     4    54    52    1
     5    65    64    2
     6    52    49    1
     7    18    19    1
     8    12    11    1
     9    12    13    2
    10    30    33    1
    11    30    31    1
    12    33    34    1
    13    63    66    1
    14    63    64    1
    15    63    62    1
    16    11    10    1
    17    11    14    1
    18    66    67    1
    19    64    69   am
    20    16    14    1
    21    59    58    2
    22    19    20    1
    23    19    22    1
    24    20    21    2
    25    31    32    2
    26    31    35   am
    27    72    71    2
    28    49    48    1
    29    49    50    1
    30    71    70    1
    31    14    15    1
    32    62    58   am
    33    62    68    1
    34    44    45    1
    35    58    57    1
    36    51    50    2
    37    48    46   am
    38    50    56   am
    39    69    70    1
    40    35    36    1
    41    67    68    1
    42    70    73    1
    43    22    23    1
    44    15    17    1
    45    56    57    1
    46    46    45    1
    47    46    47    2
    48    37    36    1
    49    37    38    2
    50    57    60    1
    51    36    39    1
    52    73    74    1
    53    23    24    1
    54    39    40    1
    55    75    74   ar
    56    75    77   ar
    57    60    61    1
    58    25    24    1
    59    25    26    2
    60    74    76   ar
    61    40    41    1
    62    27    26    1
    63    77    79   ar
    64    26    28    1
    65    41    42   ar
    66    41    43   ar
    67    76    78   ar
    68    79    78   ar
    69    79    80    1
    70     4     3    2
    71     3     2    1
    72     9     7   ar
    73     6     7    1
    74     6     5    1
    75     2     5    1
    76     2     1    1
    77     7     8   ar
    78    91    89    1
    79    89    88    2
    80    89    90    1
    81    88    87    1
    82    84    83    2
    83    87    86    1
    84    86    85    1
    85    83    82    1
    86    85    82    1
    87    82    81    1
