@<TRIPOS>MOLECULE
tmp/3wjrA03.pdb
 85 81 0 0 0
SMALL
GASTEIGER

@<TRIPOS>ATOM
      1  N         21.9850   34.2260   11.5140 N.3    87  GLY87      -0.1225
      2  CA        22.5130   35.5560   11.1970 C.3    87  GLY87       0.1811
      3  C         22.9070   35.7490    9.7360 C.2    87  GLY87       0.2280
      4  O         23.6620   36.6680    9.3920 O.2    87  GLY87      -0.2866
      5  N         22.2730   36.3900    5.6420 N.3    89  GLU89      -0.1245
      6  CA        21.4930   36.8750    4.5080 C.3    89  GLU89       0.1567
      7  C         21.3700   35.7580    3.4780 C.2    89  GLU89       0.2260
      8  O         22.3770   35.2110    3.0410 O.2    89  GLU89      -0.2867
      9  CB        22.2010   38.0620    3.8510 C.3    89  GLU89       0.0388
     10  CG        21.4370   38.5950    2.6330 C.3    89  GLU89       0.1160
     11  CD        22.1220   39.8200    2.0310 C.2    89  GLU89       0.3649
     12  OE1       23.2450   40.1490    2.4670 O.co2  89  GLU89      -0.2457
     13  OE2       21.5380   40.4550    1.1340 O.co2  89  GLU89      -0.2457
     14  N         25.1040   34.3140    3.6930 N.3   149  ILE149     -0.1245
     15  CA        26.3630   34.9150    4.1210 C.3   149  ILE149      0.1561
     16  C         26.1240   35.6970    5.3960 C.2   149  ILE149      0.2260
     17  O         25.2360   36.5590    5.4480 O.2   149  ILE149     -0.2867
     18  CB        26.9280   35.8580    3.0540 C.3   149  ILE149      0.0252
     19  CG1       27.2060   35.0920    1.7600 C.3   149  ILE149      0.0019
     20  CG2       28.2110   36.5360    3.5670 C.3   149  ILE149      0.0019
     21  CD1       28.1380   33.9170    1.9440 C.3   149  ILE149      0.0001
     22  N         27.9600   38.0780    8.4260 N.3   151  GLU151     -0.1245
     23  CA        29.1530   38.7840    8.8870 C.3   151  GLU151      0.1567
     24  C         29.5130   38.3180   10.2960 C.2   151  GLU151      0.2260
     25  O         30.6900   38.2740   10.6700 O.2   151  GLU151     -0.2867
     26  CB        28.9140   40.3110    8.8560 C.3   151  GLU151      0.0388
     27  CG        28.6080   40.8000    7.4500 C.3   151  GLU151      0.1160
     28  CD        27.1100   40.9350    7.2460 C.2   151  GLU151      0.3649
     29  OE1       26.3140   40.5880    8.1480 O.co2 151  GLU151     -0.2457
     30  OE2       26.7230   41.4150    6.1600 O.co2 151  GLU151     -0.2457
     31  N         13.5010   36.5660    7.3930 N.3   199  TRP199     -0.1241
     32  CA        14.7900   37.2540    7.3240 C.3   199  TRP199      0.1605
     33  C         14.6280   38.7590    7.5690 C.2   199  TRP199      0.2264
     34  O         15.4480   39.3690    8.2370 O.2   199  TRP199     -0.2867
     35  CB        15.4760   36.9870    5.9780 C.3   199  TRP199      0.0550
     36  CG        16.6450   37.9270    5.6850 C.ar  199  TRP199      0.0003
     37  CD1       16.7610   38.7740    4.6210 C.ar  199  TRP199      0.0946
     38  CD2       17.8420   38.0880    6.4560 C.ar  199  TRP199      0.0152
     39  NE1       17.9490   39.4650    4.6930 N.ar  199  TRP199     -0.2442
     40  CE2       18.6300   39.0610    5.8080 C.ar  199  TRP199      0.0810
     41  CE3       18.3210   37.5100    7.6370 C.ar  199  TRP199      0.0012
     42  CZ2       19.8790   39.4630    6.2930 C.ar  199  TRP199      0.0191
     43  CZ3       19.5630   37.9200    8.1240 C.ar  199  TRP199      0.0001
     44  CH2       20.3210   38.8830    7.4530 C.ar  199  TRP199      0.0015
     45  N         16.8620   40.8480   10.2670 N.3   203  LYS203     -0.1245
     46  CA        17.6930   41.9240    9.7190 C.3   203  LYS203      0.1561
     47  C         17.3500   43.2560   10.3710 C.2   203  LYS203      0.2260
     48  O         18.2370   44.0620   10.6750 O.2   203  LYS203     -0.2867
     49  CB        17.4420   42.0490    8.2150 C.3   203  LYS203      0.0271
     50  CG        18.3440   43.0400    7.4920 C.3   203  LYS203      0.0035
     51  CD        18.0050   43.0710    6.0040 C.3   203  LYS203      0.0206
     52  CE        18.9470   43.9890    5.2430 C.3   203  LYS203      0.1093
     53  NZ        18.5850   44.0640    3.8040 N.3   203  LYS203     -0.1314
     54  N         19.0280   43.4440   13.7450 N.3   206  ALA206     -0.1231
     55  CA        20.4720   43.6100   13.5910 C.3   206  ALA206      0.1694
     56  C         20.8440   45.0240   13.1350 C.2   206  ALA206      0.2591
     57  O         21.8350   45.6000   13.6080 O.2   206  ALA206     -0.2718
     58  CB        21.0360   42.5660   12.6170 C.3   206  ALA206      0.0304
     59  N         20.0520   45.5850   12.2260 N.am  207  GLU207     -0.1979
     60  CA        20.3100   46.9410   11.7450 C.3   207  GLU207      0.1602
     61  C         20.1160   47.9810   12.8450 C.2   207  GLU207      0.2287
     62  O         20.6770   49.0760   12.7790 O.2   207  GLU207     -0.2864
     63  CB        19.4300   47.2670   10.5380 C.3   207  GLU207      0.0415
     64  CG        19.8180   46.4750    9.3000 C.3   207  GLU207      0.1163
     65  CD        18.9360   46.7810    8.1170 C.2   207  GLU207      0.3649
     66  OE1       17.7780   47.1940    8.3290 O.co2 207  GLU207     -0.2457
     67  OE2       19.4040   46.6150    6.9730 O.co2 207  GLU207     -0.2457
     68  N         22.8010   45.9440   16.2380 N.3   210  GLY210     -0.1210
     69  CA        24.0650   45.3070   15.9060 C.3   210  GLY210      0.1956
     70  C         24.0720   43.8090   16.1710 C.2   210  GLY210      0.2611
     71  O         23.5010   43.3350   17.1580 O.2   210  GLY210     -0.2717
     72  N         24.7270   43.0520   15.2930 N.am  211  TRP211     -0.1976
     73  CA        24.8110   41.6080   15.4680 C.3   211  TRP211      0.1640
     74  C         25.3810   41.2070   16.8220 C.2   211  TRP211      0.2290
     75  O         24.9430   40.2250   17.4090 O.2   211  TRP211     -0.2864
     76  CB        25.6160   40.9520   14.3360 C.3   211  TRP211      0.0576
     77  CG        24.9170   40.9770   13.0150 C.ar  211  TRP211      0.0006
     78  CD1       25.2600   41.7130   11.9190 C.ar  211  TRP211      0.0946
     79  CD2       23.7480   40.2320   12.6490 C.ar  211  TRP211      0.0152
     80  NE1       24.3850   41.4670   10.8930 N.ar  211  TRP211     -0.2442
     81  CE2       23.4490   40.5600   11.3160 C.ar  211  TRP211      0.0810
     82  CE3       22.9390   39.3060   13.3170 C.ar  211  TRP211      0.0012
     83  CZ2       22.3660   40.0040   10.6390 C.ar  211  TRP211      0.0191
     84  CZ3       21.8590   38.7630   12.6480 C.ar  211  TRP211      0.0001
     85  CH2       21.5850   39.1090   11.3240 C.ar  211  TRP211      0.0015
@<TRIPOS>BOND
     1    13    11   ar
     2    19    21    1
     3    19    18    1
     4    11    12   ar
     5    11    10    1
     6    10     9    1
     7     8     7    2
     8    18    20    1
     9    18    15    1
    10     7     6    1
    11    14    15    1
    12    53    52    1
    13     9     6    1
    14    15    16    1
    15     6     5    1
    16    37    39   ar
    17    37    36   ar
    18    39    40   ar
    19    52    51    1
    20    16    17    2
    21    36    35    1
    22    36    38   ar
    23    40    42   ar
    24    40    38   ar
    25    35    32    1
    26    51    50    1
    27    30    28   ar
    28    42    44   ar
    29    38    41   ar
    30    67    65   ar
    31    28    27    1
    32    28    29   ar
    33    32    31    1
    34    32    33    1
    35    27    26    1
    36    44    43   ar
    37    50    49    1
    38    33    34    2
    39    41    43   ar
    40    65    66   ar
    41    65    64    1
    42    49    46    1
    43    22    23    1
    44    26    23    1
    45    23    24    1
    46    64    63    1
    47     4     3    2
    48    46    45    1
    49    46    47    1
    50     3     2    1
    51    24    25    2
    52    47    48    2
    53    63    60    1
    54    83    81   ar
    55    83    85   ar
    56    80    81   ar
    57    80    78   ar
    58     2     1    1
    59    81    79   ar
    60    85    84   ar
    61    60    59    1
    62    60    61    1
    63    78    77   ar
    64    59    56   am
    65    58    55    1
    66    84    82   ar
    67    79    77   ar
    68    79    82   ar
    69    62    61    2
    70    77    76    1
    71    56    55    1
    72    56    57    2
    73    55    54    1
    74    76    73    1
    75    72    73    1
    76    72    70   am
    77    73    74    1
    78    69    70    1
    79    69    68    1
    80    70    71    2
    81    74    75    2
