@<TRIPOS>MOLECULE
tmp/3wjrA04.pdb
 80 77 0 0 0
SMALL
GASTEIGER

@<TRIPOS>ATOM
      1  N          4.2390   33.5410   31.3750 N.3   244  GLU244     -0.1245
      2  CA         3.2300   32.9480   30.5070 C.3   244  GLU244      0.1567
      3  C          2.2930   33.9930   29.9170 C.2   244  GLU244      0.2260
      4  O          1.9440   33.9250   28.7400 O.2   244  GLU244     -0.2867
      5  CB         2.4360   31.8680   31.2530 C.3   244  GLU244      0.0388
      6  CG         1.3790   31.1680   30.3960 C.3   244  GLU244      0.1160
      7  CD         1.1860   29.7040   30.7760 C.2   244  GLU244      0.3649
      8  OE1        1.6430   29.3040   31.8670 O.co2 244  GLU244     -0.2457
      9  OE2        0.5840   28.9470   29.9810 O.co2 244  GLU244     -0.2457
     10  N         -0.4780   34.6640   22.0860 N.3   249  ILE249     -0.1245
     11  CA        -1.1940   33.5670   21.4610 C.3   249  ILE249      0.1561
     12  C         -2.4540   34.1440   20.8440 C.2   249  ILE249      0.2260
     13  O         -3.1880   34.8970   21.4950 O.2   249  ILE249     -0.2867
     14  CB        -1.5730   32.4740   22.4710 C.3   249  ILE249      0.0252
     15  CG1       -0.3220   31.9470   23.1820 C.3   249  ILE249      0.0019
     16  CG2       -2.2920   31.3170   21.7700 C.3   249  ILE249      0.0019
     17  CD1       -0.6220   31.1580   24.4180 C.3   249  ILE249      0.0001
     18  N         -5.6840   29.7690   20.7540 N.3   254  ARG254     -0.1245
     19  CA        -5.9030   29.3670   22.1390 C.3   254  ARG254      0.1563
     20  C         -7.1580   28.4860   22.2180 C.2   254  ARG254      0.2260
     21  O         -7.1360   27.3850   22.7770 O.2   254  ARG254     -0.2867
     22  CB        -6.0320   30.6160   23.0250 C.3   254  ARG254      0.0307
     23  CG        -5.9310   30.3590   24.5180 C.3   254  ARG254      0.0489
     24  CD        -6.0820   31.6540   25.3350 C.3   254  ARG254      0.2205
     25  NE        -4.9600   32.5940   25.2090 N.pl3 254  ARG254     -0.0865
     26  CZ        -3.8730   32.5700   25.9770 C.cat 254  ARG254      0.5346
     27  NH1       -3.7420   31.6400   26.9130 N.pl3 254  ARG254      0.1354
     28  NH2       -2.9120   33.4680   25.8070 N.pl3 254  ARG254      0.1354
     29  N         -6.6400   25.0620   20.4380 N.3   257  SER257     -0.1202
     30  CA        -5.7240   24.1900   21.1570 C.3   257  SER257      0.2020
     31  C         -6.4190   23.5340   22.3530 C.2   257  SER257      0.2618
     32  O         -6.1570   22.3850   22.6660 O.2   257  SER257     -0.2717
     33  CB        -4.4450   24.9300   21.5810 C.3   257  SER257      0.2103
     34  OG        -4.6810   25.8210   22.6490 O.3   257  SER257     -0.2182
     35  N         -7.3170   24.2670   22.9990 N.am  258  GLU258     -0.1979
     36  CA        -8.1070   23.7090   24.0940 C.3   258  GLU258      0.1602
     37  C         -8.9810   22.5700   23.5860 C.2   258  GLU258      0.2287
     38  O         -9.0410   21.4970   24.1940 O.2   258  GLU258     -0.2864
     39  CB        -8.9840   24.7910   24.7270 C.3   258  GLU258      0.0415
     40  CG        -8.2270   25.8330   25.5380 C.3   258  GLU258      0.1163
     41  CD        -7.7240   25.3040   26.8720 C.2   258  GLU258      0.3649
     42  OE1       -8.1060   24.1780   27.2670 O.co2 258  GLU258     -0.2457
     43  OE2       -6.9430   26.0230   27.5330 O.co2 258  GLU258     -0.2457
     44  N         -6.8230   19.6340   22.8550 N.3   261  GLY261     -0.1210
     45  CA        -6.0680   19.1060   23.9780 C.3   261  GLY261      0.1956
     46  C         -4.5610   19.0940   23.7360 C.2   261  GLY261      0.2612
     47  O         -3.8710   18.1600   24.1330 O.2   261  GLY261     -0.2717
     48  N         -4.0550   20.1360   23.0820 N.am  262  ILE262     -0.1965
     49  CA        -2.6300   20.2370   22.7590 C.3   262  ILE262      0.1727
     50  C         -2.1400   21.6250   23.1390 C.2   262  ILE262      0.2617
     51  O         -2.8700   22.6010   22.9710 O.2   262  ILE262     -0.2715
     52  CB        -2.3890   19.9780   21.2470 C.3   262  ILE262      0.0290
     53  CG1       -2.4040   18.4780   20.9660 C.3   262  ILE262      0.0022
     54  CG2       -1.0700   20.5520   20.7830 C.3   262  ILE262      0.0023
     55  CD1       -3.5770   18.0460   20.1450 C.3   262  ILE262      0.0001
     56  N         -0.9250   21.7270   23.6730 N.am  263  SER263     -0.1936
     57  CA        -0.3840   23.0400   24.0220 C.3   263  SER263      0.2040
     58  C          0.1710   23.7460   22.7930 C.2   263  SER263      0.2485
     59  O          0.9350   23.1540   22.0270 O.2   263  SER263     -0.2729
     60  CB         0.7290   22.9240   25.0690 C.3   263  SER263      0.2129
     61  OG         1.3250   24.1960   25.2940 O.3   263  SER263     -0.2179
     62  N         -0.1970   25.0190   22.6100 N.am  264  PRO264     -0.2715
     63  CA         0.3850   25.8250   21.5320 C.3   264  PRO264      0.1536
     64  C          1.9080   26.0040   21.6790 C.2   264  PRO264      0.2598
     65  O          2.5610   26.3460   20.6970 O.2   264  PRO264     -0.2715
     66  CB        -0.3380   27.1680   21.6620 C.3   264  PRO264      0.0310
     67  CG        -0.9670   27.1620   23.0180 C.3   264  PRO264      0.0237
     68  CD        -1.2590   25.7440   23.3310 C.3   264  PRO264      0.0939
     69  N          2.4590   25.7670   22.8680 N.am  265  TYR265     -0.1974
     70  CA         3.9120   25.9090   23.0690 C.3   265  TYR265      0.1639
     71  C          4.6750   24.7280   22.5030 C.2   265  TYR265      0.2290
     72  O          5.9020   24.7930   22.3730 O.2   265  TYR265     -0.2864
     73  CB         4.2830   26.0210   24.5530 C.3   265  TYR265      0.0560
     74  CG         3.5220   27.0620   25.3420 C.ar  265  TYR265     -0.0198
     75  CD1        3.1270   28.2540   24.7630 C.ar  265  TYR265     -0.0009
     76  CD2        3.1930   26.8370   26.6740 C.ar  265  TYR265     -0.0009
     77  CE1        2.4290   29.2000   25.4860 C.ar  265  TYR265      0.0417
     78  CE2        2.4930   27.7740   27.4070 C.ar  265  TYR265      0.0417
     79  CZ         2.1100   28.9510   26.8070 C.ar  265  TYR265      0.1957
     80  OH         1.4100   29.8890   27.5270 O.3   265  TYR265     -0.2866
@<TRIPOS>BOND
     1    55    53    1
     2    29    30    1
     3    65    64    2
     4    18    19    1
     5    54    52    1
     6    12    11    1
     7    12    13    2
     8    53    52    1
     9    30    33    1
    10    30    31    1
    11    52    49    1
    12    11    10    1
    13    11    14    1
    14    63    66    1
    15    63    64    1
    16    63    62    1
    17    33    34    1
    18    66    67    1
    19    64    69   am
    20    16    14    1
    21    59    58    2
    22    19    20    1
    23    19    22    1
    24    20    21    2
    25    31    32    2
    26    31    35   am
    27    72    71    2
    28    14    15    1
    29    71    70    1
    30    62    58   am
    31    62    68    1
    32    49    48    1
    33    49    50    1
    34    58    57    1
    35    44    45    1
    36    69    70    1
    37    51    50    2
    38    35    36    1
    39    67    68    1
    40    22    23    1
    41    70    73    1
    42    48    46   am
    43    50    56   am
    44    15    17    1
    45    37    36    1
    46    37    38    2
    47    56    57    1
    48    46    45    1
    49    46    47    2
    50    57    60    1
    51    36    39    1
    52    23    24    1
    53    73    74    1
    54    39    40    1
    55    75    74   ar
    56    75    77   ar
    57    60    61    1
    58    25    24    1
    59    25    26    2
    60    74    76   ar
    61    77    79   ar
    62    40    41    1
    63    28    26    1
    64    26    27    1
    65    76    78   ar
    66    79    78   ar
    67    79    80    1
    68    41    42   ar
    69    41    43   ar
    70     4     3    2
    71     3     2    1
    72     9     7   ar
    73     6     7    1
    74     6     5    1
    75     2     5    1
    76     2     1    1
    77     7     8   ar
