@<TRIPOS>MOLECULE
tmp/3wjrA02.pdb
 115 106 0 0 0
SMALL
GASTEIGER

@<TRIPOS>ATOM
      1  N         11.3720   16.0210   16.1500 N.3    10  GLY10      -0.1225
      2  CA        12.0360   17.2520   16.5490 C.3    10  GLY10       0.1811
      3  C         12.1410   17.5060   18.0400 C.2    10  GLY10       0.2280
      4  O         12.5320   18.5960   18.4530 O.2    10  GLY10      -0.2866
      5  N         14.1290   12.4490   19.1250 N.3    14  MET14      -0.1230
      6  CA        14.9980   12.7210   17.9860 C.3    14  MET14       0.1702
      7  C         16.3950   13.1120   18.4560 C.2    14  MET14       0.2592
      8  O         17.4020   12.6840   17.8850 O.2    14  MET14      -0.2718
      9  CB        14.4130   13.8200   17.1060 C.3    14  MET14       0.0401
     10  CG        15.2180   14.0460   15.8560 C.3    14  MET14       0.0596
     11  SD        14.4170   15.2060   14.7560 S.3    14  MET14      -0.1393
     12  CE        15.2750   16.7050   15.2320 C.3    14  MET14       0.0692
     13  N         16.4530   13.9180   19.5100 N.am   15  GLU15      -0.1979
     14  CA        17.7320   14.3380   20.0760 C.3    15  GLU15       0.1602
     15  C         18.5730   13.1210   20.4890 C.2    15  GLU15       0.2287
     16  O         19.7960   13.0970   20.3040 O.2    15  GLU15      -0.2864
     17  CB        17.5090   15.2660   21.2710 C.3    15  GLU15       0.0415
     18  CG        18.7340   16.0910   21.6510 C.3    15  GLU15       0.1163
     19  CD        18.9780   17.2600   20.7080 C.2    15  GLU15       0.3649
     20  OE1       18.1520   17.4880   19.7910 O.co2  15  GLU15      -0.2457
     21  OE2       19.9960   17.9630   20.8910 O.co2  15  GLU15      -0.2457
     22  N         20.0020   11.6070   17.3130 N.3    18  LEU18      -0.1245
     23  CA        21.0790   12.4550   16.8150 C.3    18  LEU18       0.1561
     24  C         22.3770   12.2230   17.5810 C.2    18  LEU18       0.2260
     25  O         23.4310   12.0310   16.9850 O.2    18  LEU18      -0.2867
     26  CB        20.6800   13.9300   16.8920 C.3    18  LEU18       0.0270
     27  CG        19.5830   14.3140   15.8950 C.3    18  LEU18       0.0019
     28  CD1       19.0810   15.7300   16.1630 C.3    18  LEU18       0.0001
     29  CD2       20.1120   14.1880   14.4700 C.3    18  LEU18       0.0001
     30  N         23.7180    9.4150   14.9160 N.3    22  ILE22      -0.1245
     31  CA        24.2840   10.2290   13.8290 C.3    22  ILE22       0.1561
     32  C         25.6510   10.8270   14.1880 C.2    22  ILE22       0.2260
     33  O         26.6390   10.6630   13.4570 O.2    22  ILE22      -0.2867
     34  CB        23.3090   11.3480   13.3860 C.3    22  ILE22       0.0252
     35  CG1       22.1750   10.7720   12.5320 C.3    22  ILE22       0.0019
     36  CG2       24.0400   12.3990   12.5600 C.3    22  ILE22       0.0019
     37  CD1       21.1070   10.0280   13.2920 C.3    22  ILE22       0.0001
     38  N         29.1750    9.5490   12.2210 N.3    26  LEU26      -0.1245
     39  CA        29.8880   10.4600   11.3220 C.3    26  LEU26       0.1561
     40  C         31.1160   11.0080   12.0330 C.2    26  LEU26       0.2260
     41  O         31.0510   11.3330   13.2170 O.2    26  LEU26      -0.2867
     42  CB        28.9600   11.6030   10.8660 C.3    26  LEU26       0.0270
     43  CG        27.6920   11.1220   10.1340 C.3    26  LEU26       0.0019
     44  CD1       26.8640   12.3060    9.6240 C.3    26  LEU26       0.0001
     45  CD2       28.0630   10.2030    8.9720 C.3    26  LEU26       0.0001
     46  N         28.3650   19.9120   12.7670 N.3    36  LEU36      -0.1245
     47  CA        27.2650   19.0110   13.0860 C.3    36  LEU36       0.1561
     48  C         27.0960   18.8020   14.5880 C.2    36  LEU36       0.2260
     49  O         25.9690   18.7190   15.0840 O.2    36  LEU36      -0.2867
     50  CB        27.4450   17.6640   12.3820 C.3    36  LEU36       0.0270
     51  CG        26.1840   16.8130   12.2380 C.3    36  LEU36       0.0019
     52  CD1       25.2030   17.5480   11.3380 C.3    36  LEU36       0.0001
     53  CD2       26.5140   15.4500   11.6560 C.3    36  LEU36       0.0001
     54  N         24.6880   20.8930   16.5440 N.3    39  LEU39      -0.1231
     55  CA        23.2700   20.6680   16.2680 C.3    39  LEU39       0.1693
     56  C         22.4720   21.9740   16.2050 C.2    39  LEU39       0.2592
     57  O         21.3590   22.0650   16.7350 O.2    39  LEU39      -0.2718
     58  CB        22.6700   19.7100   17.2990 C.3    39  LEU39       0.0284
     59  CG        23.2390   18.2860   17.2590 C.3    39  LEU39       0.0019
     60  CD1       22.6330   17.4600   18.3820 C.3    39  LEU39       0.0001
     61  CD2       22.9590   17.6410   15.9110 C.3    39  LEU39       0.0001
     62  N         23.0420   22.9780   15.5430 N.am   40  ASP40      -0.1960
     63  CA        22.4110   24.2900   15.4450 C.3    40  ASP40       0.1840
     64  C         21.5010   24.3180   14.2140 C.2    40  ASP40       0.2622
     65  O         21.3510   23.3100   13.5120 O.2    40  ASP40      -0.2715
     66  CB        23.4900   25.3900   15.3650 C.3    40  ASP40       0.1450
     67  CG        23.0550   26.7000   16.0100 C.2    40  ASP40       0.3671
     68  OD1       21.8350   27.0000   16.0140 O.co2  40  ASP40      -0.2456
     69  OD2       23.9470   27.4420   16.5020 O.co2  40  ASP40      -0.2456
     70  N         20.8900   25.4650   13.9500 N.am   41  ASP41      -0.1957
     71  CA        19.9670   25.5960   12.8160 C.3    41  ASP41       0.1840
     72  C         20.6730   25.4320   11.4660 C.2    41  ASP41       0.2622
     73  O         20.0550   25.0380   10.4800 O.2    41  ASP41      -0.2715
     74  CB        19.2500   26.9440   12.8820 C.3    41  ASP41       0.1450
     75  CG        18.4540   27.1100   14.1670 C.2    41  ASP41       0.3671
     76  OD1       17.3120   26.6140   14.2230 O.co2  41  ASP41      -0.2456
     77  OD2       18.9690   27.7320   15.1210 O.co2  41  ASP41      -0.2456
     78  N         21.9710   25.7230   11.4320 N.am   42  GLY42      -0.1954
     79  CA        22.7760   25.4700   10.2430 C.3    42  GLY42       0.1869
     80  C         24.2440   25.3600   10.6090 C.2    42  GLY42       0.2309
     81  O         24.5870   25.3920   11.7910 O.2    42  GLY42      -0.2863
     82  N         19.8650   22.6040    5.4980 N.3    56  ILE56      -0.1231
     83  CA        18.9950   21.7650    4.6650 C.3    56  ILE56       0.1692
     84  C         17.7810   21.3280    5.4630 C.2    56  ILE56       0.2592
     85  O         17.8550   21.1680    6.6820 O.2    56  ILE56      -0.2718
     86  CB        19.7430   20.5430    4.0720 C.3    56  ILE56       0.0266
     87  CG1       18.9260   19.8840    2.9500 C.3    56  ILE56       0.0019
     88  CG2       20.0740   19.5120    5.1650 C.3    56  ILE56       0.0020
     89  CD1       19.7690   18.8780    2.1030 C.3    56  ILE56       0.0001
     90  N         16.6500   21.1880    4.7880 N.am   57  ASP57      -0.1974
     91  CA        15.4230   20.7710    5.4690 C.3    57  ASP57       0.1709
     92  C         14.5590   19.9790    4.5140 C.2    57  ASP57       0.2293
     93  O         14.3470   20.4090    3.3790 O.2    57  ASP57      -0.2864
     94  CB        14.6230   21.9960    5.9030 C.3    57  ASP57       0.1436
     95  CG        15.3250   22.8130    6.9640 C.2    57  ASP57       0.3671
     96  OD1       15.2300   22.4470    8.1560 O.co2  57  ASP57      -0.2456
     97  OD2       15.9660   23.8260    6.6030 O.co2  57  ASP57      -0.2456
     98  N         10.5580   25.6130   15.0280 N.3   221  THR221     -0.1203
     99  CA         9.7560   24.7150   14.2160 C.3   221  THR221      0.1994
    100  C          9.3860   23.4670   15.0310 C.2   221  THR221      0.2617
    101  O          8.6540   23.5670   16.0200 O.2   221  THR221     -0.2717
    102  CB        10.4830   24.3730   12.9030 C.3   221  THR221      0.1784
    103  OG1       11.8330   23.9770   13.1920 O.3   221  THR221     -0.2211
    104  CG2       10.5250   25.6040   12.0150 C.3   221  THR221      0.0376
    105  N          9.8860   22.3000   14.6450 N.am  222  ARG222     -0.1979
    106  CA         9.4710   21.0540   15.3190 C.3   222  ARG222      0.1597
    107  C          9.5460   21.0600   16.8570 C.2   222  ARG222      0.2287
    108  O         10.5580   21.4250   17.4460 O.2   222  ARG222     -0.2864
    109  CB        10.2160   19.8430   14.7500 C.3   222  ARG222      0.0334
    110  CG         9.5000   19.1830   13.5810 C.3   222  ARG222      0.0492
    111  CD        10.2670   17.9660   13.0730 C.3   222  ARG222      0.2205
    112  NE        11.5810   18.3290   12.5480 N.pl3 222  ARG222     -0.0865
    113  CZ        12.4630   17.4480   12.0870 C.cat 222  ARG222      0.5346
    114  NH1       12.1670   16.1590   12.0940 N.pl3 222  ARG222      0.1354
    115  NH2       13.6360   17.8540   11.6230 N.pl3 222  ARG222      0.1354
@<TRIPOS>BOND
     1    89    87    1
     2    87    86    1
     3    93    92    2
     4    86    83    1
     5    86    88    1
     6    92    91    1
     7    83    84    1
     8    83    82    1
     9    90    84   am
    10    90    91    1
    11    84    85    2
    12    91    94    1
    13    94    95    1
    14    97    95   ar
    15    95    96   ar
    16    45    43    1
    17    44    43    1
    18    43    42    1
    19    79    80    1
    20    79    78    1
    21    73    72    2
    22    80    81    2
    23    42    39    1
    24    39    40    1
    25    39    38    1
    26    52    51    1
    27    78    72   am
    28    72    71    1
    29   115   113    1
    30    53    51    1
    31   104   102    1
    32    40    41    2
    33   113   114    1
    34   113   112    2
    35    51    50    1
    36    50    47    1
    37    35    37    1
    38    35    34    1
    39   112   111    1
    40    36    34    1
    41    46    47    1
    42    71    74    1
    43    71    70    1
    44    74    75    1
    45   102   103    1
    46   102    99    1
    47   111   110    1
    48    47    48    1
    49    34    31    1
    50    33    32    2
    51    65    64    2
    52   110   109    1
    53    31    32    1
    54    31    30    1
    55    70    64   am
    56    75    76   ar
    57    75    77   ar
    58    64    63    1
    59    99    98    1
    60    99   100    1
    61    29    27    1
    62    48    49    2
    63   105   100   am
    64   105   106    1
    65   109   106    1
    66    11    12    1
    67    11    10    1
    68   100   101    2
    69   106   107    1
    70    66    63    1
    71    66    67    1
    72    63    62    1
    73    62    56   am
    74    10     9    1
    75    27    28    1
    76    27    26    1
    77    61    59    1
    78    67    68   ar
    79    67    69   ar
    80     1     2    1
    81    56    55    1
    82    56    57    2
    83    55    54    1
    84    55    58    1
    85     2     3    1
    86    23    26    1
    87    23    22    1
    88    23    24    1
    89   107   108    2
    90    25    24    2
    91     9     6    1
    92    59    58    1
    93    59    60    1
    94     8     7    2
    95     6     7    1
    96     6     5    1
    97     3     4    2
    98     7    13   am
    99    13    14    1
   100    20    19   ar
   101    14    15    1
   102    14    17    1
   103    16    15    2
   104    19    21   ar
   105    19    18    1
   106    17    18    1
