@<TRIPOS>MOLECULE
tmp/3wjxA00.pdb
 138 128 0 0 0
SMALL
GASTEIGER

@<TRIPOS>ATOM
      1  N         23.6200   35.1000   33.0040 N.3     8  ALA8       -0.1245
      2  CA        23.5730   36.3290   33.8050 C.3     8  ALA8        0.1562
      3  C         24.7630   36.3300   34.7460 C.2     8  ALA8        0.2260
      4  O         24.7570   35.6540   35.7790 O.2     8  ALA8       -0.2867
      5  CB        22.2730   36.4140   34.5790 C.3     8  ALA8        0.0290
      6  N         26.4580   37.7840   37.3540 N.3    10  ASP10      -0.1239
      7  CA        26.3080   38.7260   38.4680 C.3    10  ASP10       0.1674
      8  C         27.2360   38.4320   39.6330 C.2    10  ASP10       0.2266
      9  O         27.0090   38.9580   40.7350 O.2    10  ASP10      -0.2867
     10  CB        24.8640   38.7760   38.9560 C.3    10  ASP10       0.1410
     11  CG        23.9130   39.2190   37.8820 C.2    10  ASP10       0.3668
     12  OD1       24.1740   40.2640   37.2290 O.co2  10  ASP10      -0.2456
     13  OD2       22.8710   38.5350   37.7150 O.co2  10  ASP10      -0.2456
     14  N         25.1360   38.2650   29.7240 N.3    32  LYS32      -0.1245
     15  CA        24.4870   39.4630   30.2400 C.3    32  LYS32       0.1561
     16  C         25.3150   39.9490   31.4270 C.2    32  LYS32       0.2260
     17  O         25.5230   39.1960   32.4100 O.2    32  LYS32      -0.2867
     18  CB        23.0610   39.1140   30.6600 C.3    32  LYS32       0.0271
     19  CG        22.2580   40.3410   31.1000 C.3    32  LYS32       0.0035
     20  CD        20.8300   40.0000   31.4810 C.3    32  LYS32       0.0206
     21  CE        20.6910   39.3630   32.8690 C.3    32  LYS32       0.1093
     22  NZ        21.1870   40.2530   33.9540 N.3    32  LYS32      -0.1314
     23  N         22.8290   44.7800   31.2100 N.3    60  ASP60      -0.1239
     24  CA        21.5520   44.7880   31.8980 C.3    60  ASP60       0.1674
     25  C         21.5090   45.9410   32.8760 C.2    60  ASP60       0.2266
     26  O         21.7050   45.7760   34.0880 O.2    60  ASP60      -0.2867
     27  CB        21.2960   43.4640   32.6140 C.3    60  ASP60       0.1410
     28  CG        19.9010   43.3830   33.1840 C.2    60  ASP60       0.3668
     29  OD1       19.0940   44.3260   33.0020 O.co2  60  ASP60      -0.2456
     30  OD2       19.6070   42.3530   33.8490 O.co2  60  ASP60      -0.2456
     31  N         18.9600   48.2820   33.0000 N.3    62  LYS62      -0.1245
     32  CA        17.5590   48.6540   33.3010 C.3    62  LYS62       0.1561
     33  C         17.3720   50.1640   33.3230 C.2    62  LYS62       0.2260
     34  O         16.8210   50.7630   34.2490 O.2    62  LYS62      -0.2867
     35  CB        17.0620   47.9760   34.5630 C.3    62  LYS62       0.0271
     36  CG        17.0710   46.4680   34.4260 C.3    62  LYS62       0.0035
     37  CD        16.5170   45.8680   35.6840 C.3    62  LYS62       0.0206
     38  CE        16.4740   44.3770   35.5720 C.3    62  LYS62       0.1093
     39  NZ        17.8670   43.8770   35.5330 N.3    62  LYS62      -0.1314
     40  N         19.5610   46.7790   28.1350 N.3    86  ILE86      -0.1245
     41  CA        18.1960   46.5940   28.6290 C.3    86  ILE86       0.1561
     42  C         17.7190   47.8750   29.2670 C.2    86  ILE86       0.2260
     43  O         18.4150   48.4520   30.1260 O.2    86  ILE86      -0.2867
     44  CB        18.1350   45.4160   29.6320 C.3    86  ILE86       0.0252
     45  CG1       18.4850   44.1090   28.9040 C.3    86  ILE86       0.0019
     46  CG2       16.7670   45.3300   30.3220 C.3    86  ILE86       0.0019
     47  CD1       18.6790   42.8750   29.7810 C.3    86  ILE86       0.0001
     48  N         12.4340   46.0730   28.7040 N.3   113  LEU113     -0.1245
     49  CA        11.9280   45.3130   29.8470 C.3   113  LEU113      0.1561
     50  C         10.4910   45.7550   30.1220 C.2   113  LEU113      0.2260
     51  O         10.2330   46.9270   30.4340 O.2   113  LEU113     -0.2867
     52  CB        12.8450   45.5460   31.0470 C.3   113  LEU113      0.0270
     53  CG        12.4460   44.9420   32.3990 C.3   113  LEU113      0.0019
     54  CD1       12.2070   43.4360   32.3190 C.3   113  LEU113      0.0001
     55  CD2       13.5470   45.2480   33.3940 C.3   113  LEU113      0.0001
     56  N          7.7450   43.5610   31.8910 N.3   115  GLU115     -0.1231
     57  CA         7.1920   43.0540   33.1440 C.3   115  GLU115      0.1699
     58  C          8.3240   42.2670   33.7900 C.2   115  GLU115      0.2592
     59  O          8.9470   41.4120   33.1530 O.2   115  GLU115     -0.2718
     60  CB         5.9460   42.1270   32.9910 C.3   115  GLU115      0.0402
     61  CG         5.5160   41.5360   34.3500 C.3   115  GLU115      0.1161
     62  CD         4.1420   40.8650   34.4100 C.2   115  GLU115      0.3649
     63  OE1        3.9700   39.9200   35.2160 O.co2 115  GLU115     -0.2457
     64  OE2        3.2140   41.2910   33.7040 O.co2 115  GLU115     -0.2457
     65  N          8.5640   42.5380   35.0640 N.am  116  MET116     -0.1965
     66  CA         9.6660   41.9370   35.8000 C.3   116  MET116      0.1736
     67  C          9.2590   40.6110   36.4480 C.2   116  MET116      0.2617
     68  O          8.0700   40.3040   36.5940 O.2   116  MET116     -0.2715
     69  CB        10.1770   42.9120   36.8490 C.3   116  MET116      0.0427
     70  CG        10.9580   44.0440   36.2290 C.3   116  MET116      0.0599
     71  SD        11.6380   45.1770   37.4180 S.3   116  MET116     -0.1393
     72  CE        12.9820   44.2160   38.1060 C.3   116  MET116      0.0692
     73  N         10.2660   39.8420   36.8640 N.am  117  SER117     -0.1936
     74  CA        10.0580   38.4650   37.2960 C.3   117  SER117      0.2055
     75  C          9.8100   38.2740   38.7870 C.2   117  SER117      0.2643
     76  O          9.3630   37.1840   39.1930 O.2   117  SER117     -0.2714
     77  CB        11.2410   37.6090   36.8720 C.3   117  SER117      0.2130
     78  OG        12.4380   38.0980   37.4720 O.3   117  SER117     -0.2179
     79  N         10.1270   39.2570   39.6260 N.am  118  HIS118     -0.1973
     80  CA        10.0670   39.0900   41.0810 C.3   118  HIS118      0.1656
     81  C          8.6360   39.3730   41.6030 C.2   118  HIS118      0.2291
     82  O          7.8190   39.9930   40.9230 O.2   118  HIS118     -0.2864
     83  CB        11.0920   40.0250   41.7310 C.3   118  HIS118      0.0771
     84  CG        10.7900   41.4560   41.4890 C.ar  118  HIS118      0.0820
     85  ND1       10.7680   42.0090   40.2200 N.ar  118  HIS118     -0.2267
     86  CD2       10.4510   42.4390   42.3530 C.ar  118  HIS118      0.1154
     87  CE1       10.4090   43.2800   40.3330 C.ar  118  HIS118      0.1986
     88  NE2       10.2300   43.5660   41.6120 N.ar  118  HIS118     -0.2212
     89  N         12.1170   41.8590   27.0310 N.3   145  VAL145     -0.1231
     90  CA        12.4080   41.0310   28.2040 C.3   145  VAL145      0.1692
     91  C         11.1160   40.8600   28.9840 C.2   145  VAL145      0.2593
     92  O         10.4440   41.8440   29.2910 O.2   145  VAL145     -0.2718
     93  CB        13.4800   41.6840   29.1090 C.3   145  VAL145      0.0266
     94  CG1       13.8730   40.7200   30.2250 C.3   145  VAL145      0.0020
     95  CG2       14.6930   42.1440   28.3130 C.3   145  VAL145      0.0020
     96  N         10.7790   39.6180   29.3320 N.am  146  GLY146     -0.1943
     97  CA         9.6080   39.3570   30.1540 C.3   146  GLY146      0.1998
     98  C          9.8530   38.1240   31.0260 C.2   146  GLY146      0.2480
     99  O         10.8560   37.4120   30.8580 O.2   146  GLY146     -0.2729
    100  N          8.9320   37.8380   31.9560 N.am  147  PRO147     -0.2726
    101  CA         9.2600   37.0160   33.1430 C.3   147  PRO147      0.1402
    102  C          9.0290   35.5130   33.0120 C.2   147  PRO147      0.2269
    103  O          7.9160   35.0600   32.7360 O.2   147  PRO147     -0.2865
    104  CB         8.3040   37.5850   34.1850 C.3   147  PRO147      0.0296
    105  CG         7.1040   37.9990   33.4080 C.3   147  PRO147      0.0237
    106  CD         7.6630   38.5640   32.1270 C.3   147  PRO147      0.0939
    107  N         14.3180   36.2240   32.0170 N.3   170  PRO170     -0.2102
    108  CA        14.9680   35.8560   33.2690 C.3   170  PRO170      0.1504
    109  C         13.9670   35.3040   34.2760 C.2   170  PRO170      0.2576
    110  O         12.7410   35.4740   34.1290 O.2   170  PRO170     -0.2718
    111  CB        15.5260   37.1950   33.7570 C.3   170  PRO170      0.0282
    112  CG        14.4210   38.1430   33.3740 C.3   170  PRO170      0.0208
    113  CD        13.8820   37.6400   32.0420 C.3   170  PRO170      0.0893
    114  N         14.5180   34.7220   35.3390 N.am  171  GLY171     -0.1957
    115  CA        13.7240   34.0900   36.3750 C.3   171  GLY171      0.1869
    116  C         13.7360   32.5740   36.3200 C.2   171  GLY171      0.2309
    117  O         12.9960   31.9310   37.0520 O.2   171  GLY171     -0.2863
    118  N         14.7670   31.7360   40.7160 N.3   175  GLN175     -0.1245
    119  CA        13.4970   32.4060   40.9840 C.3   175  GLN175      0.1566
    120  C         12.2780   31.5100   40.7910 C.2   175  GLN175      0.2260
    121  O         11.1580   31.9460   41.0520 O.2   175  GLN175     -0.2867
    122  CB        13.3670   33.6640   40.1260 C.3   175  GLN175      0.0367
    123  CG        14.4070   34.7260   40.4290 C.3   175  GLN175      0.0905
    124  CD        14.2540   35.9380   39.5300 C.2   175  GLN175      0.2608
    125  OE1       13.1810   36.5480   39.4950 O.2   175  GLN175     -0.2717
    126  NE2       15.2780   36.2630   38.7720 N.am  175  GLN175     -0.0878
    127  N         17.4660   33.5570   30.2220 N.3   190  ILE190     -0.1245
    128  CA        18.5610   34.0760   31.0160 C.3   190  ILE190      0.1561
    129  C         18.6660   33.2440   32.2780 C.2   190  ILE190      0.2260
    130  O         17.6460   33.0150   32.9450 O.2   190  ILE190     -0.2867
    131  CB        18.2550   35.5300   31.4000 C.3   190  ILE190      0.0252
    132  CG1       18.2750   36.4300   30.1570 C.3   190  ILE190      0.0019
    133  CG2       19.2620   36.0390   32.4210 C.3   190  ILE190      0.0019
    134  CD1       17.5490   37.7430   30.3560 C.3   190  ILE190      0.0001
    135  N         21.2110   32.9230   35.7840 N.3   192  GLY192     -0.1225
    136  CA        22.3080   33.4110   36.6140 C.3   192  GLY192      0.1811
    137  C         22.7100   32.3850   37.6620 C.2   192  GLY192      0.2280
    138  O         23.5260   31.4920   37.3860 O.2   192  GLY192     -0.2866
@<TRIPOS>BOND
     1    89    90    1
     2    40    41    1
     3    90    91    1
     4    90    93    1
     5    95    93    1
     6    41    42    1
     7    41    44    1
     8    48    49    1
     9    45    44    1
    10    45    47    1
    11    91    92    2
    12    91    96   am
    13    93    94    1
    14    42    43    2
    15    96    97    1
    16    44    46    1
    17    14    15    1
    18    49    50    1
    19    49    52    1
    20    50    51    2
    21    97    98    1
    22   132   134    1
    23   132   131    1
    24   127   128    1
    25    15    18    1
    26    15    16    1
    27    18    19    1
    28    99    98    2
    29   128   131    1
    30   128   129    1
    31    98   100   am
    32    52    53    1
    33    19    20    1
    34    23    24    1
    35   131   133    1
    36    16    17    2
    37    20    21    1
    38    56    57    1
    39    24    27    1
    40    24    25    1
    41   100   106    1
    42   100   101    1
    43   107   113    1
    44   107   108    1
    45   113   112    1
    46   106   105    1
    47   129   130    2
    48    54    53    1
    49    53    55    1
    50    27    28    1
    51   103   102    2
    52    21    22    1
    53    25    26    2
    54    60    57    1
    55    60    61    1
    56    31    32    1
    57    29    28   ar
    58     1     2    1
    59   102   101    1
    60   101   104    1
    61    57    58    1
    62    59    58    2
    63    28    30   ar
    64   108   111    1
    65   108   109    1
    66    32    33    1
    67    32    35    1
    68    33    34    2
    69   112   111    1
    70   105   104    1
    71    64    62   ar
    72    58    65   am
    73     2     5    1
    74     2     3    1
    75   110   109    2
    76   109   114   am
    77    61    62    1
    78    62    63   ar
    79    36    35    1
    80    36    37    1
    81     3     4    2
    82    65    66    1
    83   114   115    1
    84    39    38    1
    85    38    37    1
    86   135   136    1
    87    66    67    1
    88    66    69    1
    89    70    69    1
    90    70    71    1
    91   116   115    1
    92   116   117    2
    93    67    68    2
    94    67    73   am
    95   136   137    1
    96    73    74    1
    97    77    74    1
    98    77    78    1
    99    12    11   ar
   100    74    75    1
   101     6     7    1
   102   138   137    2
   103    71    72    1
   104    13    11   ar
   105    11    10    1
   106     7    10    1
   107     7     8    1
   108   126   124   am
   109    75    76    2
   110    75    79   am
   111   125   124    2
   112   124   123    1
   113    79    80    1
   114     8     9    2
   115   122   123    1
   116   122   119    1
   117    85    87   ar
   118    85    84   ar
   119    87    88   ar
   120   118   119    1
   121   120   119    1
   122   120   121    2
   123    82    81    2
   124    80    81    1
   125    80    83    1
   126    84    83    1
   127    84    86   ar
   128    88    86   ar
