@<TRIPOS>MOLECULE
tmp/3wk4A00.pdb
 173 171 0 0 0
SMALL
GASTEIGER

@<TRIPOS>ATOM
      1  N        -23.9470   -9.9110   65.5520 N.3   266  PHE266     -0.1228
      2  CA       -23.6840  -11.3480   65.5980 C.3   266  PHE266      0.1721
      3  C        -23.2980  -11.7320   67.0360 C.2   266  PHE266      0.2437
      4  O        -22.5930  -10.9850   67.7120 O.2   266  PHE266     -0.2733
      5  CB       -22.4780  -11.6760   64.6860 C.3   266  PHE266      0.0547
      6  CG       -21.9530  -13.0640   64.8670 C.ar  266  PHE266     -0.0202
      7  CD1      -21.0260  -13.3770   65.8920 C.ar  266  PHE266     -0.0042
      8  CD2      -22.4070  -14.1070   64.0310 C.ar  266  PHE266     -0.0042
      9  CE1      -20.5380  -14.7000   66.0460 C.ar  266  PHE266     -0.0003
     10  CE2      -21.9600  -15.4540   64.1770 C.ar  266  PHE266     -0.0003
     11  CZ       -21.0300  -15.7490   65.2170 C.ar  266  PHE266     -0.0000
     12  N        -23.8000  -12.8430   67.5340 N.am  267  PRO267     -0.2729
     13  CA       -24.8510  -13.6410   66.9130 C.3   267  PRO267      0.1401
     14  C        -26.0890  -13.3260   67.7030 C.2   267  PRO267      0.2269
     15  O        -26.2570  -13.8670   68.8350 O.2   267  PRO267     -0.2865
     16  CB       -24.4110  -15.0840   67.2270 C.3   267  PRO267      0.0296
     17  CG       -23.4720  -14.9680   68.4230 C.3   267  PRO267      0.0237
     18  CD       -23.3350  -13.4890   68.7830 C.3   267  PRO267      0.0939
     19  N        -22.8860   -3.5860   65.6460 N.3   334  ASP334     -0.1225
     20  CA       -22.0560   -4.7010   65.2790 C.3   334  ASP334      0.1805
     21  C        -22.2570   -4.9550   63.7970 C.2   334  ASP334      0.2597
     22  O        -22.2130   -3.9790   62.9940 O.2   334  ASP334     -0.2718
     23  CB       -22.3110   -5.9410   66.2450 C.3   334  ASP334      0.1424
     24  CG       -21.3650   -7.1110   65.9420 C.2   334  ASP334      0.3668
     25  OD1      -21.7660   -8.0370   65.1970 O.co2 334  ASP334     -0.2456
     26  OD2      -20.1780   -7.0010   66.2940 O.co2 334  ASP334     -0.2456
     27  N        -22.5110   -6.2010   63.3600 N.am  335  TRP335     -0.1976
     28  CA       -22.7160   -6.4360   61.8960 C.3   335  TRP335      0.1640
     29  C        -23.8660   -5.5770   61.3340 C.2   335  TRP335      0.2290
     30  O        -23.8130   -5.1330   60.1750 O.2   335  TRP335     -0.2864
     31  CB       -22.9530   -7.9520   61.5090 C.3   335  TRP335      0.0576
     32  CG       -21.6880   -8.6120   61.1040 C.ar  335  TRP335      0.0006
     33  CD1      -21.0300   -9.5320   61.8090 C.ar  335  TRP335      0.0946
     34  CD2      -20.8900   -8.3580   59.8890 C.ar  335  TRP335      0.0152
     35  NE1      -19.8510   -9.8850   61.1540 N.ar  335  TRP335     -0.2442
     36  CE2      -19.7500   -9.1860   59.9750 C.ar  335  TRP335      0.0810
     37  CE3      -21.0310   -7.4900   58.7670 C.ar  335  TRP335      0.0012
     38  CZ2      -18.7130   -9.1940   58.9820 C.ar  335  TRP335      0.0191
     39  CZ3      -20.0450   -7.5040   57.7810 C.ar  335  TRP335      0.0001
     40  CH2      -18.8570   -8.3570   57.8840 C.ar  335  TRP335      0.0015
     41  N        -22.4990   -2.1980   60.4800 N.3   338  MET338     -0.1301
     42  CA       -21.8210   -2.2040   59.1740 C.3   338  MET338      0.1256
     43  C        -22.8570   -2.1150   58.0350 C.3   338  MET338      0.2010
     44  O        -22.6470   -1.3990   56.9880 O.3   338  MET338     -0.2188
     45  CB       -21.0480   -3.5020   58.9850 C.3   338  MET338      0.0333
     46  CG       -20.1540   -3.5270   57.7600 C.3   338  MET338      0.0592
     47  SD       -18.7940   -2.3410   57.9330 S.3   338  MET338     -0.1393
     48  CE       -17.6040   -3.3170   58.8650 C.3   338  MET338      0.0692
     49  N        -19.8450   -0.1090   65.7220 N.3   359  THR359     -0.1218
     50  CA       -19.2280   -0.3210   64.4210 C.3   359  THR359      0.1862
     51  C        -18.8880    0.9740   63.7090 C.2   359  THR359      0.2287
     52  O        -19.8170    1.7640   63.4200 O.2   359  THR359     -0.2866
     53  CB       -20.1290   -1.1380   63.4960 C.3   359  THR359      0.1770
     54  OG1      -20.6150   -2.2600   64.2210 O.3   359  THR359     -0.2211
     55  CG2      -19.3950   -1.6010   62.2720 C.3   359  THR359      0.0375
     56  N         -8.6750   -9.1920   65.4550 N.3   380  PHE380     -0.1241
     57  CA        -9.5200   -9.8340   64.4590 C.3   380  PHE380      0.1605
     58  C         -9.0370  -11.2200   64.0280 C.2   380  PHE380      0.2264
     59  O         -9.5420  -11.7140   63.0240 O.2   380  PHE380     -0.2867
     60  CB        -9.6930   -8.9760   63.1810 C.3   380  PHE380      0.0534
     61  CG       -10.2830   -7.5890   63.4070 C.ar  380  PHE380     -0.0203
     62  CD1      -11.4960   -7.4080   64.0850 C.ar  380  PHE380     -0.0042
     63  CD2       -9.6340   -6.4650   62.8860 C.ar  380  PHE380     -0.0042
     64  CE1      -12.0200   -6.1330   64.2690 C.ar  380  PHE380     -0.0003
     65  CE2      -10.1560   -5.1930   63.0640 C.ar  380  PHE380     -0.0003
     66  CZ       -11.3480   -5.0260   63.7540 C.ar  380  PHE380     -0.0000
     67  N         -9.7930  -14.1120   65.3520 N.3   382  TYR382     -0.1227
     68  CA       -10.9930  -14.9510   65.4410 C.3   382  TYR382      0.1736
     69  C        -11.8270  -15.0010   64.0860 C.2   382  TYR382      0.2595
     70  O        -12.4990  -16.0140   63.7880 O.2   382  TYR382     -0.2718
     71  CB       -11.8460  -14.4690   66.6210 C.3   382  TYR382      0.0548
     72  CG       -12.5420  -13.1670   66.2570 C.ar  382  TYR382     -0.0200
     73  CD1      -13.7830  -13.1730   65.6200 C.ar  382  TYR382     -0.0009
     74  CD2      -11.9310  -11.9510   66.4880 C.ar  382  TYR382     -0.0009
     75  CE1      -14.3960  -11.9930   65.2350 C.ar  382  TYR382      0.0417
     76  CE2      -12.5370  -10.7640   66.1220 C.ar  382  TYR382      0.0417
     77  CZ       -13.7770  -10.8010   65.5080 C.ar  382  TYR382      0.1957
     78  OH       -14.3640   -9.6390   65.1480 O.3   382  TYR382     -0.2866
     79  N        -11.7430  -13.9370   63.2620 N.am  383  GLN383     -0.1979
     80  CA       -12.4430  -13.9660   61.9660 C.3   383  GLN383      0.1601
     81  C        -11.8960  -15.0330   61.0320 C.2   383  GLN383      0.2287
     82  O        -12.6660  -15.6030   60.2360 O.2   383  GLN383     -0.2864
     83  CB       -12.4290  -12.5840   61.2950 C.3   383  GLN383      0.0394
     84  CG       -13.0170  -11.5200   62.2230 C.3   383  GLN383      0.0908
     85  CD       -13.3320  -10.1840   61.5030 C.2   383  GLN383      0.2608
     86  OE1      -13.4310   -9.1260   62.1430 O.2   383  GLN383     -0.2717
     87  NE2      -13.4990  -10.2370   60.2100 N.am  383  GLN383     -0.0878
     88  N        -13.5360  -18.1840   61.6920 N.3   386  PHE386     -0.1241
     89  CA       -14.9130  -18.2310   61.1790 C.3   386  PHE386      0.1605
     90  C        -15.0620  -18.6060   59.7280 C.2   386  PHE386      0.2264
     91  O        -16.1950  -18.8970   59.2540 O.2   386  PHE386     -0.2867
     92  CB       -15.5850  -16.8740   61.4040 C.3   386  PHE386      0.0534
     93  CG       -15.9300  -16.6100   62.8270 C.ar  386  PHE386     -0.0203
     94  CD1      -15.7980  -17.6180   63.8060 C.ar  386  PHE386     -0.0042
     95  CD2      -16.4850  -15.3480   63.2120 C.ar  386  PHE386     -0.0042
     96  CE1      -16.1410  -17.3530   65.1190 C.ar  386  PHE386     -0.0003
     97  CE2      -16.8220  -15.0960   64.5310 C.ar  386  PHE386     -0.0003
     98  CZ       -16.6430  -16.0810   65.4880 C.ar  386  PHE386     -0.0000
     99  N        -20.5250  -15.5540   75.5710 N.3   407  LEU407     -0.1245
    100  CA       -20.4890  -14.3320   74.7470 C.3   407  LEU407      0.1561
    101  C        -21.0290  -13.1640   75.5060 C.2   407  LEU407      0.2260
    102  O        -20.3230  -12.1600   75.7310 O.2   407  LEU407     -0.2867
    103  CB       -21.3040  -14.5660   73.4260 C.3   407  LEU407      0.0270
    104  CG       -20.6390  -15.5550   72.4440 C.3   407  LEU407      0.0019
    105  CD1      -21.6530  -15.9340   71.3540 C.3   407  LEU407      0.0001
    106  CD2      -19.3620  -14.9950   71.8210 C.3   407  LEU407      0.0001
    107  N        -10.4000  -12.6060   72.4810 N.3   418  MET418     -0.1245
    108  CA       -10.5350  -12.9940   71.0710 C.3   418  MET418      0.1570
    109  C         -9.1620  -13.2610   70.4400 C.2   418  MET418      0.2261
    110  O         -8.8930  -12.8500   69.2760 O.2   418  MET418     -0.2867
    111  CB       -11.3060  -11.9030   70.3250 C.3   418  MET418      0.0387
    112  CG       -12.7450  -11.7180   70.7880 C.3   418  MET418      0.0595
    113  SD       -13.7780  -13.0510   70.1650 S.3   418  MET418     -0.1393
    114  CE       -13.7670  -14.1980   71.5380 C.3   418  MET418      0.0692
    115  N        -13.0320  -20.9050   70.1340 N.3   427  LEU427     -0.1245
    116  CA       -13.3520  -19.6800   70.8540 C.3   427  LEU427      0.1561
    117  C        -13.4990  -19.9260   72.3550 C.2   427  LEU427      0.2260
    118  O        -13.2650  -19.0080   73.1580 O.2   427  LEU427     -0.2867
    119  CB       -14.6950  -19.2010   70.3150 C.3   427  LEU427      0.0270
    120  CG       -15.1990  -17.8030   70.0520 C.3   427  LEU427      0.0019
    121  CD1      -14.1600  -16.9430   69.3630 C.3   427  LEU427      0.0001
    122  CD2      -16.4270  -18.0260   69.1710 C.3   427  LEU427      0.0001
    123  N        -19.5620  -13.3450   57.8490 N.3   465  TYR465     -0.1241
    124  CA       -18.0740  -13.1840   57.8660 C.3   465  TYR465      0.1605
    125  C        -17.4210  -13.7810   56.6550 C.2   465  TYR465      0.2264
    126  O        -16.2110  -13.6740   56.4710 O.2   465  TYR465     -0.2867
    127  CB       -17.4710  -13.9310   59.0470 C.3   465  TYR465      0.0534
    128  CG       -17.7950  -13.3430   60.4210 C.ar  465  TYR465     -0.0201
    129  CD1      -17.0170  -12.3400   60.9400 C.ar  465  TYR465     -0.0009
    130  CD2      -18.9100  -13.8040   61.1910 C.ar  465  TYR465     -0.0009
    131  CE1      -17.2380  -11.8190   62.1870 C.ar  465  TYR465      0.0417
    132  CE2      -19.1540  -13.2740   62.4610 C.ar  465  TYR465      0.0417
    133  CZ       -18.3010  -12.3030   62.9370 C.ar  465  TYR465      0.1957
    134  OH       -18.5110  -11.7340   64.1650 O.3   465  TYR465     -0.2866
    135  N        -13.1850   -5.3370   70.8100 N.3   497  VAL497     -0.1231
    136  CA       -13.1630   -5.7170   69.4070 C.3   497  VAL497      0.1692
    137  C        -13.3630   -4.4740   68.4800 C.2   497  VAL497      0.2591
    138  O        -12.5890   -4.2130   67.5550 O.2   497  VAL497     -0.2718
    139  CB       -14.2550   -6.7750   69.0950 C.3   497  VAL497      0.0266
    140  CG1      -14.1340   -7.2480   67.6570 C.3   497  VAL497      0.0020
    141  CG2      -14.2330   -7.9230   70.0930 C.3   497  VAL497      0.0020
    142  N        -14.4250   -3.7240   68.7400 N.am  498  LEU498     -0.1980
    143  CA       -14.7700   -2.5410   67.9530 C.3   498  LEU498      0.1596
    144  C        -14.4140   -1.3800   68.8500 C.2   498  LEU498      0.2287
    145  O        -15.2950   -0.8500   69.5630 O.2   498  LEU498     -0.2864
    146  CB       -16.2730   -2.5230   67.5910 C.3   498  LEU498      0.0297
    147  CG       -16.8050   -3.7340   66.7740 C.3   498  LEU498      0.0022
    148  CD1      -18.3330   -3.6270   66.6280 C.3   498  LEU498      0.0001
    149  CD2      -16.1450   -3.8370   65.3920 C.3   498  LEU498      0.0001
    150  N        -19.0050   -4.7510   74.6470 N.3   523  HIS523     -0.1226
    151  CA       -19.4160   -4.9560   73.3040 C.3   523  HIS523      0.1752
    152  C        -20.9780   -5.0010   73.1640 C.2   523  HIS523      0.2596
    153  O        -21.4750   -4.5740   72.1570 O.2   523  HIS523     -0.2718
    154  CB       -18.8160   -6.2490   72.7150 C.3   523  HIS523      0.0759
    155  CG       -19.3710   -6.5650   71.3430 C.ar  523  HIS523      0.0818
    156  ND1      -19.0300   -5.8220   70.2220 N.ar  523  HIS523     -0.2268
    157  CD2      -20.3090   -7.4690   70.9340 C.ar  523  HIS523      0.1154
    158  CE1      -19.7090   -6.2860   69.1780 C.ar  523  HIS523      0.1986
    159  NE2      -20.4730   -7.2960   69.5820 N.ar  523  HIS523     -0.2212
    160  N        -21.7160   -5.4840   74.1780 N.am  524  TRP524     -0.1976
    161  CA       -23.1770   -5.7130   74.0730 C.3   524  TRP524      0.1640
    162  C        -23.9490   -4.5110   74.5110 C.2   524  TRP524      0.2290
    163  O        -24.7320   -4.5730   75.4520 O.2   524  TRP524     -0.2864
    164  CB       -23.5700   -6.9500   74.8520 C.3   524  TRP524      0.0576
    165  CG       -22.6130   -8.0280   74.5290 C.ar  524  TRP524      0.0006
    166  CD1      -21.5400   -8.3970   75.2860 C.ar  524  TRP524      0.0946
    167  CD2      -22.5550   -8.8320   73.3320 C.ar  524  TRP524      0.0152
    168  NE1      -20.8270   -9.4230   74.6660 N.ar  524  TRP524     -0.2442
    169  CE2      -21.4530   -9.7550   73.5000 C.ar  524  TRP524      0.0810
    170  CE3      -23.3630   -8.9440   72.1840 C.ar  524  TRP524      0.0012
    171  CZ2      -21.0730  -10.6740   72.5090 C.ar  524  TRP524      0.0191
    172  CZ3      -23.0590   -9.9080   71.2610 C.ar  524  TRP524      0.0001
    173  CH2      -21.9040  -10.7700   71.4080 C.ar  524  TRP524      0.0015
@<TRIPOS>BOND
     1   126   125    2
     2   125   124    1
     3    44    43    1
     4    46    47    1
     5    46    45    1
     6    39    40   ar
     7    39    37   ar
     8   123   124    1
     9   124   127    1
    10    40    38   ar
    11    47    48    1
    12    43    42    1
    13    37    34   ar
    14    38    36   ar
    15    45    42    1
    16   127   128    1
    17    42    41    1
    18    91    90    2
    19    90    89    1
    20    34    36   ar
    21    34    32   ar
    22    36    35   ar
    23    30    29    2
    24    87    85   am
    25    82    81    2
    26   128   129   ar
    27   128   130   ar
    28   129   131   ar
    29    81    80    1
    30    32    31    1
    31    32    33   ar
    32    35    33   ar
    33    89    92    1
    34    89    88    1
    35   130   132   ar
    36    83    80    1
    37    83    84    1
    38    29    28    1
    39    92    93    1
    40    85    86    2
    41    85    84    1
    42    31    28    1
    43    28    27    1
    44    80    79    1
    45   131   133   ar
    46    55    53    1
    47   132   133   ar
    48    93    95   ar
    49    93    94   ar
    50    63    65   ar
    51    63    61   ar
    52   133   134    1
    53    22    21    2
    54    59    58    2
    55    65    66   ar
    56    60    61    1
    57    60    57    1
    58    95    97   ar
    59    79    69   am
    60    27    21   am
    61    61    62   ar
    62    52    51    2
    63    53    54    1
    64    53    50    1
    65    51    50    1
    66    66    64   ar
    67    70    69    2
    68    21    20    1
    69    94    96   ar
    70    58    57    1
    71     8    10   ar
    72     8     6   ar
    73    62    64   ar
    74    69    68    1
    75    10    11   ar
    76    50    49    1
    77    57    56    1
    78    97    98   ar
    79     5     6    1
    80     5     2    1
    81     6     7   ar
    82    96    98   ar
    83    78    77    1
    84    25    24   ar
    85    11     9   ar
    86    75    77   ar
    87    75    73   ar
    88    20    19    1
    89    20    23    1
    90    67    68    1
    91   149   147    1
    92    68    71    1
    93    77    76   ar
    94     1     2    1
    95     2     3    1
    96    73    72   ar
    97     7     9   ar
    98    24    23    1
    99    24    26   ar
   100    76    74   ar
   101    72    74   ar
   102    72    71    1
   103   148   147    1
   104   147   146    1
   105    13    16    1
   106    13    12    1
   107    13    14    1
   108     3    12   am
   109     3     4    2
   110    16    17    1
   111    12    18    1
   112   138   137    2
   113   146   143    1
   114   140   139    1
   115    14    15    2
   116   143   142    1
   117   143   144    1
   118    17    18    1
   119   137   142   am
   120   137   136    1
   121   144   145    2
   122   139   136    1
   123   139   141    1
   124   122   120    1
   125   158   159   ar
   126   158   156   ar
   127   110   109    2
   128   121   120    1
   129   136   135    1
   130   159   157   ar
   131   120   119    1
   132   115   116    1
   133   113   112    1
   134   113   114    1
   135   156   155   ar
   136   119   116    1
   137   111   112    1
   138   111   108    1
   139   109   108    1
   140   116   117    1
   141   157   155   ar
   142   108   107    1
   143   172   173   ar
   144   172   170   ar
   145   155   154    1
   146   105   104    1
   147   173   171   ar
   148   106   104    1
   149   153   152    2
   150   170   167   ar
   151   117   118    2
   152   104   103    1
   153   171   169   ar
   154   154   151    1
   155   152   151    1
   156   152   160   am
   157   151   150    1
   158   167   169   ar
   159   167   165   ar
   160   103   100    1
   161   169   168   ar
   162   161   160    1
   163   161   162    1
   164   161   164    1
   165   162   163    2
   166   165   164    1
   167   165   166   ar
   168   168   166   ar
   169   100   101    1
   170   100    99    1
   171   101   102    2
