@<TRIPOS>MOLECULE
tmp/3wk5A00.pdb
 166 163 0 0 0
SMALL
GASTEIGER

@<TRIPOS>ATOM
      1  N        -23.3700   -9.6420   65.3240 N.3   266  PHE266     -0.1241
      2  CA       -23.0760  -11.0670   65.4150 C.3   266  PHE266      0.1605
      3  C        -22.7140  -11.4610   66.8370 C.2   266  PHE266      0.2264
      4  O        -21.9230  -10.7680   67.4600 O.2   266  PHE266     -0.2867
      5  CB       -21.8620  -11.3620   64.5680 C.3   266  PHE266      0.0534
      6  CG       -21.3760  -12.7520   64.7010 C.ar  266  PHE266     -0.0203
      7  CD1      -20.5360  -13.1120   65.7570 C.ar  266  PHE266     -0.0042
      8  CD2      -21.7540  -13.7150   63.7770 C.ar  266  PHE266     -0.0042
      9  CE1      -20.0670  -14.4040   65.8950 C.ar  266  PHE266     -0.0003
     10  CE2      -21.3030  -15.0090   63.9030 C.ar  266  PHE266     -0.0003
     11  CZ       -20.4660  -15.3580   64.9680 C.ar  266  PHE266     -0.0000
     12  N        -22.2690   -3.4900   65.5780 N.3   334  ASP334     -0.1225
     13  CA       -21.4470   -4.6220   65.1430 C.3   334  ASP334      0.1805
     14  C        -21.6370   -4.7950   63.6350 C.2   334  ASP334      0.2597
     15  O        -21.5900   -3.8270   62.8890 O.2   334  ASP334     -0.2718
     16  CB       -21.8350   -5.8720   65.9160 C.3   334  ASP334      0.1424
     17  CG       -20.8370   -6.9800   65.7540 C.2   334  ASP334      0.3668
     18  OD1      -21.1330   -7.9940   65.0460 O.co2 334  ASP334     -0.2456
     19  OD2      -19.7410   -6.8190   66.3140 O.co2 334  ASP334     -0.2456
     20  N        -21.8980   -6.0080   63.1730 N.am  335  TRP335     -0.1976
     21  CA       -22.1180   -6.2030   61.7350 C.3   335  TRP335      0.1640
     22  C        -23.2310   -5.3260   61.1760 C.2   335  TRP335      0.2290
     23  O        -23.0960   -4.8190   60.0880 O.2   335  TRP335     -0.2864
     24  CB       -22.3560   -7.6730   61.3890 C.3   335  TRP335      0.0576
     25  CG       -21.1240   -8.3560   60.9470 C.ar  335  TRP335      0.0006
     26  CD1      -20.4830   -9.3450   61.5990 C.ar  335  TRP335      0.0946
     27  CD2      -20.3510   -8.0830   59.7640 C.ar  335  TRP335      0.0152
     28  NE1      -19.3580   -9.7340   60.9020 N.ar  335  TRP335     -0.2442
     29  CE2      -19.2520   -8.9730   59.7700 C.ar  335  TRP335      0.0810
     30  CE3      -20.4780   -7.1850   58.7030 C.ar  335  TRP335      0.0012
     31  CZ2      -18.2710   -8.9910   58.7430 C.ar  335  TRP335      0.0191
     32  CZ3      -19.4970   -7.2050   57.6800 C.ar  335  TRP335      0.0001
     33  CH2      -18.4220   -8.1080   57.7100 C.ar  335  TRP335      0.0015
     34  N        -21.8550   -2.0990   60.1320 N.3   338  MET338     -0.1245
     35  CA       -21.2050   -2.0820   58.8160 C.3   338  MET338      0.1570
     36  C        -22.2490   -1.8530   57.7450 C.2   338  MET338      0.2261
     37  O        -22.0570   -1.0530   56.8270 O.2   338  MET338     -0.2867
     38  CB       -20.5350   -3.4200   58.5300 C.3   338  MET338      0.0387
     39  CG       -19.3740   -3.3850   57.5400 C.3   338  MET338      0.0595
     40  SD       -17.9530   -2.5330   58.2390 S.3   338  MET338     -0.1393
     41  CE       -18.0310   -0.9380   57.4180 C.3   338  MET338      0.0692
     42  N        -19.2300    0.2600   65.5180 N.3   359  THR359     -0.1218
     43  CA       -18.6480   -0.0510   64.2120 C.3   359  THR359      0.1862
     44  C        -18.2890    1.2270   63.4680 C.2   359  THR359      0.2287
     45  O        -19.1760    1.9690   63.0550 O.2   359  THR359     -0.2866
     46  CB       -19.6010   -0.9380   63.3880 C.3   359  THR359      0.1770
     47  OG1      -20.0500   -2.0070   64.2180 O.3   359  THR359     -0.2211
     48  CG2      -18.9230   -1.5240   62.1460 C.3   359  THR359      0.0375
     49  N         -8.1240   -8.9410   65.4660 N.3   380  PHE380     -0.1241
     50  CA        -9.0220   -9.5120   64.4660 C.3   380  PHE380      0.1605
     51  C         -8.7250  -10.9610   64.0950 C.2   380  PHE380      0.2264
     52  O         -9.3040  -11.4520   63.1310 O.2   380  PHE380     -0.2867
     53  CB        -9.0000   -8.6730   63.1750 C.3   380  PHE380      0.0534
     54  CG        -9.7090   -7.3420   63.2790 C.ar  380  PHE380     -0.0203
     55  CD1      -10.9990   -7.2480   63.8070 C.ar  380  PHE380     -0.0042
     56  CD2       -9.1030   -6.1810   62.8010 C.ar  380  PHE380     -0.0042
     57  CE1      -11.6480   -6.0250   63.8880 C.ar  380  PHE380     -0.0003
     58  CE2       -9.7520   -4.9570   62.8770 C.ar  380  PHE380     -0.0003
     59  CZ       -11.0260   -4.8810   63.4230 C.ar  380  PHE380     -0.0000
     60  N         -9.6980  -13.7770   65.2670 N.3   382  TYR382     -0.1227
     61  CA       -10.8950  -14.6130   65.3000 C.3   382  TYR382      0.1736
     62  C        -11.6560  -14.6190   63.9380 C.2   382  TYR382      0.2595
     63  O        -12.2960  -15.6220   63.5660 O.2   382  TYR382     -0.2718
     64  CB       -11.8000  -14.1720   66.4500 C.3   382  TYR382      0.0548
     65  CG       -12.5000  -12.8730   66.1480 C.ar  382  TYR382     -0.0200
     66  CD1      -13.7710  -12.8640   65.5620 C.ar  382  TYR382     -0.0009
     67  CD2      -11.8800  -11.6570   66.3990 C.ar  382  TYR382     -0.0009
     68  CE1      -14.4030  -11.6830   65.2480 C.ar  382  TYR382      0.0417
     69  CE2      -12.5070  -10.4690   66.0870 C.ar  382  TYR382      0.0417
     70  CZ       -13.7640  -10.4890   65.5150 C.ar  382  TYR382      0.1957
     71  OH       -14.3880   -9.3060   65.2150 O.3   382  TYR382     -0.2866
     72  N        -11.5850  -13.5180   63.1890 N.am  383  GLN383     -0.1979
     73  CA       -12.2330  -13.4850   61.8790 C.3   383  GLN383      0.1601
     74  C        -11.6490  -14.5220   60.9310 C.2   383  GLN383      0.2287
     75  O        -12.3740  -15.0970   60.1310 O.2   383  GLN383     -0.2864
     76  CB       -12.1640  -12.1000   61.2640 C.3   383  GLN383      0.0394
     77  CG       -12.7030  -11.0120   62.1700 C.3   383  GLN383      0.0908
     78  CD       -13.1380   -9.7700   61.4240 C.2   383  GLN383      0.2608
     79  OE1      -13.3920   -8.7370   62.0290 O.2   383  GLN383     -0.2717
     80  NE2      -13.2260   -9.8590   60.1140 N.am  383  GLN383     -0.0878
     81  N        -12.9640  -17.8150   61.4500 N.3   386  PHE386     -0.1241
     82  CA       -14.3470  -17.9520   60.9760 C.3   386  PHE386      0.1605
     83  C        -14.4550  -18.3310   59.5030 C.2   386  PHE386      0.2264
     84  O        -15.5550  -18.6730   59.0060 O.2   386  PHE386     -0.2867
     85  CB       -15.1570  -16.6820   61.2340 C.3   386  PHE386      0.0534
     86  CG       -15.4890  -16.4340   62.6880 C.ar  386  PHE386     -0.0203
     87  CD1      -15.3630  -17.4290   63.6410 C.ar  386  PHE386     -0.0042
     88  CD2      -15.9740  -15.1860   63.0910 C.ar  386  PHE386     -0.0042
     89  CE1      -15.6870  -17.1810   64.9660 C.ar  386  PHE386     -0.0003
     90  CE2      -16.3110  -14.9360   64.4110 C.ar  386  PHE386     -0.0003
     91  CZ       -16.1580  -15.9340   65.3520 C.ar  386  PHE386     -0.0000
     92  N        -20.1020  -15.1900   75.4890 N.3   407  LEU407     -0.1245
     93  CA       -19.9510  -13.9760   74.7060 C.3   407  LEU407      0.1561
     94  C        -20.5440  -12.7680   75.4400 C.2   407  LEU407      0.2260
     95  O        -19.9150  -11.7170   75.5780 O.2   407  LEU407     -0.2867
     96  CB       -20.6110  -14.1550   73.3330 C.3   407  LEU407      0.0270
     97  CG       -19.8600  -14.9970   72.2910 C.3   407  LEU407      0.0019
     98  CD1      -20.8080  -15.5830   71.2660 C.3   407  LEU407      0.0001
     99  CD2      -18.6780  -14.2720   71.6270 C.3   407  LEU407      0.0001
    100  N         -9.9010  -12.5870   72.1640 N.3   418  MET418     -0.1245
    101  CA       -10.0300  -12.8640   70.7250 C.3   418  MET418      0.1570
    102  C         -8.6350  -13.0320   70.0920 C.2   418  MET418      0.2261
    103  O         -8.4440  -12.9330   68.8630 O.2   418  MET418     -0.2867
    104  CB       -10.8470  -11.7590   70.0460 C.3   418  MET418      0.0387
    105  CG       -12.1770  -11.4370   70.7320 C.3   418  MET418      0.0595
    106  SD       -13.4510  -12.7160   70.6390 S.3   418  MET418     -0.1393
    107  CE       -14.6060  -12.1100   71.8800 C.3   418  MET418      0.0692
    108  N        -12.5410  -20.6050   70.0230 N.3   427  LEU427     -0.1245
    109  CA       -12.9310  -19.3970   70.7340 C.3   427  LEU427      0.1561
    110  C        -13.0240  -19.6400   72.2120 C.2   427  LEU427      0.2260
    111  O        -12.8120  -18.7240   72.9950 O.2   427  LEU427     -0.2867
    112  CB       -14.2900  -18.9450   70.2250 C.3   427  LEU427      0.0270
    113  CG       -14.5860  -17.4530   70.1340 C.3   427  LEU427      0.0019
    114  CD1      -13.4970  -16.6920   69.3710 C.3   427  LEU427      0.0001
    115  CD2      -15.9490  -17.3250   69.4600 C.3   427  LEU427      0.0001
    116  N        -19.0690  -13.0980   57.6090 N.3   465  TYR465     -0.1241
    117  CA       -17.6260  -12.9020   57.6430 C.3   465  TYR465      0.1605
    118  C        -16.8990  -13.4990   56.4510 C.2   465  TYR465      0.2264
    119  O        -15.6640  -13.4000   56.3610 O.2   465  TYR465     -0.2867
    120  CB       -17.0750  -13.5990   58.8390 C.3   465  TYR465      0.0534
    121  CG       -17.3570  -12.9780   60.1700 C.ar  465  TYR465     -0.0201
    122  CD1      -16.5160  -12.0030   60.6940 C.ar  465  TYR465     -0.0009
    123  CD2      -18.4170  -13.4290   60.9530 C.ar  465  TYR465     -0.0009
    124  CE1      -16.7420  -11.4770   61.9480 C.ar  465  TYR465      0.0417
    125  CE2      -18.6520  -12.9020   62.2070 C.ar  465  TYR465      0.0417
    126  CZ       -17.8080  -11.9310   62.6910 C.ar  465  TYR465      0.1957
    127  OH       -18.0360  -11.4190   63.9420 O.3   465  TYR465     -0.2866
    128  N        -12.4110   -4.8920   70.8650 N.3   497  VAL497     -0.1231
    129  CA       -12.3460   -5.3080   69.4600 C.3   497  VAL497      0.1692
    130  C        -12.6390   -4.1500   68.5070 C.2   497  VAL497      0.2591
    131  O        -11.8420   -3.8540   67.6140 O.2   497  VAL497     -0.2718
    132  CB       -13.3270   -6.4570   69.1460 C.3   497  VAL497      0.0266
    133  CG1      -13.1600   -6.9160   67.7070 C.3   497  VAL497      0.0020
    134  CG2      -13.1390   -7.5980   70.1320 C.3   497  VAL497      0.0020
    135  N        -13.7910   -3.5120   68.6810 N.am  498  LEU498     -0.1980
    136  CA       -14.1200   -2.3370   67.8720 C.3   498  LEU498      0.1596
    137  C        -13.7410   -1.1210   68.7270 C.2   498  LEU498      0.2287
    138  O        -14.5930   -0.4760   69.3230 O.2   498  LEU498     -0.2864
    139  CB       -15.6100   -2.3630   67.4490 C.3   498  LEU498      0.0297
    140  CG       -16.2060   -3.5010   66.5750 C.3   498  LEU498      0.0022
    141  CD1      -17.7160   -3.4270   66.3830 C.3   498  LEU498      0.0001
    142  CD2      -15.5480   -3.5540   65.2050 C.3   498  LEU498      0.0001
    143  N        -18.6290   -4.4830   74.5790 N.3   523  HIS523     -0.1226
    144  CA       -18.9490   -4.5930   73.1890 C.3   523  HIS523      0.1752
    145  C        -20.4460   -4.7510   72.9480 C.2   523  HIS523      0.2596
    146  O        -20.9600   -4.3920   71.8900 O.2   523  HIS523     -0.2718
    147  CB       -18.2320   -5.7790   72.6130 C.3   523  HIS523      0.0759
    148  CG       -18.7640   -6.1740   71.2830 C.ar  523  HIS523      0.0818
    149  ND1      -18.4300   -5.5000   70.1250 N.ar  523  HIS523     -0.2268
    150  CD2      -19.6590   -7.1280   70.9310 C.ar  523  HIS523      0.1154
    151  CE1      -19.0650   -6.0560   69.1110 C.ar  523  HIS523      0.1986
    152  NE2      -19.8230   -7.0380   69.5750 N.ar  523  HIS523     -0.2212
    153  N        -21.1450   -5.3020   73.9260 N.am  524  TRP524     -0.1976
    154  CA       -22.5690   -5.5100   73.7980 C.3   524  TRP524      0.1640
    155  C        -23.3140   -4.2800   74.2520 C.2   524  TRP524      0.2290
    156  O        -24.0470   -4.3360   75.2260 O.2   524  TRP524     -0.2864
    157  CB       -22.9870   -6.7260   74.6010 C.3   524  TRP524      0.0576
    158  CG       -22.0040   -7.8070   74.3720 C.ar  524  TRP524      0.0006
    159  CD1      -20.9840   -8.1790   75.2020 C.ar  524  TRP524      0.0946
    160  CD2      -21.8980   -8.6370   73.2030 C.ar  524  TRP524      0.0152
    161  NE1      -20.2690   -9.2080   74.6360 N.ar  524  TRP524     -0.2442
    162  CE2      -20.8040   -9.5080   73.4110 C.ar  524  TRP524      0.0810
    163  CE3      -22.6310   -8.7360   72.0090 C.ar  524  TRP524      0.0012
    164  CZ2      -20.4160  -10.4540   72.4690 C.ar  524  TRP524      0.0191
    165  CZ3      -22.2470   -9.6690   71.0790 C.ar  524  TRP524      0.0001
    166  CH2      -21.1470  -10.5200   71.3070 C.ar  524  TRP524      0.0015
@<TRIPOS>BOND
     1   119   118    2
     2   118   117    1
     3    37    36    2
     4    41    40    1
     5    39    40    1
     6    39    38    1
     7   116   117    1
     8   117   120    1
     9    32    33   ar
    10    32    30   ar
    11    33    31   ar
    12    36    35    1
    13    38    35    1
    14    30    27   ar
    15    31    29   ar
    16    35    34    1
    17   120   121    1
    18    84    83    2
    19    83    82    1
    20    27    29   ar
    21    27    25   ar
    22    29    28   ar
    23    23    22    2
    24    80    78   am
    25    75    74    2
    26   121   122   ar
    27   121   123   ar
    28   122   124   ar
    29    28    26   ar
    30    74    73    1
    31    25    24    1
    32    25    26   ar
    33   123   125   ar
    34    82    85    1
    35    82    81    1
    36    22    21    1
    37    85    86    1
    38    76    73    1
    39    76    77    1
    40    24    21    1
    41    78    79    2
    42    78    77    1
    43    21    20    1
    44    73    72    1
    45   124   126   ar
    46    48    46    1
    47   125   126   ar
    48    86    88   ar
    49    86    87   ar
    50   126   127    1
    51    56    58   ar
    52    56    54   ar
    53    58    59   ar
    54    15    14    2
    55    45    44    2
    56    88    90   ar
    57    52    51    2
    58    20    14   am
    59    53    54    1
    60    53    50    1
    61    72    62   am
    62    54    55   ar
    63    46    43    1
    64    46    47    1
    65    59    57   ar
    66    44    43    1
    67    63    62    2
    68    14    13    1
    69    87    89   ar
    70     8    10   ar
    71     8     6   ar
    72    55    57   ar
    73    10    11   ar
    74    62    61    1
    75    51    50    1
    76    43    42    1
    77    90    91   ar
    78    50    49    1
    79     5     6    1
    80     5     2    1
    81     6     7   ar
    82    89    91   ar
    83    11     9   ar
    84    18    17   ar
    85    13    12    1
    86    13    16    1
    87   142   140    1
    88    71    70    1
    89    68    70   ar
    90    68    66   ar
    91    60    61    1
    92    61    64    1
    93     1     2    1
    94     2     3    1
    95    70    69   ar
    96    66    65   ar
    97    17    16    1
    98    17    19   ar
    99     7     9   ar
   100    69    67   ar
   101    65    67   ar
   102    65    64    1
   103   141   140    1
   104   140   139    1
   105     3     4    2
   106   139   136    1
   107   131   130    2
   108   133   132    1
   109   136   135    1
   110   136   137    1
   111   130   135   am
   112   130   129    1
   113   137   138    2
   114   103   102    2
   115   151   152   ar
   116   151   149   ar
   117   132   129    1
   118   132   134    1
   119   114   113    1
   120   129   128    1
   121   115   113    1
   122   152   150   ar
   123   108   109    1
   124   104   101    1
   125   104   105    1
   126   102   101    1
   127   149   148   ar
   128   113   112    1
   129   112   109    1
   130   106   105    1
   131   106   107    1
   132   101   100    1
   133   109   110    1
   134   150   148   ar
   135   165   166   ar
   136   165   163   ar
   137    98    97    1
   138   148   147    1
   139   166   164   ar
   140    99    97    1
   141   146   145    2
   142   163   160   ar
   143   110   111    2
   144    97    96    1
   145   164   162   ar
   146   147   144    1
   147   145   144    1
   148   145   153   am
   149   144   143    1
   150   160   162   ar
   151   160   158   ar
   152    96    93    1
   153   162   161   ar
   154   154   153    1
   155   154   155    1
   156   154   157    1
   157   155   156    2
   158   158   157    1
   159   158   159   ar
   160   161   159   ar
   161    93    94    1
   162    93    92    1
   163    94    95    2
