@<TRIPOS>MOLECULE
tmp/3wk6A00.pdb
 181 178 0 0 0
SMALL
GASTEIGER

@<TRIPOS>ATOM
      1  N        -23.8690   -9.9300   65.3750 N.3   266  PHE266     -0.1228
      2  CA       -23.6060  -11.3700   65.4230 C.3   266  PHE266      0.1721
      3  C        -23.2560  -11.7720   66.8710 C.2   266  PHE266      0.2437
      4  O        -22.4660  -11.0770   67.5040 O.2   266  PHE266     -0.2733
      5  CB       -22.3660  -11.6600   64.5500 C.3   266  PHE266      0.0547
      6  CG       -21.8790  -13.0540   64.6770 C.ar  266  PHE266     -0.0202
      7  CD1      -20.9780  -13.4080   65.7050 C.ar  266  PHE266     -0.0042
      8  CD2      -22.3490  -14.0610   63.8080 C.ar  266  PHE266     -0.0042
      9  CE1      -20.5610  -14.7690   65.8580 C.ar  266  PHE266     -0.0003
     10  CE2      -21.9460  -15.4050   63.9360 C.ar  266  PHE266     -0.0003
     11  CZ       -21.0150  -15.7660   64.9750 C.ar  266  PHE266     -0.0000
     12  N        -23.7370  -12.9210   67.3690 N.am  267  PRO267     -0.2729
     13  CA       -24.7830  -13.7390   66.8630 C.3   267  PRO267      0.1401
     14  C        -26.0380  -13.3710   67.6390 C.2   267  PRO267      0.2269
     15  O        -26.2530  -13.8780   68.7150 O.2   267  PRO267     -0.2865
     16  CB       -24.2660  -15.1570   67.1700 C.3   267  PRO267      0.0296
     17  CG       -23.3920  -15.0140   68.3950 C.3   267  PRO267      0.0237
     18  CD       -23.2070  -13.4980   68.6280 C.3   267  PRO267      0.0939
     19  N        -22.8750   -3.6460   65.6900 N.3   334  ASP334     -0.1225
     20  CA       -22.0190   -4.7530   65.2880 C.3   334  ASP334      0.1805
     21  C        -22.1320   -4.9980   63.7690 C.2   334  ASP334      0.2597
     22  O        -22.1330   -4.0240   63.0230 O.2   334  ASP334     -0.2718
     23  CB       -22.3250   -6.0110   66.1530 C.3   334  ASP334      0.1424
     24  CG       -21.3330   -7.1090   65.9120 C.2   334  ASP334      0.3668
     25  OD1      -21.6700   -8.0430   65.1600 O.co2 334  ASP334     -0.2456
     26  OD2      -20.1810   -6.9850   66.3990 O.co2 334  ASP334     -0.2456
     27  N        -22.2800   -6.2530   63.3000 N.am  335  TRP335     -0.1976
     28  CA       -22.5530   -6.4690   61.8520 C.3   335  TRP335      0.1640
     29  C        -23.6690   -5.5930   61.3010 C.2   335  TRP335      0.2290
     30  O        -23.6020   -5.1440   60.1520 O.2   335  TRP335     -0.2864
     31  CB       -22.8870   -7.9600   61.4840 C.3   335  TRP335      0.0576
     32  CG       -21.7330   -8.6670   60.9760 C.ar  335  TRP335      0.0006
     33  CD1      -21.0970   -9.7040   61.5690 C.ar  335  TRP335      0.0946
     34  CD2      -20.9910   -8.3780   59.7540 C.ar  335  TRP335      0.0152
     35  NE1      -20.0190  -10.0960   60.8010 N.ar  335  TRP335     -0.2442
     36  CE2      -19.9310   -9.2960   59.6930 C.ar  335  TRP335      0.0810
     37  CE3      -21.1500   -7.4470   58.7040 C.ar  335  TRP335      0.0012
     38  CZ2      -18.9970   -9.3070   58.6400 C.ar  335  TRP335      0.0191
     39  CZ3      -20.2460   -7.4630   57.6720 C.ar  335  TRP335      0.0001
     40  CH2      -19.1670   -8.4050   57.6460 C.ar  335  TRP335      0.0015
     41  N        -22.3060   -2.2300   60.4730 N.3   338  MET338     -0.1245
     42  CA       -21.6020   -2.2100   59.1950 C.3   338  MET338      0.1570
     43  C        -22.6410   -2.1140   58.0440 C.2   338  MET338      0.2261
     44  O        -22.4190   -1.4180   57.0250 O.2   338  MET338     -0.2867
     45  CB       -20.8480   -3.5240   59.0240 C.3   338  MET338      0.0387
     46  CG       -20.0780   -3.5950   57.7160 C.3   338  MET338      0.0595
     47  SD       -18.4880   -2.7950   57.9420 S.3   338  MET338     -0.1393
     48  CE       -18.7560   -1.0580   58.1140 C.3   338  MET338      0.0692
     49  N        -19.6760   -0.1760   65.7320 N.3   359  THR359     -0.1218
     50  CA       -19.0500   -0.4220   64.4180 C.3   359  THR359      0.1862
     51  C        -18.7050    0.8910   63.7000 C.2   359  THR359      0.2287
     52  O        -19.5980    1.7210   63.4100 O.2   359  THR359     -0.2866
     53  CB       -19.9980   -1.2430   63.5250 C.3   359  THR359      0.1770
     54  OG1      -20.4500   -2.3330   64.2900 O.3   359  THR359     -0.2211
     55  CG2      -19.3080   -1.7400   62.2690 C.3   359  THR359      0.0375
     56  N         -8.7710   -9.2770   65.4500 N.3   380  PHE380     -0.1241
     57  CA        -9.6320   -9.8300   64.4420 C.3   380  PHE380      0.1605
     58  C         -9.3320  -11.2790   64.0950 C.2   380  PHE380      0.2264
     59  O         -9.8900  -11.7740   63.1200 O.2   380  PHE380     -0.2867
     60  CB        -9.6330   -9.0150   63.1500 C.3   380  PHE380      0.0534
     61  CG       -10.2110   -7.6190   63.2770 C.ar  380  PHE380     -0.0203
     62  CD1      -11.1640   -7.3030   64.2570 C.ar  380  PHE380     -0.0042
     63  CD2       -9.7990   -6.6170   62.3830 C.ar  380  PHE380     -0.0042
     64  CE1      -11.6640   -6.0110   64.3510 C.ar  380  PHE380     -0.0003
     65  CE2      -10.3000   -5.3220   62.4650 C.ar  380  PHE380     -0.0003
     66  CZ       -11.2390   -5.0250   63.4530 C.ar  380  PHE380     -0.0000
     67  N        -10.3390  -14.0400   65.3220 N.3   382  TYR382     -0.1227
     68  CA       -11.5840  -14.8100   65.3420 C.3   382  TYR382      0.1736
     69  C        -12.2820  -14.7910   63.9340 C.2   382  TYR382      0.2595
     70  O        -12.9360  -15.7530   63.5570 O.2   382  TYR382     -0.2718
     71  CB       -12.4950  -14.2890   66.4590 C.3   382  TYR382      0.0548
     72  CG       -13.1100  -12.9760   66.0690 C.ar  382  TYR382     -0.0200
     73  CD1      -14.2930  -12.9360   65.3190 C.ar  382  TYR382     -0.0009
     74  CD2      -12.4950  -11.7920   66.3810 C.ar  382  TYR382     -0.0009
     75  CE1      -14.8440  -11.7550   64.8990 C.ar  382  TYR382      0.0417
     76  CE2      -13.0420  -10.5810   65.9680 C.ar  382  TYR382      0.0417
     77  CZ       -14.2230  -10.5770   65.2350 C.ar  382  TYR382      0.1957
     78  OH       -14.7970   -9.4040   64.8450 O.3   382  TYR382     -0.2866
     79  N        -12.1000  -13.7200   63.1580 N.am  383  GLN383     -0.1979
     80  CA       -12.6510  -13.6890   61.8040 C.3   383  GLN383      0.1601
     81  C        -12.0380  -14.7290   60.8950 C.2   383  GLN383      0.2287
     82  O        -12.7410  -15.2350   60.0110 O.2   383  GLN383     -0.2864
     83  CB       -12.5540  -12.3000   61.1760 C.3   383  GLN383      0.0394
     84  CG       -13.1340  -11.2180   62.0850 C.3   383  GLN383      0.0908
     85  CD       -13.3670   -9.8920   61.3850 C.2   383  GLN383      0.2608
     86  OE1      -13.4790   -8.8330   62.0290 O.2   383  GLN383     -0.2717
     87  NE2      -13.4180   -9.9260   60.0850 N.am  383  GLN383     -0.0878
     88  N        -13.5720  -18.0480   61.7270 N.3   386  PHE386     -0.1241
     89  CA       -14.9030  -18.1800   61.1300 C.3   386  PHE386      0.1605
     90  C        -14.9380  -18.5500   59.6680 C.2   386  PHE386      0.2264
     91  O        -16.0450  -18.8670   59.1150 O.2   386  PHE386     -0.2867
     92  CB       -15.6580  -16.8480   61.3050 C.3   386  PHE386      0.0534
     93  CG       -16.0650  -16.5520   62.7140 C.ar  386  PHE386     -0.0203
     94  CD1      -15.9010  -17.4880   63.7200 C.ar  386  PHE386     -0.0042
     95  CD2      -16.7210  -15.3260   63.0320 C.ar  386  PHE386     -0.0042
     96  CE1      -16.3450  -17.2120   64.9860 C.ar  386  PHE386     -0.0003
     97  CE2      -17.1240  -15.0440   64.3360 C.ar  386  PHE386     -0.0003
     98  CZ       -16.9330  -15.9950   65.3190 C.ar  386  PHE386     -0.0000
     99  N        -20.4870  -15.6570   75.5120 N.3   407  LEU407     -0.1245
    100  CA       -20.4800  -14.4170   74.7000 C.3   407  LEU407      0.1561
    101  C        -21.0050  -13.2220   75.4460 C.2   407  LEU407      0.2260
    102  O        -20.2820  -12.2320   75.6150 O.2   407  LEU407     -0.2867
    103  CB       -21.2760  -14.6690   73.3930 C.3   407  LEU407      0.0270
    104  CG       -20.5880  -15.6540   72.4470 C.3   407  LEU407      0.0019
    105  CD1      -21.5450  -15.9940   71.3120 C.3   407  LEU407      0.0001
    106  CD2      -19.2860  -15.0730   71.8710 C.3   407  LEU407      0.0001
    107  N        -10.2270  -12.6460   72.2290 N.3   418  MET418     -0.1245
    108  CA       -10.3470  -12.9140   70.7920 C.3   418  MET418      0.1570
    109  C         -8.9470  -13.1770   70.2440 C.2   418  MET418      0.2261
    110  O         -8.6440  -12.9490   69.0530 O.2   418  MET418     -0.2867
    111  CB       -11.0230  -11.7290   70.0880 C.3   418  MET418      0.0387
    112  CG       -12.4560  -11.4720   70.5550 C.3   418  MET418      0.0595
    113  SD       -13.4980  -12.9260   70.3620 S.3   418  MET418     -0.1393
    114  CE       -14.5020  -12.7910   71.8270 C.3   418  MET418      0.0692
    115  N        -13.1020  -20.8720   70.0440 N.3   427  LEU427     -0.1245
    116  CA       -13.4370  -19.6700   70.8040 C.3   427  LEU427      0.1561
    117  C        -13.5510  -19.9250   72.2900 C.2   427  LEU427      0.2260
    118  O        -13.2790  -19.0520   73.1040 O.2   427  LEU427     -0.2867
    119  CB       -14.7920  -19.1790   70.3030 C.3   427  LEU427      0.0270
    120  CG       -15.1680  -17.7340   70.0850 C.3   427  LEU427      0.0019
    121  CD1      -14.0290  -16.9450   69.4790 C.3   427  LEU427      0.0001
    122  CD2      -16.3780  -17.7890   69.1520 C.3   427  LEU427      0.0001
    123  N        -19.5470  -13.4350   57.5800 N.3   465  TYR465     -0.1241
    124  CA       -18.0810  -13.2200   57.6320 C.3   465  TYR465      0.1605
    125  C        -17.4120  -13.8240   56.4610 C.2   465  TYR465      0.2264
    126  O        -16.1970  -13.7290   56.3220 O.2   465  TYR465     -0.2867
    127  CB       -17.4670  -13.9120   58.8500 C.3   465  TYR465      0.0534
    128  CG       -17.7420  -13.2340   60.1830 C.ar  465  TYR465     -0.0201
    129  CD1      -16.9260  -12.2100   60.6490 C.ar  465  TYR465     -0.0009
    130  CD2      -18.8610  -13.6040   60.9590 C.ar  465  TYR465     -0.0009
    131  CE1      -17.1510  -11.6260   61.9020 C.ar  465  TYR465      0.0417
    132  CE2      -19.1080  -13.0160   62.1700 C.ar  465  TYR465      0.0417
    133  CZ       -18.2600  -12.0390   62.6450 C.ar  465  TYR465      0.1957
    134  OH       -18.5340  -11.4740   63.8760 O.3   465  TYR465     -0.2866
    135  N        -15.6950  -11.6740   52.4380 N.3   468  MET468     -0.1245
    136  CA       -14.7240  -10.5550   52.6310 C.3   468  MET468      0.1570
    137  C        -14.3670   -9.9620   51.2810 C.2   468  MET468      0.2261
    138  O        -14.4620   -8.7590   51.0960 O.2   468  MET468     -0.2867
    139  CB       -13.4320  -10.9170   53.4620 C.3   468  MET468      0.0387
    140  CG       -13.6220  -11.1700   55.0090 C.3   468  MET468      0.0595
    141  SD       -14.8730  -10.1060   55.9070 S.3   468  MET468     -0.1393
    142  CE       -14.9160  -10.7300   57.6070 C.3   468  MET468      0.0692
    143  N        -12.9540   -5.2050   70.8270 N.3   497  VAL497     -0.1231
    144  CA       -12.8770   -5.6010   69.4380 C.3   497  VAL497      0.1692
    145  C        -13.1760   -4.3920   68.5150 C.2   497  VAL497      0.2591
    146  O        -12.3460   -4.0150   67.6750 O.2   497  VAL497     -0.2718
    147  CB       -13.8180   -6.7900   69.1340 C.3   497  VAL497      0.0266
    148  CG1      -13.7020   -7.2210   67.6780 C.3   497  VAL497      0.0020
    149  CG2      -13.4460   -7.9480   70.0410 C.3   497  VAL497      0.0020
    150  N        -14.3390   -3.7680   68.7150 N.am  498  LEU498     -0.1980
    151  CA       -14.6920   -2.5590   67.9720 C.3   498  LEU498      0.1596
    152  C        -14.3150   -1.3670   68.8280 C.2   498  LEU498      0.2287
    153  O        -15.1620   -0.7940   69.5110 O.2   498  LEU498     -0.2864
    154  CB       -16.1960   -2.5720   67.5910 C.3   498  LEU498      0.0297
    155  CG       -16.5920   -3.8580   66.8170 C.3   498  LEU498      0.0022
    156  CD1      -18.1010   -3.8680   66.5810 C.3   498  LEU498      0.0001
    157  CD2      -15.8150   -4.0290   65.4950 C.3   498  LEU498      0.0001
    158  N        -19.0080   -4.7730   74.6230 N.3   523  HIS523     -0.1226
    159  CA       -19.4200   -5.0040   73.2710 C.3   523  HIS523      0.1752
    160  C        -20.9760   -5.0630   73.1500 C.2   523  HIS523      0.2596
    161  O        -21.5050   -4.6850   72.1150 O.2   523  HIS523     -0.2718
    162  CB       -18.8710   -6.3270   72.7220 C.3   523  HIS523      0.0759
    163  CG       -19.3430   -6.6000   71.3270 C.ar  523  HIS523      0.0818
    164  ND1      -18.9210   -5.8260   70.2540 N.ar  523  HIS523     -0.2268
    165  CD2      -20.2800   -7.4620   70.8390 C.ar  523  HIS523      0.1154
    166  CE1      -19.5390   -6.2510   69.1630 C.ar  523  HIS523      0.1986
    167  NE2      -20.3540   -7.2450   69.4830 N.ar  523  HIS523     -0.2212
    168  N        -21.6900   -5.5180   74.1970 N.am  524  TRP524     -0.1976
    169  CA       -23.1240   -5.8130   74.0530 C.3   524  TRP524      0.1640
    170  C        -23.8610   -4.5930   74.5050 C.2   524  TRP524      0.2290
    171  O        -24.6100   -4.6200   75.4560 O.2   524  TRP524     -0.2864
    172  CB       -23.4820   -7.0720   74.8400 C.3   524  TRP524      0.0576
    173  CG       -22.5320   -8.1270   74.5480 C.ar  524  TRP524      0.0006
    174  CD1      -21.4530   -8.5100   75.3260 C.ar  524  TRP524      0.0946
    175  CD2      -22.4620   -8.9230   73.3460 C.ar  524  TRP524      0.0152
    176  NE1      -20.7550   -9.5260   74.6900 N.ar  524  TRP524     -0.2442
    177  CE2      -21.3430   -9.8120   73.4960 C.ar  524  TRP524      0.0810
    178  CE3      -23.2690   -9.0260   72.1860 C.ar  524  TRP524      0.0012
    179  CZ2      -20.9770  -10.7470   72.5010 C.ar  524  TRP524      0.0191
    180  CZ3      -22.9470   -9.9680   71.2340 C.ar  524  TRP524      0.0001
    181  CH2      -21.7990  -10.8360   71.3970 C.ar  524  TRP524      0.0015
@<TRIPOS>BOND
     1   138   137    2
     2   137   136    1
     3   135   136    1
     4   136   139    1
     5   139   140    1
     6   140   141    1
     7   141   142    1
     8   126   125    2
     9   125   124    1
    10    44    43    2
    11   123   124    1
    12   124   127    1
    13    40    39   ar
    14    40    38   ar
    15    39    37   ar
    16    46    47    1
    17    46    45    1
    18    47    48    1
    19    43    42    1
    20    38    36   ar
    21    37    34   ar
    22   127   128    1
    23    45    42    1
    24    91    90    2
    25    42    41    1
    26    90    89    1
    27    36    34   ar
    28    36    35   ar
    29    34    32   ar
    30    82    81    2
    31    87    85   am
    32    30    29    2
    33   128   129   ar
    34   128   130   ar
    35   129   131   ar
    36    35    33   ar
    37    81    80    1
    38   130   132   ar
    39    32    31    1
    40    32    33   ar
    41    89    92    1
    42    89    88    1
    43    83    80    1
    44    83    84    1
    45    29    28    1
    46    92    93    1
    47    85    86    2
    48    85    84    1
    49    31    28    1
    50    80    79    1
    51    28    27    1
    52   131   133   ar
    53   132   133   ar
    54    55    53    1
    55    63    65   ar
    56    63    61   ar
    57    65    66   ar
    58   133   134    1
    59    93    95   ar
    60    93    94   ar
    61    22    21    2
    62    95    97   ar
    63    59    58    2
    64    60    61    1
    65    60    57    1
    66    79    69   am
    67    61    62   ar
    68    27    21   am
    69    52    51    2
    70    66    64   ar
    71    53    54    1
    72    53    50    1
    73    70    69    2
    74    51    50    1
    75    94    96   ar
    76    21    20    1
    77     8    10   ar
    78     8     6   ar
    79    69    68    1
    80    10    11   ar
    81    58    57    1
    82    62    64   ar
    83    97    98   ar
    84    50    49    1
    85    57    56    1
    86     5     6    1
    87     5     2    1
    88     6     7   ar
    89    78    77    1
    90    75    77   ar
    91    75    73   ar
    92    11     9   ar
    93    96    98   ar
    94    25    24   ar
    95    77    76   ar
    96    20    19    1
    97    20    23    1
    98    73    72   ar
    99    67    68    1
   100    68    71    1
   101     1     2    1
   102     2     3    1
   103   157   155    1
   104     7     9   ar
   105    24    23    1
   106    24    26   ar
   107    76    74   ar
   108    72    74   ar
   109    72    71    1
   110   156   155    1
   111   155   154    1
   112    13    16    1
   113    13    12    1
   114    13    14    1
   115     3    12   am
   116     3     4    2
   117    16    17    1
   118    12    18    1
   119   154   151    1
   120    14    15    2
   121   146   145    2
   122   148   147    1
   123   151   150    1
   124   151   152    1
   125    17    18    1
   126   145   150   am
   127   145   144    1
   128   152   153    2
   129   110   109    2
   130   147   144    1
   131   147   149    1
   132   122   120    1
   133   166   167   ar
   134   166   164   ar
   135   144   143    1
   136   121   120    1
   137   167   165   ar
   138   115   116    1
   139   120   119    1
   140   111   112    1
   141   111   108    1
   142   109   108    1
   143   164   163   ar
   144   119   116    1
   145   113   112    1
   146   113   114    1
   147   108   107    1
   148   116   117    1
   149   165   163   ar
   150   180   181   ar
   151   180   178   ar
   152   105   104    1
   153   163   162    1
   154   181   179   ar
   155   106   104    1
   156   161   160    2
   157   178   175   ar
   158   117   118    2
   159   104   103    1
   160   179   177   ar
   161   162   159    1
   162   160   159    1
   163   160   168   am
   164   159   158    1
   165   175   177   ar
   166   175   173   ar
   167   103   100    1
   168   177   176   ar
   169   169   168    1
   170   169   170    1
   171   169   172    1
   172   170   171    2
   173   173   172    1
   174   173   174   ar
   175   176   174   ar
   176   100   101    1
   177   100    99    1
   178   101   102    2
