@<TRIPOS>MOLECULE
tmp/3wk7A00.pdb
 173 171 0 0 0
SMALL
GASTEIGER

@<TRIPOS>ATOM
      1  N        -23.7590   -9.7930   65.4630 N.3   266  PHE266     -0.1228
      2  CA       -23.4880  -11.2340   65.5850 C.3   266  PHE266      0.1721
      3  C        -23.1390  -11.5870   67.0180 C.2   266  PHE266      0.2437
      4  O        -22.3830  -10.8710   67.6640 O.2   266  PHE266     -0.2733
      5  CB       -22.2930  -11.5750   64.7190 C.3   266  PHE266      0.0547
      6  CG       -21.7800  -12.9610   64.9070 C.ar  266  PHE266     -0.0202
      7  CD1      -20.8000  -13.2490   65.8850 C.ar  266  PHE266     -0.0042
      8  CD2      -22.2420  -13.9990   64.0780 C.ar  266  PHE266     -0.0042
      9  CE1      -20.2910  -14.5640   66.0340 C.ar  266  PHE266     -0.0003
     10  CE2      -21.7640  -15.3310   64.2120 C.ar  266  PHE266     -0.0003
     11  CZ       -20.7900  -15.6070   65.2020 C.ar  266  PHE266     -0.0000
     12  N        -23.6670  -12.6850   67.5420 N.am  267  PRO267     -0.2729
     13  CA       -24.6940  -13.5330   66.9830 C.3   267  PRO267      0.1401
     14  C        -25.9280  -13.2480   67.7490 C.2   267  PRO267      0.2269
     15  O        -26.0710  -13.7780   68.8500 O.2   267  PRO267     -0.2865
     16  CB       -24.2000  -14.9470   67.3420 C.3   267  PRO267      0.0296
     17  CG       -23.3090  -14.7520   68.5390 C.3   267  PRO267      0.0237
     18  CD       -23.0450  -13.2860   68.7490 C.3   267  PRO267      0.0939
     19  N        -22.6980   -3.5150   65.6150 N.3   334  ASP334     -0.1225
     20  CA       -21.8430   -4.6290   65.1920 C.3   334  ASP334      0.1805
     21  C        -22.0220   -4.8860   63.6740 C.2   334  ASP334      0.2597
     22  O        -22.0140   -3.9260   62.8660 O.2   334  ASP334     -0.2718
     23  CB       -22.1440   -5.8800   66.1010 C.3   334  ASP334      0.1424
     24  CG       -21.2110   -7.0550   65.8100 C.2   334  ASP334      0.3668
     25  OD1      -21.6060   -7.9720   65.0430 O.co2 334  ASP334     -0.2456
     26  OD2      -20.0530   -6.9980   66.2720 O.co2 334  ASP334     -0.2456
     27  N        -22.2140   -6.1450   63.2380 N.am  335  TRP335     -0.1976
     28  CA       -22.4960   -6.3690   61.7920 C.3   335  TRP335      0.1640
     29  C        -23.6770   -5.5230   61.2580 C.2   335  TRP335      0.2290
     30  O        -23.6260   -5.0790   60.1020 O.2   335  TRP335     -0.2864
     31  CB       -22.7310   -7.8730   61.4180 C.3   335  TRP335      0.0576
     32  CG       -21.4630   -8.5100   61.0900 C.ar  335  TRP335      0.0006
     33  CD1      -20.7780   -9.3440   61.8730 C.ar  335  TRP335      0.0946
     34  CD2      -20.6300   -8.2480   59.9280 C.ar  335  TRP335      0.0152
     35  NE1      -19.5780   -9.7010   61.2700 N.ar  335  TRP335     -0.2442
     36  CE2      -19.4670   -9.0490   60.0700 C.ar  335  TRP335      0.0810
     37  CE3      -20.7810   -7.4610   58.7750 C.ar  335  TRP335      0.0012
     38  CZ2      -18.4070   -9.0520   59.1140 C.ar  335  TRP335      0.0191
     39  CZ3      -19.7540   -7.4830   57.8040 C.ar  335  TRP335      0.0001
     40  CH2      -18.5850   -8.2850   57.9660 C.ar  335  TRP335      0.0015
     41  N        -22.2490   -2.1170   60.3830 N.3   338  MET338     -0.1245
     42  CA       -21.5890   -2.0820   59.0610 C.3   338  MET338      0.1570
     43  C        -22.6110   -1.9550   57.9530 C.2   338  MET338      0.2261
     44  O        -22.3720   -1.2450   56.9110 O.2   338  MET338     -0.2867
     45  CB       -20.8390   -3.3920   58.8050 C.3   338  MET338      0.0387
     46  CG       -19.9180   -3.3860   57.5990 C.3   338  MET338      0.0595
     47  SD       -18.4140   -2.5210   58.0650 S.3   338  MET338     -0.1393
     48  CE       -18.5890   -0.9990   57.1770 C.3   338  MET338      0.0692
     49  N        -19.6140   -0.0880   65.5870 N.3   359  THR359     -0.1218
     50  CA       -18.9970   -0.2670   64.2700 C.3   359  THR359      0.1862
     51  C        -18.6230    1.0580   63.6020 C.2   359  THR359      0.2287
     52  O        -19.5080    1.8730   63.3100 O.2   359  THR359     -0.2866
     53  CB       -19.9040   -1.0680   63.3220 C.3   359  THR359      0.1770
     54  OG1      -20.3850   -2.2110   64.0240 O.3   359  THR359     -0.2211
     55  CG2      -19.1590   -1.5300   62.1080 C.3   359  THR359      0.0375
     56  N         -8.4320   -9.0640   65.2360 N.3   380  PHE380     -0.1241
     57  CA        -9.2950   -9.7260   64.2700 C.3   380  PHE380      0.1605
     58  C         -8.8230  -11.1360   63.8550 C.2   380  PHE380      0.2264
     59  O         -9.4140  -11.7090   62.9260 O.2   380  PHE380     -0.2867
     60  CB        -9.5410   -8.8430   63.0230 C.3   380  PHE380      0.0534
     61  CG       -10.2130   -7.5040   63.3140 C.ar  380  PHE380     -0.0203
     62  CD1      -11.3770   -7.4210   64.1140 C.ar  380  PHE380     -0.0042
     63  CD2       -9.6910   -6.3200   62.7550 C.ar  380  PHE380     -0.0042
     64  CE1      -11.9670   -6.1790   64.3640 C.ar  380  PHE380     -0.0003
     65  CE2      -10.2800   -5.0800   63.0000 C.ar  380  PHE380     -0.0003
     66  CZ       -11.4140   -5.0070   63.8090 C.ar  380  PHE380     -0.0000
     67  N         -9.4650  -13.9830   65.2330 N.3   382  TYR382     -0.1227
     68  CA       -10.6020  -14.8950   65.3700 C.3   382  TYR382      0.1736
     69  C        -11.4580  -14.9900   64.0630 C.2   382  TYR382      0.2595
     70  O        -12.1580  -15.9900   63.8390 O.2   382  TYR382     -0.2718
     71  CB       -11.4820  -14.4620   66.5620 C.3   382  TYR382      0.0548
     72  CG       -12.2570  -13.2410   66.2150 C.ar  382  TYR382     -0.0200
     73  CD1      -13.5020  -13.3370   65.6180 C.ar  382  TYR382     -0.0009
     74  CD2      -11.7080  -11.9850   66.3950 C.ar  382  TYR382     -0.0009
     75  CE1      -14.2010  -12.2030   65.2530 C.ar  382  TYR382      0.0417
     76  CE2      -12.4030  -10.8450   66.0360 C.ar  382  TYR382      0.0417
     77  CZ       -13.6410  -10.9680   65.4670 C.ar  382  TYR382      0.1957
     78  OH       -14.3250   -9.8520   65.0990 O.3   382  TYR382     -0.2866
     79  N        -11.4360  -13.9400   63.2280 N.am  383  GLN383     -0.1979
     80  CA       -12.2120  -13.9710   61.9760 C.3   383  GLN383      0.1601
     81  C        -11.6520  -15.0490   61.0410 C.2   383  GLN383      0.2287
     82  O        -12.4150  -15.6710   60.2760 O.2   383  GLN383     -0.2864
     83  CB       -12.2460  -12.5840   61.2990 C.3   383  GLN383      0.0394
     84  CG       -12.7630  -11.4690   62.2350 C.3   383  GLN383      0.0908
     85  CD       -13.2250  -10.1800   61.5130 C.2   383  GLN383      0.2608
     86  OE1      -13.6270   -9.1820   62.1590 O.2   383  GLN383     -0.2717
     87  NE2      -13.1700  -10.1870   60.2010 N.am  383  GLN383     -0.0878
     88  N        -13.2560  -18.1390   61.5870 N.3   386  PHE386     -0.1241
     89  CA       -14.6610  -18.1520   61.1890 C.3   386  PHE386      0.1605
     90  C        -14.8390  -18.5530   59.7360 C.2   386  PHE386      0.2264
     91  O        -15.9640  -18.8660   59.3110 O.2   386  PHE386     -0.2867
     92  CB       -15.3310  -16.7830   61.4520 C.3   386  PHE386      0.0534
     93  CG       -15.6830  -16.5310   62.9040 C.ar  386  PHE386     -0.0203
     94  CD1      -15.5520  -17.5250   63.8720 C.ar  386  PHE386     -0.0042
     95  CD2      -16.2150  -15.2850   63.3010 C.ar  386  PHE386     -0.0042
     96  CE1      -15.9040  -17.2690   65.1940 C.ar  386  PHE386     -0.0003
     97  CE2      -16.5710  -15.0310   64.6230 C.ar  386  PHE386     -0.0003
     98  CZ       -16.4240  -16.0270   65.5710 C.ar  386  PHE386     -0.0000
     99  N        -20.4260  -15.4970   75.6140 N.3   407  LEU407     -0.1245
    100  CA       -20.3090  -14.2800   74.7780 C.3   407  LEU407      0.1561
    101  C        -20.8700  -13.0710   75.4780 C.2   407  LEU407      0.2260
    102  O        -20.1730  -12.0460   75.6270 O.2   407  LEU407     -0.2867
    103  CB       -21.0030  -14.4910   73.4300 C.3   407  LEU407      0.0270
    104  CG       -20.2120  -15.3970   72.4840 C.3   407  LEU407      0.0019
    105  CD1      -21.1430  -15.8240   71.3790 C.3   407  LEU407      0.0001
    106  CD2      -18.9310  -14.7200   71.9520 C.3   407  LEU407      0.0001
    107  N        -10.1570  -12.5480   72.3080 N.3   418  MET418     -0.1245
    108  CA       -10.2720  -12.9530   70.9220 C.3   418  MET418      0.1570
    109  C         -8.8750  -13.2400   70.3600 C.2   418  MET418      0.2261
    110  O         -8.6220  -13.0840   69.1490 O.2   418  MET418     -0.2867
    111  CB       -11.0550  -11.8890   70.1470 C.3   418  MET418      0.0387
    112  CG       -12.5000  -11.7490   70.6290 C.3   418  MET418      0.0595
    113  SD       -13.5240  -13.1930   70.2500 S.3   418  MET418     -0.1393
    114  CE       -13.5250  -14.0620   71.8140 C.3   418  MET418      0.0692
    115  N        -12.7960  -20.7980   69.9830 N.3   427  LEU427     -0.1245
    116  CA       -13.1730  -19.6040   70.7230 C.3   427  LEU427      0.1561
    117  C        -13.2630  -19.8490   72.2390 C.2   427  LEU427      0.2260
    118  O        -13.0040  -18.9310   73.0200 O.2   427  LEU427     -0.2867
    119  CB       -14.5420  -19.1520   70.2040 C.3   427  LEU427      0.0270
    120  CG       -14.9880  -17.6990   70.1170 C.3   427  LEU427      0.0019
    121  CD1      -13.9650  -16.8310   69.3980 C.3   427  LEU427      0.0001
    122  CD2      -16.3270  -17.7120   69.3910 C.3   427  LEU427      0.0001
    123  N        -19.3340  -13.2090   57.8220 N.3   465  TYR465     -0.1241
    124  CA       -17.8720  -13.0610   57.8390 C.3   465  TYR465      0.1605
    125  C        -17.1760  -13.6690   56.6660 C.2   465  TYR465      0.2264
    126  O        -15.9560  -13.5710   56.5590 O.2   465  TYR465     -0.2867
    127  CB       -17.3030  -13.8320   59.0140 C.3   465  TYR465      0.0534
    128  CG       -17.6100  -13.2500   60.3630 C.ar  465  TYR465     -0.0201
    129  CD1      -16.8100  -12.2450   60.8940 C.ar  465  TYR465     -0.0009
    130  CD2      -18.7070  -13.6920   61.1020 C.ar  465  TYR465     -0.0009
    131  CE1      -17.0490  -11.7230   62.1490 C.ar  465  TYR465      0.0417
    132  CE2      -18.9650  -13.1600   62.3640 C.ar  465  TYR465      0.0417
    133  CZ       -18.1220  -12.1870   62.8700 C.ar  465  TYR465      0.1957
    134  OH       -18.3760  -11.6790   64.1310 O.3   465  TYR465     -0.2866
    135  N        -12.9620   -5.4150   70.8570 N.3   497  VAL497     -0.1231
    136  CA       -13.0050   -5.8110   69.4530 C.3   497  VAL497      0.1692
    137  C        -13.1900   -4.5980   68.4750 C.2   497  VAL497      0.2591
    138  O        -12.4130   -4.3970   67.5200 O.2   497  VAL497     -0.2718
    139  CB       -14.1790   -6.7720   69.1840 C.3   497  VAL497      0.0266
    140  CG1      -14.0310   -7.3890   67.8130 C.3   497  VAL497      0.0020
    141  CG2      -14.3350   -7.8160   70.2810 C.3   497  VAL497      0.0020
    142  N        -14.2360   -3.8100   68.7180 N.am  498  LEU498     -0.1980
    143  CA       -14.5540   -2.6540   67.8670 C.3   498  LEU498      0.1596
    144  C        -14.2210   -1.4400   68.7000 C.2   498  LEU498      0.2287
    145  O        -15.1030   -0.8820   69.3910 O.2   498  LEU498     -0.2864
    146  CB       -16.0460   -2.6530   67.4710 C.3   498  LEU498      0.0297
    147  CG       -16.5010   -3.8770   66.6440 C.3   498  LEU498      0.0022
    148  CD1      -18.0250   -3.8570   66.4480 C.3   498  LEU498      0.0001
    149  CD2      -15.8160   -3.9090   65.2730 C.3   498  LEU498      0.0001
    150  N        -18.7330   -4.6770   74.5550 N.3   523  HIS523     -0.1226
    151  CA       -19.1900   -4.8390   73.1980 C.3   523  HIS523      0.1752
    152  C        -20.7610   -4.9060   73.0190 C.2   523  HIS523      0.2596
    153  O        -21.2620   -4.4910   71.9840 O.2   523  HIS523     -0.2718
    154  CB       -18.5800   -6.0970   72.6040 C.3   523  HIS523      0.0759
    155  CG       -19.1260   -6.4180   71.2450 C.ar  523  HIS523      0.0818
    156  ND1      -18.7020   -5.7610   70.1110 N.ar  523  HIS523     -0.2268
    157  CD2      -20.1140   -7.2670   70.8540 C.ar  523  HIS523      0.1154
    158  CE1      -19.3710   -6.2300   69.0710 C.ar  523  HIS523      0.1986
    159  NE2      -20.2370   -7.1360   69.4940 N.ar  523  HIS523     -0.2212
    160  N        -21.4980   -5.4360   73.9970 N.am  524  TRP524     -0.1976
    161  CA       -22.9570   -5.6500   73.9200 C.3   524  TRP524      0.1640
    162  C        -23.6820   -4.4120   74.3850 C.2   524  TRP524      0.2290
    163  O        -24.3780   -4.4240   75.3820 O.2   524  TRP524     -0.2864
    164  CB       -23.3400   -6.8450   74.7670 C.3   524  TRP524      0.0576
    165  CG       -22.3910   -7.9670   74.4860 C.ar  524  TRP524      0.0006
    166  CD1      -21.3320   -8.3580   75.2740 C.ar  524  TRP524      0.0946
    167  CD2      -22.3350   -8.7880   73.3030 C.ar  524  TRP524      0.0152
    168  NE1      -20.6500   -9.4020   74.6910 N.ar  524  TRP524     -0.2442
    169  CE2      -21.2350   -9.7050   73.4890 C.ar  524  TRP524      0.0810
    170  CE3      -23.1150   -8.8790   72.1380 C.ar  524  TRP524      0.0012
    171  CZ2      -20.8660  -10.6470   72.5310 C.ar  524  TRP524      0.0191
    172  CZ3      -22.7930   -9.8510   71.2050 C.ar  524  TRP524      0.0001
    173  CH2      -21.6550  -10.7380   71.4090 C.ar  524  TRP524      0.0015
@<TRIPOS>BOND
     1   126   125    2
     2   125   124    1
     3    44    43    2
     4    48    47    1
     5    46    47    1
     6    46    45    1
     7    39    40   ar
     8    39    37   ar
     9   123   124    1
    10   124   127    1
    11    43    42    1
    12    40    38   ar
    13    37    34   ar
    14    45    42    1
    15   127   128    1
    16    42    41    1
    17    38    36   ar
    18    91    90    2
    19    90    89    1
    20    34    36   ar
    21    34    32   ar
    22    36    35   ar
    23    30    29    2
    24    87    85   am
    25    82    81    2
    26   128   129   ar
    27   128   130   ar
    28   129   131   ar
    29    81    80    1
    30    32    31    1
    31    32    33   ar
    32   130   132   ar
    33    89    92    1
    34    89    88    1
    35    29    28    1
    36    35    33   ar
    37    83    80    1
    38    83    84    1
    39    31    28    1
    40    92    93    1
    41    85    86    2
    42    85    84    1
    43    28    27    1
    44    80    79    1
    45    55    53    1
    46   131   133   ar
    47   132   133   ar
    48    63    65   ar
    49    63    61   ar
    50    22    21    2
    51   133   134    1
    52    93    95   ar
    53    93    94   ar
    54    59    58    2
    55    65    66   ar
    56    60    61    1
    57    60    57    1
    58    79    69   am
    59    27    21   am
    60    95    97   ar
    61    52    51    2
    62    61    62   ar
    63    53    54    1
    64    53    50    1
    65    51    50    1
    66    21    20    1
    67    66    64   ar
    68    70    69    2
    69    58    57    1
    70    94    96   ar
    71    69    68    1
    72     8    10   ar
    73     8     6   ar
    74    62    64   ar
    75    10    11   ar
    76    50    49    1
    77    57    56    1
    78    97    98   ar
    79     5     6    1
    80     5     2    1
    81     6     7   ar
    82    25    24   ar
    83    78    77    1
    84    20    19    1
    85    20    23    1
    86    96    98   ar
    87    11     9   ar
    88    67    68    1
    89    75    77   ar
    90    75    73   ar
    91   149   147    1
    92    68    71    1
    93     1     2    1
    94    77    76   ar
    95     2     3    1
    96    73    72   ar
    97    24    23    1
    98    24    26   ar
    99     7     9   ar
   100    76    74   ar
   101    72    74   ar
   102    72    71    1
   103   148   147    1
   104   147   146    1
   105    13    16    1
   106    13    12    1
   107    13    14    1
   108     3    12   am
   109     3     4    2
   110    16    17    1
   111   146   143    1
   112   138   137    2
   113    12    18    1
   114    14    15    2
   115   140   139    1
   116   143   144    1
   117   143   142    1
   118   137   142   am
   119   137   136    1
   120    17    18    1
   121   144   145    2
   122   158   159   ar
   123   158   156   ar
   124   110   109    2
   125   139   136    1
   126   139   141    1
   127   122   120    1
   128   121   120    1
   129   136   135    1
   130   159   157   ar
   131   115   116    1
   132   156   155   ar
   133   120   119    1
   134   111   112    1
   135   111   108    1
   136   119   116    1
   137   113   112    1
   138   113   114    1
   139   109   108    1
   140   116   117    1
   141   157   155   ar
   142   108   107    1
   143   172   173   ar
   144   172   170   ar
   145   155   154    1
   146   105   104    1
   147   173   171   ar
   148   106   104    1
   149   153   152    2
   150   170   167   ar
   151   117   118    2
   152   104   103    1
   153   171   169   ar
   154   154   151    1
   155   152   151    1
   156   152   160   am
   157   151   150    1
   158   167   169   ar
   159   167   165   ar
   160   103   100    1
   161   169   168   ar
   162   161   160    1
   163   161   162    1
   164   161   164    1
   165   162   163    2
   166   165   164    1
   167   165   166   ar
   168   168   166   ar
   169   100   101    1
   170   100    99    1
   171   101   102    2
