@<TRIPOS>MOLECULE
tmp/3wk8A00.pdb
 175 172 0 0 0
SMALL
GASTEIGER

@<TRIPOS>ATOM
      1  N        -23.6510   -9.7970   65.3360 N.3   266  PHE266     -0.1228
      2  CA       -23.4450  -11.2310   65.4030 C.3   266  PHE266      0.1721
      3  C        -23.0730  -11.6490   66.8260 C.2   266  PHE266      0.2437
      4  O        -22.2490  -10.9890   67.4560 O.2   266  PHE266     -0.2733
      5  CB       -22.2840  -11.5980   64.5020 C.3   266  PHE266      0.0547
      6  CG       -21.8170  -13.0080   64.6800 C.ar  266  PHE266     -0.0202
      7  CD1      -20.9030  -13.3460   65.7040 C.ar  266  PHE266     -0.0042
      8  CD2      -22.2980  -14.0180   63.8360 C.ar  266  PHE266     -0.0042
      9  CE1      -20.4590  -14.7140   65.8740 C.ar  266  PHE266     -0.0003
     10  CE2      -21.8810  -15.3540   63.9720 C.ar  266  PHE266     -0.0003
     11  CZ       -20.9430  -15.7080   65.0070 C.ar  266  PHE266     -0.0000
     12  N        -23.6230  -12.7450   67.3220 N.am  267  PRO267     -0.2729
     13  CA       -24.6430  -13.5730   66.8010 C.3   267  PRO267      0.1401
     14  C        -25.8720  -13.2300   67.6100 C.2   267  PRO267      0.2269
     15  O        -26.0140  -13.7290   68.7340 O.2   267  PRO267     -0.2865
     16  CB       -24.1490  -14.9850   67.1650 C.3   267  PRO267      0.0296
     17  CG       -23.2220  -14.8190   68.3340 C.3   267  PRO267      0.0237
     18  CD       -23.1190  -13.3150   68.5950 C.3   267  PRO267      0.0939
     19  N        -22.5000   -3.6010   65.5900 N.3   334  ASP334     -0.1239
     20  CA       -21.5940   -4.7120   65.1930 C.3   334  ASP334      0.1674
     21  C        -21.8420   -4.9720   63.6930 C.2   334  ASP334      0.2266
     22  O        -21.8540   -4.0030   62.9060 O.2   334  ASP334     -0.2867
     23  CB       -21.8040   -5.9790   66.0880 C.3   334  ASP334      0.1410
     24  CG       -20.8500   -7.1500   65.7200 C.2   334  ASP334      0.3668
     25  OD1      -21.2950   -8.0840   64.9810 O.co2 334  ASP334     -0.2456
     26  OD2      -19.6500   -7.1050   66.1080 O.co2 334  ASP334     -0.2456
     27  N        -10.2500  -13.7340   65.6990 N.3   382  TYR382     -0.1241
     28  CA       -11.4800  -14.5670   65.7210 C.3   382  TYR382      0.1605
     29  C        -12.2580  -14.5820   64.3570 C.2   382  TYR382      0.2264
     30  O        -12.9190  -15.5890   64.0050 O.2   382  TYR382     -0.2867
     31  CB       -12.3430  -14.1620   66.8800 C.3   382  TYR382      0.0534
     32  CG       -13.0670  -12.9090   66.5920 C.ar  382  TYR382     -0.0201
     33  CD1      -14.3870  -12.9350   66.1380 C.ar  382  TYR382     -0.0009
     34  CD2      -12.4500  -11.6930   66.7430 C.ar  382  TYR382     -0.0009
     35  CE1      -15.0550  -11.7950   65.8400 C.ar  382  TYR382      0.0417
     36  CE2      -13.1260  -10.5280   66.4930 C.ar  382  TYR382      0.0417
     37  CZ       -14.4130  -10.5790   66.0250 C.ar  382  TYR382      0.1957
     38  OH       -15.0710   -9.3840   65.7530 O.3   382  TYR382     -0.2866
     39  N        -13.4150  -17.8160   61.9340 N.3   386  PHE386     -0.1241
     40  CA       -14.7620  -17.9610   61.3630 C.3   386  PHE386      0.1605
     41  C        -14.8060  -18.3320   59.8990 C.2   386  PHE386      0.2264
     42  O        -15.8940  -18.6900   59.3960 O.2   386  PHE386     -0.2867
     43  CB       -15.5780  -16.6870   61.5780 C.3   386  PHE386      0.0534
     44  CG       -15.9980  -16.4450   63.0090 C.ar  386  PHE386     -0.0203
     45  CD1      -15.7940  -17.3920   64.0050 C.ar  386  PHE386     -0.0042
     46  CD2      -16.6420  -15.2520   63.3490 C.ar  386  PHE386     -0.0042
     47  CE1      -16.2110  -17.1470   65.2940 C.ar  386  PHE386     -0.0003
     48  CE2      -17.0640  -14.9870   64.6510 C.ar  386  PHE386     -0.0003
     49  CZ       -16.8470  -15.9430   65.6370 C.ar  386  PHE386     -0.0000
     50  N        -19.7780  -23.4870   68.0980 N.3   396  LEU396     -0.1245
     51  CA       -20.8320  -22.6110   68.6110 C.3   396  LEU396      0.1561
     52  C        -22.1640  -23.2980   68.8360 C.2   396  LEU396      0.2260
     53  O        -22.8570  -22.9650   69.7550 O.2   396  LEU396     -0.2867
     54  CB       -21.0270  -21.4210   67.6810 C.3   396  LEU396      0.0270
     55  CG       -19.9060  -20.4040   67.7070 C.3   396  LEU396      0.0019
     56  CD1      -20.0160  -19.5540   66.4480 C.3   396  LEU396      0.0001
     57  CD2      -20.1170  -19.5400   68.9140 C.3   396  LEU396      0.0001
     58  N        -20.3920  -15.5790   75.5350 N.3   407  LEU407     -0.1245
     59  CA       -20.3710  -14.3570   74.7150 C.3   407  LEU407      0.1561
     60  C        -20.8810  -13.1220   75.4300 C.2   407  LEU407      0.2260
     61  O        -20.1290  -12.1390   75.6170 O.2   407  LEU407     -0.2867
     62  CB       -21.1940  -14.6580   73.4620 C.3   407  LEU407      0.0270
     63  CG       -20.5140  -15.6520   72.5090 C.3   407  LEU407      0.0019
     64  CD1      -21.5930  -15.9540   71.5080 C.3   407  LEU407      0.0001
     65  CD2      -19.2900  -15.0440   71.8260 C.3   407  LEU407      0.0001
     66  N        -14.5080  -11.4830   79.9300 N.3   415  VAL415     -0.1231
     67  CA       -14.7110  -11.5860   78.4990 C.3   415  VAL415      0.1692
     68  C        -13.7490  -12.6430   77.8640 C.2   415  VAL415      0.2591
     69  O        -12.6110  -12.8250   78.3240 O.2   415  VAL415     -0.2718
     70  CB       -14.6270  -10.1770   77.8430 C.3   415  VAL415      0.0266
     71  CG1      -15.6930   -9.2660   78.4550 C.3   415  VAL415      0.0020
     72  CG2      -13.2100   -9.5680   77.9550 C.3   415  VAL415      0.0020
     73  N        -14.2310  -13.3480   76.8390 N.am  416  LEU416     -0.1980
     74  CA       -13.4190  -14.2730   76.0410 C.3   416  LEU416      0.1596
     75  C        -12.2110  -13.5490   75.4700 C.2   416  LEU416      0.2287
     76  O        -12.2930  -12.3550   75.1440 O.2   416  LEU416     -0.2864
     77  CB       -14.2320  -14.7600   74.8500 C.3   416  LEU416      0.0297
     78  CG       -15.4520  -15.6190   75.0330 C.3   416  LEU416      0.0022
     79  CD1      -16.3100  -15.4720   73.7890 C.3   416  LEU416      0.0001
     80  CD2      -14.9650  -17.0330   75.2450 C.3   416  LEU416      0.0001
     81  N         -9.8900  -12.5540   72.4390 N.3   418  MET418     -0.1245
     82  CA       -10.2570  -12.4470   71.0300 C.3   418  MET418      0.1570
     83  C         -8.9670  -12.7230   70.2530 C.2   418  MET418      0.2261
     84  O         -8.8370  -12.5730   69.0050 O.2   418  MET418     -0.2867
     85  CB       -10.9030  -11.0620   70.8040 C.3   418  MET418      0.0387
     86  CG       -12.2700  -10.9240   71.5080 C.3   418  MET418      0.0595
     87  SD       -13.4600  -12.1070   70.8170 S.3   418  MET418     -0.1393
     88  CE       -13.5040  -13.3260   72.0840 C.3   418  MET418      0.0692
     89  N        -12.9650  -20.6490   70.0620 N.3   427  LEU427     -0.1245
     90  CA       -13.3330  -19.4650   70.8500 C.3   427  LEU427      0.1561
     91  C        -13.4650  -19.7500   72.3340 C.2   427  LEU427      0.2260
     92  O        -13.2490  -18.8510   73.1520 O.2   427  LEU427     -0.2867
     93  CB       -14.6700  -18.9310   70.3360 C.3   427  LEU427      0.0270
     94  CG       -14.9940  -17.4790   70.5430 C.3   427  LEU427      0.0019
     95  CD1      -13.8290  -16.5950   70.0930 C.3   427  LEU427      0.0001
     96  CD2      -16.2440  -17.2660   69.6820 C.3   427  LEU427      0.0001
     97  N        -19.4200  -13.1380   57.8920 N.3   465  TYR465     -0.1241
     98  CA       -17.9630  -12.9590   57.8740 C.3   465  TYR465      0.1605
     99  C        -17.2220  -13.5670   56.7450 C.2   465  TYR465      0.2264
    100  O        -16.0290  -13.3740   56.6950 O.2   465  TYR465     -0.2867
    101  CB       -17.3460  -13.6210   59.0710 C.3   465  TYR465      0.0534
    102  CG       -17.6350  -12.9510   60.3790 C.ar  465  TYR465     -0.0201
    103  CD1      -16.8340  -11.9180   60.8740 C.ar  465  TYR465     -0.0009
    104  CD2      -18.6870  -13.3750   61.1160 C.ar  465  TYR465     -0.0009
    105  CE1      -17.0880  -11.3300   62.1090 C.ar  465  TYR465      0.0417
    106  CE2      -18.9520  -12.8370   62.3260 C.ar  465  TYR465      0.0417
    107  CZ       -18.1670  -11.8400   62.8180 C.ar  465  TYR465      0.1957
    108  OH       -18.5740  -11.3510   64.0260 O.3   465  TYR465     -0.2866
    109  N        -14.9540    0.2480   76.3650 N.3   494  LYS494     -0.1231
    110  CA       -14.3300   -1.0520   76.6670 C.3   494  LYS494      0.1693
    111  C        -14.7070   -2.1290   75.7060 C.2   494  LYS494      0.2592
    112  O        -14.6940   -3.3330   76.0340 O.2   494  LYS494     -0.2718
    113  CB       -14.6710   -1.4500   78.1040 C.3   494  LYS494      0.0285
    114  CG       -13.9380   -0.5470   79.0810 C.3   494  LYS494      0.0035
    115  CD       -14.0390   -1.0970   80.4800 C.3   494  LYS494      0.0206
    116  CE       -13.2850   -0.1030   81.3470 C.3   494  LYS494      0.1093
    117  NZ       -13.8580   -0.0310   82.7250 N.3   494  LYS494     -0.1314
    118  N        -15.0310   -1.7080   74.4910 N.am  495  ASP495     -0.1960
    119  CA       -15.0890   -2.6840   73.4230 C.3   495  ASP495      0.1840
    120  C        -13.6320   -2.8610   72.9310 C.2   495  ASP495      0.2622
    121  O        -13.0980   -2.0030   72.2280 O.2   495  ASP495     -0.2715
    122  CB       -16.0730   -2.2700   72.2800 C.3   495  ASP495      0.1450
    123  CG       -16.2940   -3.3970   71.2700 C.2   495  ASP495      0.3671
    124  OD1      -15.3260   -4.1550   71.0410 O.co2 495  ASP495     -0.2456
    125  OD2      -17.4040   -3.5350   70.6860 O.co2 495  ASP495     -0.2456
    126  N        -12.9950   -3.9870   73.2870 N.am  496  PHE496     -0.1960
    127  CA       -11.5830   -4.1480   72.9300 C.3   496  PHE496      0.1771
    128  C        -11.3120   -4.6910   71.5630 C.2   496  PHE496      0.2619
    129  O        -10.1710   -5.0090   71.2480 O.2   496  PHE496     -0.2715
    130  CB       -10.7940   -4.8930   74.0110 C.3   496  PHE496      0.0574
    131  CG       -10.8920   -4.2390   75.3330 C.ar  496  PHE496     -0.0200
    132  CD1      -11.3850   -4.9190   76.4110 C.ar  496  PHE496     -0.0042
    133  CD2      -10.5310   -2.8740   75.5000 C.ar  496  PHE496     -0.0042
    134  CE1      -11.4840   -4.2960   77.6540 C.ar  496  PHE496     -0.0003
    135  CE2      -10.6390   -2.2380   76.7550 C.ar  496  PHE496     -0.0003
    136  CZ       -11.1290   -2.9620   77.8220 C.ar  496  PHE496     -0.0000
    137  N        -12.3490   -4.7970   70.7400 N.am  497  VAL497     -0.1963
    138  CA       -12.2050   -5.2160   69.3540 C.3   497  VAL497      0.1727
    139  C        -12.5900   -4.0070   68.4710 C.2   497  VAL497      0.2616
    140  O        -11.8090   -3.5380   67.6540 O.2   497  VAL497     -0.2715
    141  CB       -13.1170   -6.4060   69.0190 C.3   497  VAL497      0.0290
    142  CG1      -13.0850   -6.7040   67.5240 C.3   497  VAL497      0.0023
    143  CG2      -12.7040   -7.6150   69.8180 C.3   497  VAL497      0.0023
    144  N        -13.8190   -3.5190   68.6450 N.am  498  LEU498     -0.1977
    145  CA       -14.2450   -2.3710   67.8850 C.3   498  LEU498      0.1596
    146  C        -13.8760   -1.1910   68.7490 C.2   498  LEU498      0.2287
    147  O        -14.7260   -0.6100   69.4010 O.2   498  LEU498     -0.2864
    148  CB       -15.7370   -2.4330   67.5330 C.3   498  LEU498      0.0297
    149  CG       -16.1180   -3.7040   66.7000 C.3   498  LEU498      0.0022
    150  CD1      -17.6530   -3.8080   66.6050 C.3   498  LEU498      0.0001
    151  CD2      -15.4720   -3.7190   65.2970 C.3   498  LEU498      0.0001
    152  N        -18.6850   -4.7510   74.6030 N.3   523  HIS523     -0.1226
    153  CA       -19.1050   -4.9250   73.2180 C.3   523  HIS523      0.1752
    154  C        -20.6570   -5.0070   73.0330 C.2   523  HIS523      0.2596
    155  O        -21.1800   -4.6200   71.9810 O.2   523  HIS523     -0.2718
    156  CB       -18.4740   -6.1830   72.6110 C.3   523  HIS523      0.0759
    157  CG       -19.0200   -6.5300   71.2470 C.ar  523  HIS523      0.0818
    158  ND1      -18.6530   -5.8400   70.1030 N.ar  523  HIS523     -0.2268
    159  CD2      -19.9480   -7.4470   70.8580 C.ar  523  HIS523      0.1154
    160  CE1      -19.2980   -6.3510   69.0650 C.ar  523  HIS523      0.1986
    161  NE2      -20.0880   -7.3300   69.4910 N.ar  523  HIS523     -0.2212
    162  N        -21.3730   -5.5170   74.0290 N.am  524  TRP524     -0.1976
    163  CA       -22.8080   -5.7850   73.9080 C.3   524  TRP524      0.1640
    164  C        -23.5540   -4.5670   74.3480 C.2   524  TRP524      0.2290
    165  O        -24.2890   -4.6030   75.2850 O.2   524  TRP524     -0.2864
    166  CB       -23.1890   -7.0140   74.6940 C.3   524  TRP524      0.0576
    167  CG       -22.2320   -8.0920   74.4030 C.ar  524  TRP524      0.0006
    168  CD1      -21.1780   -8.4970   75.2060 C.ar  524  TRP524      0.0946
    169  CD2      -22.1510   -8.9060   73.2050 C.ar  524  TRP524      0.0152
    170  NE1      -20.4820   -9.5260   74.6000 N.ar  524  TRP524     -0.2442
    171  CE2      -21.0520   -9.8030   73.3850 C.ar  524  TRP524      0.0810
    172  CE3      -22.9320   -9.0150   72.0310 C.ar  524  TRP524      0.0012
    173  CZ2      -20.6800  -10.7310   72.4180 C.ar  524  TRP524      0.0191
    174  CZ3      -22.5660   -9.9380   71.0750 C.ar  524  TRP524      0.0001
    175  CH2      -21.4300  -10.7960   71.2800 C.ar  524  TRP524      0.0015
@<TRIPOS>BOND
     1   100    99    2
     2    99    98    1
     3    98    97    1
     4    98   101    1
     5   101   102    1
     6    42    41    2
     7    41    40    1
     8   102   103   ar
     9   102   104   ar
    10   103   105   ar
    11   104   106   ar
    12    40    43    1
    13    40    39    1
    14    43    44    1
    15   105   107   ar
    16   106   107   ar
    17   107   108    1
    18    22    21    2
    19    44    46   ar
    20    44    45   ar
    21    46    48   ar
    22    21    20    1
    23     8    10   ar
    24     8     6   ar
    25    10    11   ar
    26    30    29    2
    27    45    47   ar
    28    29    28    1
    29     5     6    1
    30     5     2    1
    31    48    49   ar
    32     6     7   ar
    33    25    24   ar
    34    11     9   ar
    35    20    19    1
    36    20    23    1
    37    47    49   ar
    38   151   149    1
    39     1     2    1
    40     2     3    1
    41    27    28    1
    42     7     9   ar
    43    24    23    1
    44    24    26   ar
    45    28    31    1
    46    38    37    1
    47    35    37   ar
    48    35    33   ar
    49    37    36   ar
    50    33    32   ar
    51    56    55    1
    52    36    34   ar
    53    32    34   ar
    54    32    31    1
    55   150   149    1
    56   149   148    1
    57    13    16    1
    58    13    12    1
    59    13    14    1
    60     3    12   am
    61     3     4    2
    62    16    17    1
    63    12    18    1
    64   142   141    1
    65   148   145    1
    66    14    15    2
    67   140   139    2
    68    54    55    1
    69    54    51    1
    70    55    57    1
    71   145   144    1
    72   145   146    1
    73    50    51    1
    74    17    18    1
    75   139   144   am
    76   139   138    1
    77    51    52    1
    78   146   147    2
    79    52    53    2
    80    84    83    2
    81   141   138    1
    82   141   143    1
    83   160   161   ar
    84   160   158   ar
    85   138   137    1
    86   161   159   ar
    87    96    94    1
    88    89    90    1
    89    95    94    1
    90   158   157   ar
    91    83    82    1
    92    93    94    1
    93    93    90    1
    94   125   123   ar
    95   137   128   am
    96    85    82    1
    97    85    86    1
    98    87    86    1
    99    87    88    1
   100    90    91    1
   101   159   157   ar
   102    82    81    1
   103   124   123   ar
   104   174   175   ar
   105   174   172   ar
   106   157   156    1
   107   129   128    2
   108   123   122    1
   109   175   173   ar
   110    64    63    1
   111   128   127    1
   112    65    63    1
   113   155   154    2
   114   172   169   ar
   115   121   120    2
   116   122   119    1
   117    91    92    2
   118   173   171   ar
   119    63    62    1
   120   156   153    1
   121   127   126    1
   122   127   130    1
   123   120   126   am
   124   120   119    1
   125   154   153    1
   126   154   162   am
   127   169   171   ar
   128   169   167   ar
   129   153   152    1
   130   171   170   ar
   131   119   118    1
   132    62    59    1
   133    79    78    1
   134   163   162    1
   135   163   164    1
   136   163   166    1
   137   130   131    1
   138   164   165    2
   139   167   166    1
   140   167   168   ar
   141   118   111   am
   142   170   168   ar
   143    59    60    1
   144    59    58    1
   145    77    78    1
   146    77    74    1
   147    78    80    1
   148    76    75    2
   149   131   133   ar
   150   131   132   ar
   151    60    61    2
   152    75    74    1
   153   133   135   ar
   154   111   112    2
   155   111   110    1
   156    74    73    1
   157   109   110    1
   158   132   134   ar
   159   110   113    1
   160   135   136   ar
   161    73    68   am
   162   134   136   ar
   163    70    72    1
   164    70    71    1
   165    70    67    1
   166    68    69    2
   167    68    67    1
   168   113   114    1
   169    67    66    1
   170   114   115    1
   171   115   116    1
   172   116   117    1
