@<TRIPOS>MOLECULE
tmp/3wk9A00.pdb
 151 149 0 0 0
SMALL
GASTEIGER

@<TRIPOS>ATOM
      1  N        -23.5130   -9.5980   65.4330 N.3   266  PHE266     -0.1228
      2  CA       -23.2900  -11.0330   65.5670 C.3   266  PHE266      0.1721
      3  C        -22.8960  -11.3420   66.9960 C.2   266  PHE266      0.2437
      4  O        -22.0650  -10.6400   67.5580 O.2   266  PHE266     -0.2733
      5  CB       -22.1920  -11.4760   64.6160 C.3   266  PHE266      0.0547
      6  CG       -21.6990  -12.8870   64.8670 C.ar  266  PHE266     -0.0202
      7  CD1      -20.7270  -13.1410   65.8490 C.ar  266  PHE266     -0.0042
      8  CD2      -22.1920  -13.9590   64.1060 C.ar  266  PHE266     -0.0042
      9  CE1      -20.2350  -14.4520   66.0580 C.ar  266  PHE266     -0.0003
     10  CE2      -21.7170  -15.2880   64.2930 C.ar  266  PHE266     -0.0003
     11  CZ       -20.7390  -15.5310   65.2920 C.ar  266  PHE266     -0.0000
     12  N        -23.4880  -12.3790   67.6010 N.am  267  PRO267     -0.2729
     13  CA       -24.5510  -13.2220   67.0720 C.3   267  PRO267      0.1401
     14  C        -25.7870  -12.9600   67.8670 C.2   267  PRO267      0.2269
     15  O        -25.9390  -13.5090   68.9730 O.2   267  PRO267     -0.2865
     16  CB       -24.0300  -14.6270   67.3750 C.3   267  PRO267      0.0296
     17  CG       -23.2480  -14.4820   68.6630 C.3   267  PRO267      0.0237
     18  CD       -22.8860  -12.9760   68.8190 C.3   267  PRO267      0.0939
     19  N        -22.4950   -3.3680   65.7400 N.3   334  ASP334     -0.1239
     20  CA       -21.6060   -4.4580   65.2260 C.3   334  ASP334      0.1674
     21  C        -21.7990   -4.6900   63.7120 C.2   334  ASP334      0.2266
     22  O        -21.7600   -3.7130   62.9170 O.2   334  ASP334     -0.2867
     23  CB       -21.8990   -5.7270   66.0610 C.3   334  ASP334      0.1410
     24  CG       -20.9280   -6.8930   65.7300 C.2   334  ASP334      0.3668
     25  OD1      -21.2750   -7.8090   64.9000 O.co2 334  ASP334     -0.2456
     26  OD2      -19.8110   -6.8140   66.2440 O.co2 334  ASP334     -0.2456
     27  N        -10.1740  -13.6210   65.5830 N.3   382  TYR382     -0.1241
     28  CA       -11.3900  -14.4480   65.6080 C.3   382  TYR382      0.1605
     29  C        -12.1220  -14.4970   64.2170 C.2   382  TYR382      0.2264
     30  O        -12.7770  -15.4920   63.8430 O.2   382  TYR382     -0.2867
     31  CB       -12.2970  -13.9910   66.7600 C.3   382  TYR382      0.0534
     32  CG       -13.0510  -12.7500   66.4350 C.ar  382  TYR382     -0.0201
     33  CD1      -14.2540  -12.8070   65.7210 C.ar  382  TYR382     -0.0009
     34  CD2      -12.5620  -11.5020   66.7990 C.ar  382  TYR382     -0.0009
     35  CE1      -14.9750  -11.6620   65.4030 C.ar  382  TYR382      0.0417
     36  CE2      -13.2560  -10.3460   66.4670 C.ar  382  TYR382      0.0417
     37  CZ       -14.4640  -10.4310   65.7640 C.ar  382  TYR382      0.1957
     38  OH       -15.1730   -9.2820   65.4520 O.3   382  TYR382     -0.2866
     39  N        -13.2650  -17.6900   61.8210 N.3   386  PHE386     -0.1241
     40  CA       -14.6210  -17.8260   61.3020 C.3   386  PHE386      0.1605
     41  C        -14.6730  -18.2530   59.8340 C.2   386  PHE386      0.2264
     42  O        -15.7320  -18.5920   59.3220 O.2   386  PHE386     -0.2867
     43  CB       -15.3920  -16.5180   61.4850 C.3   386  PHE386      0.0534
     44  CG       -15.8110  -16.2480   62.8880 C.ar  386  PHE386     -0.0203
     45  CD1      -15.5720  -17.1680   63.9160 C.ar  386  PHE386     -0.0042
     46  CD2      -16.5070  -15.0560   63.1860 C.ar  386  PHE386     -0.0042
     47  CE1      -16.0140  -16.9090   65.2160 C.ar  386  PHE386     -0.0003
     48  CE2      -16.9620  -14.8020   64.4850 C.ar  386  PHE386     -0.0003
     49  CZ       -16.7140  -15.7400   65.5000 C.ar  386  PHE386     -0.0000
     50  N        -19.7180  -23.3150   68.2420 N.3   396  LEU396     -0.1245
     51  CA       -20.7210  -22.4050   68.8280 C.3   396  LEU396      0.1561
     52  C        -22.0600  -23.0880   69.0320 C.2   396  LEU396      0.2260
     53  O        -22.7550  -22.7900   69.9870 O.2   396  LEU396     -0.2867
     54  CB       -20.8800  -21.1340   67.9510 C.3   396  LEU396      0.0270
     55  CG       -19.5580  -20.3660   67.8170 C.3   396  LEU396      0.0019
     56  CD1      -19.6420  -19.4210   66.6290 C.3   396  LEU396      0.0001
     57  CD2      -19.3560  -19.5740   69.0870 C.3   396  LEU396      0.0001
     58  N        -20.3930  -15.2690   75.9510 N.3   407  LEU407     -0.1245
     59  CA       -20.2720  -14.0720   75.1020 C.3   407  LEU407      0.1561
     60  C        -20.7910  -12.8260   75.7650 C.2   407  LEU407      0.2260
     61  O        -20.0880  -11.7890   75.8400 O.2   407  LEU407     -0.2867
     62  CB       -20.9970  -14.3020   73.7750 C.3   407  LEU407      0.0270
     63  CG       -20.1860  -15.1520   72.8020 C.3   407  LEU407      0.0019
     64  CD1      -21.0980  -15.4380   71.6330 C.3   407  LEU407      0.0001
     65  CD2      -18.9280  -14.3560   72.3560 C.3   407  LEU407      0.0001
     66  N        -10.0140  -12.4860   72.5580 N.3   418  MET418     -0.1245
     67  CA       -10.2080  -12.6530   71.1180 C.3   418  MET418      0.1570
     68  C         -8.8550  -12.9410   70.4620 C.2   418  MET418      0.2261
     69  O         -8.6700  -12.7420   69.2330 O.2   418  MET418     -0.2867
     70  CB       -10.9260  -11.4220   70.5280 C.3   418  MET418      0.0387
     71  CG       -12.3290  -11.1850   71.1150 C.3   418  MET418      0.0595
     72  SD       -13.4320  -12.6230   70.9820 S.3   418  MET418     -0.1393
     73  CE       -14.8290  -12.1080   71.9900 C.3   418  MET418      0.0692
     74  N        -12.4610  -20.6090   70.0680 N.3   427  LEU427     -0.1245
     75  CA       -12.8760  -19.4700   70.8770 C.3   427  LEU427      0.1561
     76  C        -12.9860  -19.7470   72.3640 C.2   427  LEU427      0.2260
     77  O        -12.8300  -18.8230   73.1660 O.2   427  LEU427     -0.2867
     78  CB       -14.2800  -19.0830   70.4380 C.3   427  LEU427      0.0270
     79  CG       -14.6370  -17.6750   70.0460 C.3   427  LEU427      0.0019
     80  CD1      -13.4490  -16.7380   69.8450 C.3   427  LEU427      0.0001
     81  CD2      -15.3440  -17.9720   68.7410 C.3   427  LEU427      0.0001
     82  N        -19.4060  -13.0300   57.9090 N.3   465  TYR465     -0.1241
     83  CA       -17.9260  -12.8180   57.8970 C.3   465  TYR465      0.1605
     84  C        -17.1950  -13.4290   56.7460 C.2   465  TYR465      0.2264
     85  O        -15.9690  -13.2470   56.6570 O.2   465  TYR465     -0.2867
     86  CB       -17.2700  -13.4470   59.1200 C.3   465  TYR465      0.0534
     87  CG       -17.5770  -12.7700   60.4380 C.ar  465  TYR465     -0.0201
     88  CD1      -16.8190  -11.6950   60.9140 C.ar  465  TYR465     -0.0009
     89  CD2      -18.6310  -13.2400   61.2280 C.ar  465  TYR465     -0.0009
     90  CE1      -17.1110  -11.1070   62.1590 C.ar  465  TYR465      0.0417
     91  CE2      -18.9100  -12.6760   62.4390 C.ar  465  TYR465      0.0417
     92  CZ       -18.1690  -11.6160   62.8900 C.ar  465  TYR465      0.1957
     93  OH       -18.5540  -11.1130   64.0880 O.3   465  TYR465     -0.2866
     94  N        -15.0500   -1.4330   74.6130 N.3   495  ASP495     -0.1225
     95  CA       -15.0690   -2.3830   73.5380 C.3   495  ASP495      0.1805
     96  C        -13.5830   -2.5210   73.0640 C.2   495  ASP495      0.2598
     97  O        -13.0600   -1.6140   72.4630 O.2   495  ASP495     -0.2718
     98  CB       -16.0420   -1.9930   72.4090 C.3   495  ASP495      0.1424
     99  CG       -16.1910   -3.0800   71.3960 C.2   495  ASP495      0.3668
    100  OD1      -15.2470   -3.8990   71.2410 O.co2 495  ASP495     -0.2456
    101  OD2      -17.2380   -3.1190   70.7190 O.co2 495  ASP495     -0.2456
    102  N        -12.9460   -3.6570   73.3840 N.am  496  PHE496     -0.1962
    103  CA       -11.5300   -3.9340   73.0280 C.3   496  PHE496      0.1771
    104  C        -11.2930   -4.4490   71.6320 C.2   496  PHE496      0.2619
    105  O        -10.1350   -4.6540   71.2180 O.2   496  PHE496     -0.2715
    106  CB       -10.8560   -4.7980   74.1060 C.3   496  PHE496      0.0574
    107  CG       -10.9040   -4.1590   75.4730 C.ar  496  PHE496     -0.0200
    108  CD1      -11.4330   -4.8300   76.5550 C.ar  496  PHE496     -0.0042
    109  CD2      -10.5020   -2.8220   75.6440 C.ar  496  PHE496     -0.0042
    110  CE1      -11.4970   -4.2140   77.8040 C.ar  496  PHE496     -0.0003
    111  CE2      -10.5850   -2.1890   76.8820 C.ar  496  PHE496     -0.0003
    112  CZ       -11.0610   -2.9010   77.9700 C.ar  496  PHE496     -0.0000
    113  N        -12.3770   -4.6300   70.8760 N.am  497  VAL497     -0.1963
    114  CA       -12.2660   -5.0290   69.4750 C.3   497  VAL497      0.1727
    115  C        -12.6200   -3.8520   68.5740 C.2   497  VAL497      0.2616
    116  O        -11.7740   -3.3950   67.7360 O.2   497  VAL497     -0.2715
    117  CB       -13.1050   -6.2890   69.1610 C.3   497  VAL497      0.0290
    118  CG1      -13.1780   -6.5860   67.6430 C.3   497  VAL497      0.0023
    119  CG2      -12.5390   -7.4600   69.9470 C.3   497  VAL497      0.0023
    120  N        -13.8320   -3.3260   68.7930 N.am  498  LEU498     -0.1977
    121  CA       -14.2900   -2.1610   68.0550 C.3   498  LEU498      0.1596
    122  C        -13.9340   -0.9260   68.8940 C.2   498  LEU498      0.2287
    123  O        -14.8120   -0.2800   69.4290 O.2   498  LEU498     -0.2864
    124  CB       -15.7920   -2.2810   67.7410 C.3   498  LEU498      0.0297
    125  CG       -16.1260   -3.4540   66.7950 C.3   498  LEU498      0.0022
    126  CD1      -17.6340   -3.6170   66.6070 C.3   498  LEU498      0.0001
    127  CD2      -15.4430   -3.2630   65.4230 C.3   498  LEU498      0.0001
    128  N        -18.5890   -4.5000   74.6140 N.3   523  HIS523     -0.1226
    129  CA       -19.0510   -4.6980   73.2810 C.3   523  HIS523      0.1752
    130  C        -20.6050   -4.7410   73.1770 C.2   523  HIS523      0.2596
    131  O        -21.1620   -4.3070   72.2030 O.2   523  HIS523     -0.2718
    132  CB       -18.4300   -5.9620   72.6790 C.3   523  HIS523      0.0759
    133  CG       -18.9470   -6.2600   71.2980 C.ar  523  HIS523      0.0818
    134  ND1      -18.5260   -5.5480   70.1780 N.ar  523  HIS523     -0.2268
    135  CD2      -19.9180   -7.1050   70.8710 C.ar  523  HIS523      0.1154
    136  CE1      -19.1590   -6.0160   69.1150 C.ar  523  HIS523      0.1986
    137  NE2      -20.0220   -6.9420   69.5110 N.ar  523  HIS523     -0.2212
    138  N        -21.2970   -5.2500   74.1810 N.am  524  TRP524     -0.1976
    139  CA       -22.7510   -5.4840   74.0820 C.3   524  TRP524      0.1640
    140  C        -23.4990   -4.2410   74.5220 C.2   524  TRP524      0.2290
    141  O        -24.2230   -4.2500   75.4890 O.2   524  TRP524     -0.2864
    142  CB       -23.1540   -6.6710   74.9300 C.3   524  TRP524      0.0576
    143  CG       -22.2060   -7.7910   74.6180 C.ar  524  TRP524      0.0006
    144  CD1      -21.1100   -8.1750   75.3870 C.ar  524  TRP524      0.0946
    145  CD2      -22.1610   -8.5850   73.4350 C.ar  524  TRP524      0.0152
    146  NE1      -20.4050   -9.1490   74.7510 N.ar  524  TRP524     -0.2442
    147  CE2      -21.0080   -9.4410   73.5550 C.ar  524  TRP524      0.0810
    148  CE3      -22.9700   -8.6840   72.2900 C.ar  524  TRP524      0.0012
    149  CZ2      -20.6570  -10.3940   72.5730 C.ar  524  TRP524      0.0191
    150  CZ3      -22.6160   -9.6010   71.3040 C.ar  524  TRP524      0.0001
    151  CH2      -21.4600  -10.4570   71.4430 C.ar  524  TRP524      0.0015
@<TRIPOS>BOND
     1    85    84    2
     2    84    83    1
     3    83    82    1
     4    83    86    1
     5    86    87    1
     6    42    41    2
     7    41    40    1
     8    87    88   ar
     9    87    89   ar
    10    88    90   ar
    11    89    91   ar
    12    40    43    1
    13    40    39    1
    14    43    44    1
    15    90    92   ar
    16    91    92   ar
    17    44    46   ar
    18    44    45   ar
    19    92    93    1
    20    22    21    2
    21    46    48   ar
    22    21    20    1
    23    30    29    2
    24    45    47   ar
    25     8    10   ar
    26     8     6   ar
    27    29    28    1
    28    10    11   ar
    29    48    49   ar
    30     5     6    1
    31     5     2    1
    32     6     7   ar
    33    25    24   ar
    34    47    49   ar
    35    20    19    1
    36    20    23    1
    37    11     9   ar
    38    35    33   ar
    39    35    37   ar
    40   127   125    1
    41     1     2    1
    42    38    37    1
    43     2     3    1
    44    27    28    1
    45    28    31    1
    46    33    32   ar
    47    24    23    1
    48    24    26   ar
    49    37    36   ar
    50     7     9   ar
    51    32    31    1
    52    32    34   ar
    53    36    34   ar
    54   126   125    1
    55    56    55    1
    56   125   124    1
    57     3     4    2
    58     3    12   am
    59    13    16    1
    60    13    12    1
    61    13    14    1
    62    16    17    1
    63    12    18    1
    64   118   117    1
    65   116   115    2
    66   124   121    1
    67    55    54    1
    68    55    57    1
    69    14    15    2
    70    54    51    1
    71   121   120    1
    72   121   122    1
    73    50    51    1
    74   115   120   am
    75   115   114    1
    76    17    18    1
    77    81    79    1
    78    51    52    1
    79   122   123    2
    80    52    53    2
    81   136   137   ar
    82   136   134   ar
    83   117   114    1
    84   117   119    1
    85    69    68    2
    86   114   113    1
    87   137   135   ar
    88    80    79    1
    89    79    78    1
    90    74    75    1
    91   134   133   ar
    92    78    75    1
    93    68    67    1
    94    70    71    1
    95    70    67    1
    96   101    99   ar
    97   135   133   ar
    98   113   104   am
    99    75    76    1
   100    72    71    1
   101    72    73    1
   102    67    66    1
   103   105   104    2
   104   100    99   ar
   105   133   132    1
   106   150   151   ar
   107   150   148   ar
   108    99    98    1
   109   151   149   ar
   110   104   103    1
   111    64    63    1
   112   131   130    2
   113   148   145   ar
   114    65    63    1
   115    76    77    2
   116    98    95    1
   117    97    96    2
   118   149   147   ar
   119   132   129    1
   120    63    62    1
   121   103   102    1
   122   103   106    1
   123    96   102   am
   124    96    95    1
   125   130   129    1
   126   130   138   am
   127   129   128    1
   128   145   147   ar
   129   145   143   ar
   130    95    94    1
   131   147   146   ar
   132    62    59    1
   133   139   138    1
   134   139   140    1
   135   139   142    1
   136   106   107    1
   137   140   141    2
   138   143   142    1
   139   143   144   ar
   140   146   144   ar
   141    59    60    1
   142    59    58    1
   143   107   109   ar
   144   107   108   ar
   145   109   111   ar
   146    60    61    2
   147   108   110   ar
   148   111   112   ar
   149   110   112   ar
