@<TRIPOS>MOLECULE
tmp/3wkaA00.pdb
 177 173 0 0 0
SMALL
GASTEIGER

@<TRIPOS>ATOM
      1  N        -23.4650   -9.8230   65.1020 N.3   266  PHE266     -0.1228
      2  CA       -23.2420  -11.2900   65.2080 C.3   266  PHE266      0.1721
      3  C        -22.9680  -11.6730   66.6870 C.2   266  PHE266      0.2437
      4  O        -22.2720  -10.9050   67.4170 O.2   266  PHE266     -0.2733
      5  CB       -22.0280  -11.6540   64.3700 C.3   266  PHE266      0.0547
      6  CG       -21.6030  -13.0730   64.5190 C.ar  266  PHE266     -0.0202
      7  CD1      -20.7100  -13.4480   65.5400 C.ar  266  PHE266     -0.0042
      8  CD2      -22.1290  -14.0710   63.6810 C.ar  266  PHE266     -0.0042
      9  CE1      -20.3020  -14.7910   65.7030 C.ar  266  PHE266     -0.0003
     10  CE2      -21.7300  -15.3980   63.8390 C.ar  266  PHE266     -0.0003
     11  CZ       -20.8270  -15.7550   64.8530 C.ar  266  PHE266     -0.0000
     12  N        -23.5060  -12.8110   67.1690 N.am  267  PRO267     -0.2729
     13  CA       -24.5340  -13.6670   66.6510 C.3   267  PRO267      0.1401
     14  C        -25.7930  -13.3160   67.4420 C.2   267  PRO267      0.2269
     15  O        -25.9840  -13.8110   68.5820 O.2   267  PRO267     -0.2865
     16  CB       -24.0350  -15.0620   67.0270 C.3   267  PRO267      0.0296
     17  CG       -23.1070  -14.8830   68.1950 C.3   267  PRO267      0.0237
     18  CD       -22.9140  -13.3930   68.4060 C.3   267  PRO267      0.0939
     19  N        -22.4040   -3.6120   65.4120 N.3   334  ASP334     -0.1239
     20  CA       -21.5100   -4.7450   65.0000 C.3   334  ASP334      0.1674
     21  C        -21.7070   -5.0070   63.5030 C.2   334  ASP334      0.2266
     22  O        -21.7710   -4.0420   62.7540 O.2   334  ASP334     -0.2867
     23  CB       -21.7980   -6.0370   65.7980 C.3   334  ASP334      0.1410
     24  CG       -20.7900   -7.1510   65.4860 C.2   334  ASP334      0.3668
     25  OD1      -21.1050   -8.1130   64.7160 O.co2 334  ASP334     -0.2456
     26  OD2      -19.6540   -6.9850   65.9440 O.co2 334  ASP334     -0.2456
     27  N        -10.1060  -13.8660   65.2010 N.3   382  TYR382     -0.1241
     28  CA       -11.3390  -14.6210   65.2160 C.3   382  TYR382      0.1605
     29  C        -11.9780  -14.6210   63.8000 C.2   382  TYR382      0.2264
     30  O        -12.5820  -15.6100   63.4180 O.2   382  TYR382     -0.2867
     31  CB       -12.2850  -14.1210   66.3220 C.3   382  TYR382      0.0534
     32  CG       -13.1360  -12.9630   65.8900 C.ar  382  TYR382     -0.0201
     33  CD1      -14.2840  -13.1790   65.1200 C.ar  382  TYR382     -0.0009
     34  CD2      -12.7920  -11.6600   66.2180 C.ar  382  TYR382     -0.0009
     35  CE1      -15.0680  -12.1280   64.7020 C.ar  382  TYR382      0.0417
     36  CE2      -13.5710  -10.5920   65.7980 C.ar  382  TYR382      0.0417
     37  CZ       -14.7050  -10.8380   65.0470 C.ar  382  TYR382      0.1957
     38  OH       -15.5200   -9.8120   64.6160 O.3   382  TYR382     -0.2866
     39  N        -13.2090  -17.8700   61.5240 N.3   386  PHE386     -0.1241
     40  CA       -14.5840  -18.0230   60.9520 C.3   386  PHE386      0.1605
     41  C        -14.6930  -18.3730   59.4650 C.2   386  PHE386      0.2264
     42  O        -15.8040  -18.6210   58.9700 O.2   386  PHE386     -0.2867
     43  CB       -15.3870  -16.7550   61.2050 C.3   386  PHE386      0.0534
     44  CG       -15.8060  -16.5820   62.6200 C.ar  386  PHE386     -0.0203
     45  CD1      -15.5280  -17.5490   63.5680 C.ar  386  PHE386     -0.0042
     46  CD2      -16.5780  -15.4710   62.9900 C.ar  386  PHE386     -0.0042
     47  CE1      -15.9520  -17.3810   64.8680 C.ar  386  PHE386     -0.0003
     48  CE2      -17.0100  -15.3030   64.3000 C.ar  386  PHE386     -0.0003
     49  CZ       -16.7190  -16.2670   65.2360 C.ar  386  PHE386     -0.0000
     50  N        -20.1630  -15.5020   75.3030 N.3   407  LEU407     -0.1245
     51  CA       -20.1290  -14.2530   74.5170 C.3   407  LEU407      0.1561
     52  C        -20.7350  -13.0580   75.2500 C.2   407  LEU407      0.2260
     53  O        -20.0960  -11.9980   75.4360 O.2   407  LEU407     -0.2867
     54  CB       -20.8740  -14.5090   73.1920 C.3   407  LEU407      0.0270
     55  CG       -20.0970  -15.4370   72.2440 C.3   407  LEU407      0.0019
     56  CD1      -21.0140  -15.8690   71.1200 C.3   407  LEU407      0.0001
     57  CD2      -18.8040  -14.7550   71.7270 C.3   407  LEU407      0.0001
     58  N        -21.1280  -11.0370   77.8320 N.3   409  ARG409     -0.1245
     59  CA       -20.5950  -10.7360   79.1610 C.3   409  ARG409      0.1563
     60  C        -20.1500   -9.2590   79.1370 C.2   409  ARG409      0.2260
     61  O        -19.8250   -8.7370   78.0700 O.2   409  ARG409     -0.2867
     62  CB       -19.4000  -11.6630   79.5190 C.3   409  ARG409      0.0307
     63  CG       -19.5440  -13.1240   79.1510 C.3   409  ARG409      0.0489
     64  CD       -18.5250  -14.0670   79.8330 C.3   409  ARG409      0.2205
     65  NE       -18.6280  -14.0760   81.2990 N.pl3 409  ARG409     -0.0865
     66  CZ       -19.5160  -14.7830   81.9900 C.cat 409  ARG409      0.5346
     67  NH1      -19.5250  -14.7280   83.3070 N.pl3 409  ARG409      0.1354
     68  NH2      -20.3950  -15.5650   81.3800 N.pl3 409  ARG409      0.1354
     69  N        -15.1270  -10.7890   81.2240 N.3   414  SER414     -0.1217
     70  CA       -14.7910  -11.4830   79.9750 C.3   414  SER414      0.1889
     71  C        -14.2880  -12.8740   80.3080 C.2   414  SER414      0.2288
     72  O        -13.7210  -13.0620   81.3790 O.2   414  SER414     -0.2866
     73  CB       -13.7090  -10.7190   79.2190 C.3   414  SER414      0.2089
     74  OG       -12.8590  -11.6420   78.5410 O.3   414  SER414     -0.2183
     75  N        -13.2990  -14.9470   77.3470 N.3   416  LEU416     -0.1245
     76  CA       -12.6220  -15.2270   76.0830 C.3   416  LEU416      0.1561
     77  C        -11.6910  -14.0790   75.7530 C.2   416  LEU416      0.2260
     78  O        -12.1200  -12.9200   75.5790 O.2   416  LEU416     -0.2867
     79  CB       -13.6110  -15.3720   74.9100 C.3   416  LEU416      0.0270
     80  CG       -15.0870  -15.7150   75.0760 C.3   416  LEU416      0.0019
     81  CD1      -15.8470  -14.6300   75.8440 C.3   416  LEU416      0.0001
     82  CD2      -15.6590  -15.8460   73.6890 C.3   416  LEU416      0.0001
     83  N         -9.6770  -12.5780   72.8000 N.3   418  MET418     -0.1245
     84  CA        -9.7950  -12.6690   71.3600 C.3   418  MET418      0.1570
     85  C         -8.4280  -13.0190   70.7210 C.2   418  MET418      0.2261
     86  O         -8.2720  -13.0620   69.4950 O.2   418  MET418     -0.2867
     87  CB       -10.4410  -11.3820   70.8360 C.3   418  MET418      0.0387
     88  CG       -11.9180  -11.2600   71.2380 C.3   418  MET418      0.0595
     89  SD       -12.9260  -12.6490   70.6450 S.3   418  MET418     -0.1393
     90  CE       -13.9190  -12.9850   72.0830 C.3   418  MET418      0.0692
     91  N        -12.7240  -20.5170   69.8580 N.3   427  LEU427     -0.1245
     92  CA       -13.1040  -19.3030   70.5530 C.3   427  LEU427      0.1561
     93  C        -13.2790  -19.5600   72.0230 C.2   427  LEU427      0.2260
     94  O        -13.1560  -18.6290   72.8190 O.2   427  LEU427     -0.2867
     95  CB       -14.4250  -18.8070   69.9560 C.3   427  LEU427      0.0270
     96  CG       -14.8180  -17.3490   69.9360 C.3   427  LEU427      0.0019
     97  CD1      -13.7400  -16.4860   69.2870 C.3   427  LEU427      0.0001
     98  CD2      -16.0860  -17.2560   69.1130 C.3   427  LEU427      0.0001
     99  N        -19.2480  -13.2110   57.4750 N.3   465  TYR465     -0.1241
    100  CA       -17.7650  -13.0690   57.4650 C.3   465  TYR465      0.1605
    101  C        -17.0620  -13.6970   56.3020 C.2   465  TYR465      0.2264
    102  O        -15.8910  -13.4750   56.0930 O.2   465  TYR465     -0.2867
    103  CB       -17.2030  -13.7710   58.6660 C.3   465  TYR465      0.0534
    104  CG       -17.6080  -13.1700   59.9890 C.ar  465  TYR465     -0.0201
    105  CD1      -16.8430  -12.1800   60.5840 C.ar  465  TYR465     -0.0009
    106  CD2      -18.7660  -13.5810   60.6210 C.ar  465  TYR465     -0.0009
    107  CE1      -17.1880  -11.6590   61.8110 C.ar  465  TYR465      0.0417
    108  CE2      -19.1270  -13.0940   61.8470 C.ar  465  TYR465      0.0417
    109  CZ       -18.3240  -12.1330   62.4440 C.ar  465  TYR465      0.1957
    110  OH       -18.7110  -11.6360   63.6760 O.3   465  TYR465     -0.2866
    111  N        -14.9670    0.1290   76.1930 N.3   494  LYS494     -0.1231
    112  CA       -14.3200   -1.1250   76.5490 C.3   494  LYS494      0.1693
    113  C        -14.6400   -2.2570   75.6130 C.2   494  LYS494      0.2592
    114  O        -14.5560   -3.4420   75.9810 O.2   494  LYS494     -0.2718
    115  CB       -14.5880   -1.4750   78.0240 C.3   494  LYS494      0.0285
    116  CG       -13.9060   -0.4860   78.9620 C.3   494  LYS494      0.0035
    117  CD       -13.9900   -0.9230   80.4090 C.3   494  LYS494      0.0206
    118  CE       -13.8000    0.3030   81.2940 C.3   494  LYS494      0.1093
    119  NZ       -12.9660    0.0680   82.4990 N.3   494  LYS494     -0.1314
    120  N        -15.0150   -1.8960   74.3880 N.am  495  ASP495     -0.1960
    121  CA       -15.1120   -2.8880   73.3480 C.3   495  ASP495      0.1840
    122  C        -13.6550   -3.1140   72.9230 C.2   495  ASP495      0.2622
    123  O        -12.9700   -2.1770   72.4790 O.2   495  ASP495     -0.2715
    124  CB       -15.9810   -2.4020   72.1620 C.3   495  ASP495      0.1450
    125  CG       -16.2440   -3.5010   71.1260 C.2   495  ASP495      0.3671
    126  OD1      -15.3220   -4.2620   70.8790 O.co2 495  ASP495     -0.2456
    127  OD2      -17.3570   -3.5780   70.5070 O.co2 495  ASP495     -0.2456
    128  N        -13.1960   -4.3530   73.0520 N.am  496  PHE496     -0.1960
    129  CA       -11.7920   -4.6030   72.8590 C.3   496  PHE496      0.1771
    130  C        -11.4790   -4.9810   71.4390 C.2   496  PHE496      0.2619
    131  O        -10.3230   -5.1420   71.0790 O.2   496  PHE496     -0.2715
    132  CB       -11.2780   -5.6050   73.8840 C.3   496  PHE496      0.0574
    133  CG       -11.3240   -5.0610   75.2800 C.ar  496  PHE496     -0.0200
    134  CD1      -11.7840   -5.8430   76.3590 C.ar  496  PHE496     -0.0042
    135  CD2      -10.9490   -3.7210   75.5260 C.ar  496  PHE496     -0.0042
    136  CE1      -11.8190   -5.3080   77.6560 C.ar  496  PHE496     -0.0003
    137  CE2      -10.9890   -3.1880   76.8130 C.ar  496  PHE496     -0.0003
    138  CZ       -11.4350   -3.9820   77.8730 C.ar  496  PHE496     -0.0000
    139  N        -12.5170   -5.0870   70.6170 N.am  497  VAL497     -0.1963
    140  CA       -12.3370   -5.4100   69.2160 C.3   497  VAL497      0.1727
    141  C        -12.6350   -4.1780   68.3550 C.2   497  VAL497      0.2616
    142  O        -11.7520   -3.6790   67.6500 O.2   497  VAL497     -0.2715
    143  CB       -13.1610   -6.6640   68.8040 C.3   497  VAL497      0.0290
    144  CG1      -13.1310   -6.8790   67.2870 C.3   497  VAL497      0.0023
    145  CG2      -12.6500   -7.8890   69.5770 C.3   497  VAL497      0.0023
    146  N        -13.8680   -3.6840   68.4400 N.am  498  LEU498     -0.1977
    147  CA       -14.2210   -2.4620   67.7600 C.3   498  LEU498      0.1596
    148  C        -13.8220   -1.3560   68.7310 C.2   498  LEU498      0.2287
    149  O        -14.6710   -0.8090   69.4380 O.2   498  LEU498     -0.2864
    150  CB       -15.7180   -2.4750   67.4230 C.3   498  LEU498      0.0297
    151  CG       -16.2230   -3.6900   66.5800 C.3   498  LEU498      0.0022
    152  CD1      -17.7750   -3.6900   66.4750 C.3   498  LEU498      0.0001
    153  CD2      -15.5810   -3.7570   65.1670 C.3   498  LEU498      0.0001
    154  N        -18.7480   -4.6850   74.4610 N.3   523  HIS523     -0.1226
    155  CA       -19.1640   -4.9040   73.0930 C.3   523  HIS523      0.1752
    156  C        -20.7010   -5.0010   72.9280 C.2   523  HIS523      0.2596
    157  O        -21.2010   -4.7150   71.8550 O.2   523  HIS523     -0.2718
    158  CB       -18.4960   -6.1540   72.4600 C.3   523  HIS523      0.0759
    159  CG       -19.0130   -6.4700   71.0820 C.ar  523  HIS523      0.0818
    160  ND1      -18.6080   -5.7790   69.9440 N.ar  523  HIS523     -0.2268
    161  CD2      -19.9650   -7.3490   70.6730 C.ar  523  HIS523      0.1154
    162  CE1      -19.2670   -6.2550   68.9040 C.ar  523  HIS523      0.1986
    163  NE2      -20.1050   -7.1960   69.3160 N.ar  523  HIS523     -0.2212
    164  N        -21.4250   -5.4230   73.9680 N.am  524  TRP524     -0.1976
    165  CA       -22.8610   -5.7620   73.8020 C.3   524  TRP524      0.1640
    166  C        -23.5750   -4.5420   74.2460 C.2   524  TRP524      0.2290
    167  O        -24.2880   -4.5350   75.2290 O.2   524  TRP524     -0.2864
    168  CB       -23.2490   -6.9700   74.6180 C.3   524  TRP524      0.0576
    169  CG       -22.2330   -8.0420   74.3380 C.ar  524  TRP524      0.0006
    170  CD1      -21.1310   -8.3590   75.1030 C.ar  524  TRP524      0.0946
    171  CD2      -22.1370   -8.8440   73.1450 C.ar  524  TRP524      0.0152
    172  NE1      -20.3600   -9.3220   74.4540 N.ar  524  TRP524     -0.2442
    173  CE2      -20.9750   -9.6620   73.2740 C.ar  524  TRP524      0.0810
    174  CE3      -22.9410   -8.9880   71.9860 C.ar  524  TRP524      0.0012
    175  CZ2      -20.6040  -10.5800   72.2940 C.ar  524  TRP524      0.0191
    176  CZ3      -22.5750   -9.9330   71.0240 C.ar  524  TRP524      0.0001
    177  CH2      -21.4130  -10.7030   71.1830 C.ar  524  TRP524      0.0015
@<TRIPOS>BOND
     1   102   101    2
     2   101   100    1
     3   100    99    1
     4   100   103    1
     5   103   104    1
     6    42    41    2
     7    41    40    1
     8   104   105   ar
     9   104   106   ar
    10   105   107   ar
    11   106   108   ar
    12    40    43    1
    13    40    39    1
    14    43    44    1
    15   107   109   ar
    16   108   109   ar
    17   109   110    1
    18    44    46   ar
    19    44    45   ar
    20    22    21    2
    21    46    48   ar
    22    30    29    2
    23    21    20    1
    24    45    47   ar
    25     8    10   ar
    26     8     6   ar
    27    29    28    1
    28    10    11   ar
    29    48    49   ar
    30     5     6    1
    31     5     2    1
    32     6     7   ar
    33    38    37    1
    34    35    37   ar
    35    35    33   ar
    36    25    24   ar
    37    11     9   ar
    38    47    49   ar
    39    20    19    1
    40    20    23    1
    41    37    36   ar
    42     1     2    1
    43    33    32   ar
    44   153   151    1
    45    27    28    1
    46     2     3    1
    47    28    31    1
    48    24    23    1
    49    24    26   ar
    50     7     9   ar
    51    36    34   ar
    52    32    34   ar
    53    32    31    1
    54   152   151    1
    55   151   150    1
    56    13    16    1
    57    13    12    1
    58    13    14    1
    59     3    12   am
    60     3     4    2
    61    16    17    1
    62    12    18    1
    63   144   143    1
    64   150   147    1
    65    14    15    2
    66   142   141    2
    67   147   146    1
    68   147   148    1
    69    17    18    1
    70   141   146   am
    71   141   140    1
    72   148   149    2
    73   143   140    1
    74   143   145    1
    75   162   163   ar
    76   162   160   ar
    77    98    96    1
    78   140   139    1
    79    97    96    1
    80   163   161   ar
    81    86    85    2
    82    91    92    1
    83    96    95    1
    84   160   159   ar
    85    95    92    1
    86   127   125   ar
    87    92    93    1
    88   139   130   am
    89    89    88    1
    90    89    90    1
    91   161   159   ar
    92    85    84    1
    93    87    88    1
    94    87    84    1
    95   126   125   ar
    96   176   177   ar
    97   176   174   ar
    98   131   130    2
    99   159   158    1
   100    56    55    1
   101   125   124    1
   102   177   175   ar
   103    84    83    1
   104   130   129    1
   105    57    55    1
   106   157   156    2
   107   174   171   ar
   108    93    94    2
   109   124   121    1
   110    55    54    1
   111   175   173   ar
   112   158   155    1
   113   123   122    2
   114   129   128    1
   115   129   132    1
   116   122   128   am
   117   122   121    1
   118   156   155    1
   119   156   164   am
   120   155   154    1
   121   171   173   ar
   122   171   169   ar
   123    54    51    1
   124   173   172   ar
   125   121   120    1
   126    82    80    1
   127   165   164    1
   128   165   166    1
   129   165   168    1
   130   132   133    1
   131   166   167    2
   132   169   168    1
   133   169   170   ar
   134   120   113   am
   135   172   170   ar
   136    51    52    1
   137    51    50    1
   138    79    80    1
   139    79    76    1
   140    80    81    1
   141    52    53    2
   142   133   135   ar
   143   133   134   ar
   144   135   137   ar
   145    78    77    2
   146   113   114    2
   147   113   112    1
   148    77    76    1
   149    76    75    1
   150   111   112    1
   151   134   136   ar
   152   112   115    1
   153   137   138   ar
   154   136   138   ar
   155    58    59    1
   156   115   116    1
   157    61    60    2
   158    74    73    1
   159   116   117    1
   160    60    59    1
   161    63    62    1
   162    63    64    1
   163    59    62    1
   164    73    70    1
   165    64    65    1
   166    70    71    1
   167    70    69    1
   168    71    72    2
   169   117   118    1
   170   118   119    1
   171    65    66    2
   172    68    66    1
   173    66    67    1
