@<TRIPOS>MOLECULE
tmp/3wkbA00.pdb
 165 163 0 0 0
SMALL
GASTEIGER

@<TRIPOS>ATOM
      1  N        -22.5140   -8.0600   51.6060 N.3   309  MET309     -0.1245
      2  CA       -23.1630   -6.8270   52.1060 C.3   309  MET309      0.1570
      3  C        -24.1120   -6.2350   51.0560 C.2   309  MET309      0.2261
      4  O        -25.2220   -5.8030   51.3790 O.2   309  MET309     -0.2867
      5  CB       -22.1050   -5.8270   52.5680 C.3   309  MET309      0.0387
      6  CG       -22.6280   -4.6900   53.4530 C.3   309  MET309      0.0595
      7  SD       -23.7300   -5.0470   54.8540 S.3   309  MET309     -0.1393
      8  CE       -22.5310   -5.7190   55.9990 C.3   309  MET309      0.0692
      9  N        -22.0880   -6.0300   63.3640 N.3   335  TRP335     -0.1241
     10  CA       -22.3500   -6.2360   61.9300 C.3   335  TRP335      0.1605
     11  C        -23.4960   -5.3540   61.4240 C.2   335  TRP335      0.2264
     12  O        -23.4290   -4.8700   60.2980 O.2   335  TRP335     -0.2867
     13  CB       -22.6690   -7.7090   61.5270 C.3   335  TRP335      0.0550
     14  CG       -21.4720   -8.4290   61.0100 C.ar  335  TRP335      0.0003
     15  CD1      -20.8250   -9.4690   61.6150 C.ar  335  TRP335      0.0946
     16  CD2      -20.7030   -8.1160   59.8190 C.ar  335  TRP335      0.0152
     17  NE1      -19.7300   -9.8630   60.8600 N.ar  335  TRP335     -0.2442
     18  CE2      -19.6510   -9.0650   59.7440 C.ar  335  TRP335      0.0810
     19  CE3      -20.8590   -7.1960   58.7750 C.ar  335  TRP335      0.0012
     20  CZ2      -18.7080   -9.0730   58.6980 C.ar  335  TRP335      0.0191
     21  CZ3      -19.9430   -7.2190   57.7270 C.ar  335  TRP335      0.0001
     22  CH2      -18.8740   -8.1660   57.6970 C.ar  335  TRP335      0.0015
     23  N        -22.0120   -1.9390   60.5320 N.3   338  MET338     -0.1245
     24  CA       -21.4350   -1.9620   59.1940 C.3   338  MET338      0.1570
     25  C        -22.4820   -1.8510   58.0950 C.2   338  MET338      0.2261
     26  O        -22.2570   -1.1760   57.0490 O.2   338  MET338     -0.2867
     27  CB       -20.6810   -3.2720   58.9480 C.3   338  MET338      0.0387
     28  CG       -19.7500   -3.2400   57.7460 C.3   338  MET338      0.0595
     29  SD       -18.2080   -2.4340   58.2510 S.3   338  MET338     -0.1393
     30  CE       -18.4500   -0.7290   57.9280 C.3   338  MET338      0.0692
     31  N        -23.1590    1.1100   55.0140 N.3   342  TYR342     -0.1241
     32  CA       -23.3540    0.8030   53.5920 C.3   342  TYR342      0.1605
     33  C        -24.7360    1.1700   53.0310 C.2   342  TYR342      0.2264
     34  O        -24.7930    1.5910   51.8980 O.2   342  TYR342     -0.2867
     35  CB       -22.8110   -0.5970   53.1840 C.3   342  TYR342      0.0534
     36  CG       -21.2990   -0.4870   53.2890 C.ar  342  TYR342     -0.0201
     37  CD1      -20.6450   -0.6370   54.5210 C.ar  342  TYR342     -0.0009
     38  CD2      -20.5440   -0.0660   52.1750 C.ar  342  TYR342     -0.0009
     39  CE1      -19.2600   -0.4290   54.6250 C.ar  342  TYR342      0.0417
     40  CE2      -19.1800    0.1290   52.2600 C.ar  342  TYR342      0.0417
     41  CZ       -18.5420   -0.0440   53.4570 C.ar  342  TYR342      0.1957
     42  OH       -17.2090    0.2080   53.4690 O.3   342  TYR342     -0.2866
     43  N        -12.8840    1.1820   52.5350 N.3   364  ALA364     -0.1245
     44  CA       -12.0850    0.0370   52.0930 C.3   364  ALA364      0.1562
     45  C        -10.7010    0.5280   51.5960 C.2   364  ALA364      0.2260
     46  O        -10.5940    1.5900   50.9810 O.2   364  ALA364     -0.2867
     47  CB       -12.8150   -0.6880   50.9360 C.3   364  ALA364      0.0290
     48  N         -8.6940   -7.2270   52.1310 N.3   370  PRO370     -0.2116
     49  CA        -9.1550   -7.1330   53.5280 C.3   370  PRO370      0.1372
     50  C         -8.6850   -8.3370   54.3900 C.2   370  PRO370      0.2244
     51  O         -8.4470   -8.1690   55.5910 O.2   370  PRO370     -0.2868
     52  CB       -10.6810   -7.1200   53.3910 C.3   370  PRO370      0.0268
     53  CG       -10.9340   -7.8790   52.1130 C.3   370  PRO370      0.0207
     54  CD        -9.7530   -7.6550   51.1960 C.3   370  PRO370      0.0892
     55  N         -6.6850   -7.6670   57.8180 N.3   374  ILE374     -0.1245
     56  CA        -7.1540   -8.2760   59.0800 C.3   374  ILE374      0.1561
     57  C         -6.0300   -8.9490   59.8690 C.2   374  ILE374      0.2260
     58  O         -6.0410   -8.9080   61.0990 O.2   374  ILE374     -0.2867
     59  CB        -8.3690   -9.2170   58.8500 C.3   374  ILE374      0.0252
     60  CG1       -9.6640   -8.4350   59.0740 C.3   374  ILE374      0.0019
     61  CG2       -8.3720  -10.4000   59.8000 C.3   374  ILE374      0.0019
     62  CD1      -10.7310   -8.7100   58.0420 C.3   374  ILE374      0.0001
     63  N         -8.6380   -8.9780   65.7170 N.3   380  PHE380     -0.1241
     64  CA        -9.4770   -9.4780   64.6440 C.3   380  PHE380      0.1605
     65  C         -9.2040  -10.9460   64.2840 C.2   380  PHE380      0.2264
     66  O         -9.8280  -11.4930   63.3570 O.2   380  PHE380     -0.2867
     67  CB        -9.2630   -8.6170   63.3990 C.3   380  PHE380      0.0534
     68  CG        -9.9450   -7.2680   63.4370 C.ar  380  PHE380     -0.0203
     69  CD1      -11.1630   -7.0860   64.1040 C.ar  380  PHE380     -0.0042
     70  CD2       -9.3950   -6.1880   62.7200 C.ar  380  PHE380     -0.0042
     71  CE1      -11.7840   -5.8480   64.0970 C.ar  380  PHE380     -0.0003
     72  CE2      -10.0190   -4.9470   62.7030 C.ar  380  PHE380     -0.0003
     73  CZ       -11.2090   -4.7790   63.4060 C.ar  380  PHE380     -0.0000
     74  N        -11.9770  -13.4560   63.4450 N.3   383  GLN383     -0.1245
     75  CA       -12.5320  -13.5160   62.0890 C.3   383  GLN383      0.1566
     76  C        -11.8720  -14.5600   61.1880 C.2   383  GLN383      0.2260
     77  O        -12.5660  -15.1490   60.3440 O.2   383  GLN383     -0.2867
     78  CB       -12.5320  -12.1250   61.4640 C.3   383  GLN383      0.0367
     79  CG       -13.1130  -11.1050   62.4700 C.3   383  GLN383      0.0905
     80  CD       -13.7160   -9.8370   61.8350 C.2   383  GLN383      0.2608
     81  OE1      -14.1140   -8.9150   62.5490 O.2   383  GLN383     -0.2717
     82  NE2      -13.7920   -9.7920   60.5200 N.am  383  GLN383     -0.0878
     83  N        -21.8550  -14.1040   57.4860 N.3   464  TRP464     -0.1227
     84  CA       -21.6350  -12.6370   57.3520 C.3   464  TRP464      0.1737
     85  C        -20.1320  -12.3170   57.2440 C.2   464  TRP464      0.2595
     86  O        -19.7670  -11.2860   56.6640 O.2   464  TRP464     -0.2718
     87  CB       -22.2000  -11.8880   58.5530 C.3   464  TRP464      0.0564
     88  CG       -23.7280  -11.7200   58.5100 C.ar  464  TRP464      0.0003
     89  CD1      -24.6630  -12.7180   58.5190 C.ar  464  TRP464      0.0946
     90  CD2      -24.4720  -10.4760   58.5470 C.ar  464  TRP464      0.0152
     91  NE1      -25.9500  -12.1690   58.5420 N.ar  464  TRP464     -0.2442
     92  CE2      -25.8610  -10.8070   58.5470 C.ar  464  TRP464      0.0810
     93  CE3      -24.1070   -9.1320   58.5860 C.ar  464  TRP464      0.0012
     94  CZ2      -26.8920   -9.8160   58.5490 C.ar  464  TRP464      0.0191
     95  CZ3      -25.1340   -8.1430   58.5730 C.ar  464  TRP464      0.0001
     96  CH2      -26.4940   -8.5000   58.5940 C.ar  464  TRP464      0.0015
     97  N        -19.2770  -13.1830   57.8310 N.am  465  TYR465     -0.1976
     98  CA       -17.8060  -12.9840   57.8500 C.3   465  TYR465      0.1639
     99  C        -17.1180  -13.6410   56.6760 C.2   465  TYR465      0.2290
    100  O        -15.8930  -13.5140   56.4990 O.2   465  TYR465     -0.2864
    101  CB       -17.2320  -13.6530   59.0570 C.3   465  TYR465      0.0560
    102  CG       -17.5500  -13.0020   60.3790 C.ar  465  TYR465     -0.0198
    103  CD1      -16.8160  -11.9010   60.8700 C.ar  465  TYR465     -0.0009
    104  CD2      -18.6380  -13.4500   61.1060 C.ar  465  TYR465     -0.0009
    105  CE1      -17.1380  -11.3190   62.1080 C.ar  465  TYR465      0.0417
    106  CE2      -18.9720  -12.8990   62.3100 C.ar  465  TYR465      0.0417
    107  CZ       -18.2180  -11.8750   62.8190 C.ar  465  TYR465      0.1957
    108  OH       -18.6800  -11.4160   64.0060 O.3   465  TYR465     -0.2866
    109  N        -15.4180  -11.5170   52.5890 N.3   468  MET468     -0.1245
    110  CA       -14.4440  -10.4090   52.7060 C.3   468  MET468      0.1570
    111  C        -14.1030   -9.7430   51.3920 C.2   468  MET468      0.2261
    112  O        -14.2060   -8.5080   51.2510 O.2   468  MET468     -0.2867
    113  CB       -13.1320  -10.8590   53.4190 C.3   468  MET468      0.0387
    114  CG       -13.4490  -11.4390   54.7870 C.3   468  MET468      0.0595
    115  SD       -12.5080  -10.6800   56.0950 S.3   468  MET468     -0.1393
    116  CE       -13.1380  -11.5830   57.5250 C.3   468  MET468      0.0692
    117  N        -17.2710   -8.1660   49.5210 N.3   471  ASN471     -0.1225
    118  CA       -17.6220   -6.9130   50.2160 C.3   471  ASN471      0.1785
    119  C        -16.6200   -5.8140   49.9050 C.2   471  ASN471      0.2597
    120  O        -17.0650   -4.6960   49.5820 O.2   471  ASN471     -0.2718
    121  CB       -17.6210   -7.1570   51.7170 C.3   471  ASN471      0.1169
    122  CG       -18.8410   -7.9510   52.1710 C.2   471  ASN471      0.2627
    123  OD1      -19.7580   -8.2180   51.3740 O.2   471  ASN471     -0.2716
    124  ND2      -18.8420   -8.3760   53.4460 N.am  471  ASN471     -0.0877
    125  N        -15.2980   -6.1430   49.9820 N.am  472  TRP472     -0.1976
    126  CA       -14.1790   -5.2230   49.6270 C.3   472  TRP472      0.1640
    127  C        -14.3320   -4.6420   48.2210 C.2   472  TRP472      0.2290
    128  O        -14.3560   -3.4000   48.0560 O.2   472  TRP472     -0.2864
    129  CB       -12.8360   -5.9160   49.7900 C.3   472  TRP472      0.0576
    130  CG       -11.6450   -5.2100   49.2840 C.ar  472  TRP472      0.0006
    131  CD1      -11.0490   -4.0680   49.8020 C.ar  472  TRP472      0.0946
    132  CD2      -10.8180   -5.6440   48.2090 C.ar  472  TRP472      0.0152
    133  NE1       -9.9190   -3.7600   49.0740 N.ar  472  TRP472     -0.2442
    134  CE2       -9.7610   -4.7040   48.0850 C.ar  472  TRP472      0.0810
    135  CE3      -10.8750   -6.7510   47.3200 C.ar  472  TRP472      0.0012
    136  CZ2       -8.7550   -4.8260   47.1140 C.ar  472  TRP472      0.0191
    137  CZ3       -9.8870   -6.8820   46.3530 C.ar  472  TRP472      0.0001
    138  CH2       -8.8300   -5.9170   46.2550 C.ar  472  TRP472      0.0015
    139  N        -17.0910   -4.4960   46.4150 N.3   474  TRP474     -0.1227
    140  CA       -18.3100   -3.6660   46.3770 C.3   474  TRP474      0.1737
    141  C        -18.0400   -2.3200   47.0250 C.2   474  TRP474      0.2595
    142  O        -18.3770   -1.2510   46.4790 O.2   474  TRP474     -0.2718
    143  CB       -19.4550   -4.3980   47.0770 C.3   474  TRP474      0.0564
    144  CG       -20.7890   -3.7590   46.9770 C.ar  474  TRP474      0.0003
    145  CD1      -21.5290   -3.5420   45.8320 C.ar  474  TRP474      0.0946
    146  CD2      -21.5970   -3.3420   48.0570 C.ar  474  TRP474      0.0152
    147  NE1      -22.7460   -3.0000   46.1530 N.ar  474  TRP474     -0.2442
    148  CE2      -22.8130   -2.8590   47.5130 C.ar  474  TRP474      0.0810
    149  CE3      -21.4190   -3.3290   49.4390 C.ar  474  TRP474      0.0012
    150  CZ2      -23.8180   -2.3340   48.2940 C.ar  474  TRP474      0.0191
    151  CZ3      -22.4340   -2.8190   50.2230 C.ar  474  TRP474      0.0001
    152  CH2      -23.6210   -2.3460   49.6450 C.ar  474  TRP474      0.0015
    153  N        -17.3950   -2.3570   48.1750 N.am  475  ALA475     -0.1980
    154  CA       -17.1560   -1.1400   48.9300 C.3   475  ALA475      0.1597
    155  C        -16.3030   -0.1730   48.0930 C.2   475  ALA475      0.2287
    156  O        -16.5390    1.0420   48.1070 O.2   475  ALA475     -0.2864
    157  CB       -16.5010   -1.4690   50.2770 C.3   475  ALA475      0.0319
    158  N        -10.4890    3.4710   66.6530 N.3   502  MET502     -0.1245
    159  CA       -10.7590    3.0890   65.2530 C.3   502  MET502      0.1570
    160  C        -11.7070    4.0520   64.5300 C.2   502  MET502      0.2261
    161  O        -11.7080    4.0970   63.3220 O.2   502  MET502     -0.2867
    162  CB       -11.4100    1.7120   65.1760 C.3   502  MET502      0.0387
    163  CG       -10.4920    0.5260   65.3260 C.3   502  MET502      0.0595
    164  SD       -11.4670   -1.0080   65.4290 S.3   502  MET502     -0.1393
    165  CE       -11.9030   -1.2530   63.7120 C.3   502  MET502      0.0692
@<TRIPOS>BOND
     1   145   147   ar
     2   145   144   ar
     3   147   148   ar
     4   138   137   ar
     5   138   136   ar
     6   137   135   ar
     7   140   139    1
     8   140   141    1
     9   140   143    1
    10   142   141    2
    11   144   143    1
    12   144   146   ar
    13   141   153   am
    14   136   134   ar
    15   135   132   ar
    16   148   146   ar
    17   148   150   ar
    18   128   127    2
    19   146   149   ar
    20   134   132   ar
    21   134   133   ar
    22   155   156    2
    23   155   154    1
    24   153   154    1
    25   132   130   ar
    26   127   126    1
    27   150   152   ar
    28   154   157    1
    29   133   131   ar
    30   130   129    1
    31   130   131   ar
    32   149   151   ar
    33   117   118    1
    34   120   119    2
    35   126   129    1
    36   126   125    1
    37   152   151   ar
    38   119   125   am
    39   119   118    1
    40   118   121    1
    41    47    44    1
    42    46    45    2
    43     3     4    2
    44     3     2    1
    45    54    53    1
    46    54    48    1
    47   112   111    2
    48   123   122    2
    49   111   110    1
    50    45    44    1
    51     1     2    1
    52   121   122    1
    53    34    33    2
    54    44    43    1
    55     2     5    1
    56    53    52    1
    57    48    49    1
    58   122   124   am
    59    38    40   ar
    60    38    36   ar
    61    40    41   ar
    62     5     6    1
    63   109   110    1
    64   110   113    1
    65    33    32    1
    66    35    36    1
    67    35    32    1
    68    36    37   ar
    69    52    49    1
    70   113   114    1
    71     6     7    1
    72    41    42    1
    73    41    39   ar
    74    49    50    1
    75    32    31    1
    76    50    51    2
    77    37    39   ar
    78   114   115    1
    79     7     8    1
    80   115   116    1
    81   100    99    2
    82    86    85    2
    83    99    98    1
    84    26    25    2
    85    85    84    1
    86    85    97   am
    87    84    83    1
    88    84    87    1
    89    22    21   ar
    90    22    20   ar
    91    21    19   ar
    92    28    29    1
    93    28    27    1
    94    55    56    1
    95    97    98    1
    96    98   101    1
    97    30    29    1
    98    62    60    1
    99    25    24    1
   100    88    89   ar
   101    88    90   ar
   102    88    87    1
   103    89    91   ar
   104    91    92   ar
   105    92    90   ar
   106    92    94   ar
   107    90    93   ar
   108    94    96   ar
   109    95    93   ar
   110    95    96   ar
   111    20    18   ar
   112    19    16   ar
   113    59    60    1
   114    59    56    1
   115    59    61    1
   116    27    24    1
   117   101   102    1
   118    56    57    1
   119    24    23    1
   120    18    16   ar
   121    18    17   ar
   122    16    14   ar
   123    57    58    2
   124    12    11    2
   125    77    76    2
   126   102   103   ar
   127   102   104   ar
   128    82    80   am
   129    17    15   ar
   130   103   105   ar
   131    14    13    1
   132    14    15   ar
   133   104   106   ar
   134    76    75    1
   135    11    10    1
   136    78    75    1
   137    78    79    1
   138    13    10    1
   139    80    79    1
   140    80    81    2
   141    10     9    1
   142    75    74    1
   143   105   107   ar
   144   106   107   ar
   145    72    70   ar
   146    72    73   ar
   147    70    68   ar
   148   107   108    1
   149   161   160    2
   150    66    65    2
   151    67    68    1
   152    67    64    1
   153    73    71   ar
   154    68    69   ar
   155   165   164    1
   156    71    69   ar
   157    65    64    1
   158   160   159    1
   159    64    63    1
   160   162   159    1
   161   162   163    1
   162   159   158    1
   163   163   164    1
