@<TRIPOS>MOLECULE
tmp/3wkcA00.pdb
 155 151 0 0 0
SMALL
GASTEIGER

@<TRIPOS>ATOM
      1  N        -22.4920   -3.6760   65.3810 N.3   334  ASP334     -0.1225
      2  CA       -21.6090   -4.8080   64.9790 C.3   334  ASP334      0.1805
      3  C        -21.8140   -5.0500   63.4760 C.2   334  ASP334      0.2597
      4  O        -21.7710   -4.0920   62.7030 O.2   334  ASP334     -0.2718
      5  CB       -21.8110   -6.0750   65.9090 C.3   334  ASP334      0.1424
      6  CG       -20.8810   -7.2720   65.5170 C.2   334  ASP334      0.3668
      7  OD1      -21.3100   -8.1870   64.7300 O.co2 334  ASP334     -0.2456
      8  OD2      -19.6980   -7.2760   65.9500 O.co2 334  ASP334     -0.2456
      9  N        -22.0530   -6.2950   63.0170 N.am  335  TRP335     -0.1976
     10  CA       -22.3360   -6.4770   61.5760 C.3   335  TRP335      0.1640
     11  C        -23.4910   -5.5740   61.0730 C.2   335  TRP335      0.2290
     12  O        -23.4560   -5.0760   59.9380 O.2   335  TRP335     -0.2864
     13  CB       -22.6470   -7.9730   61.1850 C.3   335  TRP335      0.0576
     14  CG       -21.4250   -8.6420   60.6840 C.ar  335  TRP335      0.0006
     15  CD1      -20.7580   -9.6550   61.2760 C.ar  335  TRP335      0.0946
     16  CD2      -20.6650   -8.2850   59.4990 C.ar  335  TRP335      0.0152
     17  NE1      -19.6470   -9.9940   60.5310 N.ar  335  TRP335     -0.2442
     18  CE2      -19.5810   -9.1760   59.4290 C.ar  335  TRP335      0.0810
     19  CE3      -20.8540   -7.3510   58.4640 C.ar  335  TRP335      0.0012
     20  CZ2      -18.6140   -9.1210   58.3900 C.ar  335  TRP335      0.0191
     21  CZ3      -19.9300   -7.3080   57.4230 C.ar  335  TRP335      0.0001
     22  CH2      -18.7980   -8.1860   57.3990 C.ar  335  TRP335      0.0015
     23  N        -22.0730   -2.2080   60.1890 N.3   338  MET338     -0.1245
     24  CA       -21.3970   -2.1630   58.8980 C.3   338  MET338      0.1570
     25  C        -22.4490   -2.0420   57.8010 C.2   338  MET338      0.2261
     26  O        -22.2620   -1.3180   56.8080 O.2   338  MET338     -0.2867
     27  CB       -20.6230   -3.4520   58.6350 C.3   338  MET338      0.0387
     28  CG       -19.6920   -3.3990   57.4070 C.3   338  MET338      0.0595
     29  SD       -18.1670   -2.5890   57.8800 S.3   338  MET338     -0.1393
     30  CE       -18.6010   -0.8770   57.7520 C.3   338  MET338      0.0692
     31  N        -19.4660   -0.1230   65.5460 N.3   359  THR359     -0.1204
     32  CA       -18.8520   -0.3240   64.2320 C.3   359  THR359      0.1979
     33  C        -18.5360    0.9890   63.5180 C.2   359  THR359      0.2459
     34  O        -19.4470    1.7600   63.2040 O.2   359  THR359     -0.2732
     35  CB       -19.7770   -1.1400   63.3380 C.3   359  THR359      0.1783
     36  OG1      -20.1870   -2.2630   64.0870 O.3   359  THR359     -0.2211
     37  CG2      -19.1380   -1.5450   61.9950 C.3   359  THR359      0.0376
     38  N        -17.2480    1.2110   63.2180 N.am  360  PRO360     -0.2728
     39  CA       -16.8970    2.4440   62.5730 C.3   360  PRO360      0.1401
     40  C        -17.1440    2.2780   61.0860 C.2   360  PRO360      0.2269
     41  O        -17.2510    1.1450   60.6160 O.2   360  PRO360     -0.2865
     42  CB       -15.3930    2.5670   62.8500 C.3   360  PRO360      0.0296
     43  CG       -14.9120    1.1780   62.9380 C.3   360  PRO360      0.0237
     44  CD       -16.0490    0.4200   63.6060 C.3   360  PRO360      0.0939
     45  N        -15.2770    2.2010   57.8270 N.3   362  ILE362     -0.1245
     46  CA       -13.9390    2.1910   57.2150 C.3   362  ILE362      0.1561
     47  C        -14.0170    1.9220   55.7080 C.2   362  ILE362      0.2260
     48  O        -14.6170    0.9340   55.2500 O.2   362  ILE362     -0.2867
     49  CB       -12.9490    1.2410   57.9550 C.3   362  ILE362      0.0252
     50  CG1      -12.6180    1.8310   59.3500 C.3   362  ILE362      0.0019
     51  CG2      -11.6670    1.0570   57.1320 C.3   362  ILE362      0.0019
     52  CD1      -11.9350    0.8980   60.3230 C.3   362  ILE362      0.0001
     53  N         -8.5020   -7.4620   51.5090 N.3   370  PRO370     -0.2116
     54  CA        -9.1460   -7.3880   52.8400 C.3   370  PRO370      0.1372
     55  C         -8.6150   -8.4630   53.8530 C.2   370  PRO370      0.2244
     56  O         -8.4610   -8.1620   55.0430 O.2   370  PRO370     -0.2868
     57  CB       -10.6520   -7.5900   52.5090 C.3   370  PRO370      0.0268
     58  CG       -10.6640   -8.3020   51.1890 C.3   370  PRO370      0.0207
     59  CD        -9.4190   -7.8850   50.4360 C.3   370  PRO370      0.0892
     60  N         -5.6170   -7.0610   55.3210 N.3   373  SER373     -0.1202
     61  CA        -5.9820   -5.9610   56.2130 C.3   373  SER373      0.2020
     62  C         -6.4300   -6.5900   57.5300 C.2   373  SER373      0.2618
     63  O         -6.0500   -6.1210   58.6060 O.2   373  SER373     -0.2717
     64  CB        -7.1170   -5.0990   55.6450 C.3   373  SER373      0.2103
     65  OG        -6.8750   -4.6390   54.3410 O.3   373  SER373     -0.2182
     66  N         -7.2120   -7.6700   57.4480 N.am  374  ILE374     -0.1979
     67  CA        -7.6880   -8.3780   58.6700 C.3   374  ILE374      0.1595
     68  C         -6.5390   -9.0090   59.4670 C.2   374  ILE374      0.2287
     69  O         -6.5060   -8.8840   60.6950 O.2   374  ILE374     -0.2864
     70  CB        -8.8110   -9.4130   58.3640 C.3   374  ILE374      0.0276
     71  CG1      -10.1340   -8.6790   58.1260 C.3   374  ILE374      0.0022
     72  CG2       -9.0030  -10.3950   59.5110 C.3   374  ILE374      0.0022
     73  CD1      -11.0010   -9.3690   57.0920 C.3   374  ILE374      0.0001
     74  N         -8.7220   -9.0110   65.3570 N.3   380  PHE380     -0.1241
     75  CA        -9.6080   -9.6400   64.3930 C.3   380  PHE380      0.1605
     76  C         -9.2930  -11.1040   64.0880 C.2   380  PHE380      0.2264
     77  O         -9.8490  -11.6620   63.1080 O.2   380  PHE380     -0.2867
     78  CB        -9.6110   -8.8920   63.0690 C.3   380  PHE380      0.0534
     79  CG       -10.1750   -7.4850   63.1330 C.ar  380  PHE380     -0.0203
     80  CD1      -11.1390   -7.1340   64.0550 C.ar  380  PHE380     -0.0042
     81  CD2       -9.7390   -6.5150   62.2070 C.ar  380  PHE380     -0.0042
     82  CE1      -11.6460   -5.8390   64.0900 C.ar  380  PHE380     -0.0003
     83  CE2      -10.2370   -5.2190   62.2260 C.ar  380  PHE380     -0.0003
     84  CZ       -11.1990   -4.8870   63.1820 C.ar  380  PHE380     -0.0000
     85  N        -10.1980  -13.7390   65.4350 N.3   382  TYR382     -0.1227
     86  CA       -11.4210  -14.5510   65.4820 C.3   382  TYR382      0.1736
     87  C        -12.1850  -14.5850   64.0890 C.2   382  TYR382      0.2595
     88  O        -12.8650  -15.5940   63.7150 O.2   382  TYR382     -0.2718
     89  CB       -12.2790  -14.0800   66.6370 C.3   382  TYR382      0.0548
     90  CG       -13.0970  -12.8500   66.2910 C.ar  382  TYR382     -0.0200
     91  CD1      -14.3790  -12.9930   65.7620 C.ar  382  TYR382     -0.0009
     92  CD2      -12.5920  -11.5520   66.4680 C.ar  382  TYR382     -0.0009
     93  CE1      -15.1360  -11.8940   65.4230 C.ar  382  TYR382      0.0417
     94  CE2      -13.3540  -10.4270   66.1090 C.ar  382  TYR382      0.0417
     95  CZ       -14.6390  -10.6250   65.5920 C.ar  382  TYR382      0.1957
     96  OH       -15.4870   -9.5790   65.2600 O.3   382  TYR382     -0.2866
     97  N        -12.0190  -13.5260   63.2950 N.am  383  GLN383     -0.1979
     98  CA       -12.6080  -13.5400   61.9370 C.3   383  GLN383      0.1601
     99  C        -11.9620  -14.5270   60.9870 C.2   383  GLN383      0.2287
    100  O        -12.6550  -15.0450   60.1080 O.2   383  GLN383     -0.2864
    101  CB       -12.6090  -12.1370   61.3290 C.3   383  GLN383      0.0394
    102  CG       -13.2350  -11.1510   62.2920 C.3   383  GLN383      0.0908
    103  CD       -13.7660   -9.8420   61.6840 C.2   383  GLN383      0.2608
    104  OE1      -14.2940   -9.0090   62.4070 O.2   383  GLN383     -0.2717
    105  NE2      -13.6290   -9.6640   60.3980 N.am  383  GLN383     -0.0878
    106  N        -19.2920  -13.1710   57.5620 N.3   465  TYR465     -0.1241
    107  CA       -17.8350  -12.9540   57.6440 C.3   465  TYR465      0.1605
    108  C        -17.1200  -13.5460   56.5010 C.2   465  TYR465      0.2264
    109  O        -15.9140  -13.3720   56.3910 O.2   465  TYR465     -0.2867
    110  CB       -17.2590  -13.6710   58.8520 C.3   465  TYR465      0.0534
    111  CG       -17.6290  -13.0530   60.1800 C.ar  465  TYR465     -0.0201
    112  CD1      -16.8720  -12.0100   60.7400 C.ar  465  TYR465     -0.0009
    113  CD2      -18.7410  -13.5150   60.8580 C.ar  465  TYR465     -0.0009
    114  CE1      -17.2030  -11.4730   61.9740 C.ar  465  TYR465      0.0417
    115  CE2      -19.0860  -13.0190   62.0930 C.ar  465  TYR465      0.0417
    116  CZ       -18.3280  -12.0250   62.6470 C.ar  465  TYR465      0.1957
    117  OH       -18.7680  -11.5760   63.8470 O.3   465  TYR465     -0.2866
    118  N        -15.4630  -11.4280   52.4440 N.3   468  MET468     -0.1245
    119  CA       -14.5150  -10.2710   52.5780 C.3   468  MET468      0.1570
    120  C        -14.1370   -9.6950   51.1990 C.2   468  MET468      0.2261
    121  O        -14.1940   -8.4830   50.9690 O.2   468  MET468     -0.2867
    122  CB       -13.2710  -10.6110   53.4380 C.3   468  MET468      0.0387
    123  CG       -13.5080  -10.7700   54.9840 C.3   468  MET468      0.0595
    124  SD       -14.8220   -9.7420   55.8710 S.3   468  MET468     -0.1393
    125  CE       -14.8980  -10.3860   57.5480 C.3   468  MET468      0.0692
    126  N        -15.3300   -6.1390   49.6340 N.3   472  TRP472     -0.1241
    127  CA       -14.2190   -5.2380   49.2480 C.3   472  TRP472      0.1605
    128  C        -14.3860   -4.6940   47.7990 C.2   472  TRP472      0.2264
    129  O        -14.4380   -3.4650   47.5830 O.2   472  TRP472     -0.2867
    130  CB       -12.8710   -5.9290   49.4600 C.3   472  TRP472      0.0550
    131  CG       -11.6640   -5.1620   49.0110 C.ar  472  TRP472      0.0003
    132  CD1      -11.0410   -4.1030   49.6690 C.ar  472  TRP472      0.0946
    133  CD2      -10.9060   -5.4010   47.8300 C.ar  472  TRP472      0.0152
    134  NE1       -9.9380   -3.6730   48.9380 N.ar  472  TRP472     -0.2442
    135  CE2       -9.8310   -4.4540   47.8110 C.ar  472  TRP472      0.0810
    136  CE3      -11.0010   -6.3570   46.7830 C.ar  472  TRP472      0.0012
    137  CZ2       -8.8770   -4.4060   46.7600 C.ar  472  TRP472      0.0191
    138  CZ3      -10.0350   -6.3350   45.7450 C.ar  472  TRP472      0.0001
    139  CH2       -8.9910   -5.3470   45.7480 C.ar  472  TRP472      0.0015
    140  N        -13.9420   -3.6880   68.5570 N.3   498  LEU498     -0.1245
    141  CA       -14.3360   -2.5280   67.7990 C.3   498  LEU498      0.1561
    142  C        -13.9830   -1.3160   68.6480 C.2   498  LEU498      0.2260
    143  O        -14.8480   -0.7310   69.2970 O.2   498  LEU498     -0.2867
    144  CB       -15.8250   -2.6000   67.4510 C.3   498  LEU498      0.0270
    145  CG       -16.2300   -3.7860   66.5500 C.3   498  LEU498      0.0019
    146  CD1      -17.7570   -3.7920   66.3780 C.3   498  LEU498      0.0001
    147  CD2      -15.5420   -3.6720   65.1700 C.3   498  LEU498      0.0001
    148  N        -10.5840    3.1890   66.4510 N.3   502  MET502     -0.1245
    149  CA       -10.7870    2.7160   65.0760 C.3   502  MET502      0.1570
    150  C        -11.7640    3.6510   64.3250 C.2   502  MET502      0.2261
    151  O        -11.7660    3.6320   63.1350 O.2   502  MET502     -0.2867
    152  CB       -11.4170    1.3290   65.0790 C.3   502  MET502      0.0387
    153  CG       -10.5660    0.1020   64.7960 C.3   502  MET502      0.0595
    154  SD       -11.6290   -1.3640   64.5000 S.3   502  MET502     -0.1393
    155  CE       -11.8870   -1.3700   62.7590 C.3   502  MET502      0.0692
@<TRIPOS>BOND
     1   138   139   ar
     2   138   136   ar
     3   139   137   ar
     4   137   135   ar
     5   136   133   ar
     6   129   128    2
     7   128   127    1
     8   135   133   ar
     9   135   134   ar
    10   133   131   ar
    11   134   132   ar
    12   131   130    1
    13   131   132   ar
    14   127   130    1
    15   127   126    1
    16    59    58    1
    17    59    53    1
    18   121   120    2
    19    58    57    1
    20   120   119    1
    21    53    54    1
    22   118   119    1
    23    57    54    1
    24   119   122    1
    25    54    55    1
    26   122   123    1
    27    55    56    2
    28    65    64    1
    29   123   124    1
    30    48    47    2
    31    60    61    1
    32    64    61    1
    33    47    46    1
    34   124   125    1
    35    61    62    1
    36   109   108    2
    37   108   107    1
    38    26    25    2
    39    73    71    1
    40    51    49    1
    41    46    45    1
    42    46    49    1
    43    22    21   ar
    44    22    20   ar
    45    28    29    1
    46    28    27    1
    47    21    19   ar
    48    66    62   am
    49    66    67    1
    50    62    63    2
    51   106   107    1
    52   107   110    1
    53    30    29    1
    54    25    24    1
    55    49    50    1
    56    71    70    1
    57    70    67    1
    58    70    72    1
    59    20    18   ar
    60    19    16   ar
    61    27    24    1
    62    67    68    1
    63   110   111    1
    64    24    23    1
    65    50    52    1
    66    18    16   ar
    67    18    17   ar
    68    68    69    2
    69    16    14   ar
    70    12    11    2
    71   100    99    2
    72   111   112   ar
    73   111   113   ar
    74   105   103   am
    75    17    15   ar
    76    41    40    2
    77    14    13    1
    78    14    15   ar
    79   112   114   ar
    80   113   115   ar
    81    99    98    1
    82    11    10    1
    83    40    39    1
    84    13    10    1
    85   101    98    1
    86   101   102    1
    87    10     9    1
    88   103   102    1
    89   103   104    2
    90    98    97    1
    91   114   116   ar
    92    37    35    1
    93   115   116   ar
    94    81    83   ar
    95    81    79   ar
    96    83    84   ar
    97    39    42    1
    98    39    38    1
    99   116   117    1
   100     4     3    2
   101   155   154    1
   102    42    43    1
   103    43    44    1
   104     9     3   am
   105    78    79    1
   106    78    75    1
   107    77    76    2
   108    79    80   ar
   109   151   150    2
   110    84    82   ar
   111    34    33    2
   112    38    33   am
   113    38    44    1
   114    97    87   am
   115    35    36    1
   116    35    32    1
   117     3     2    1
   118    33    32    1
   119    88    87    2
   120    80    82   ar
   121    76    75    1
   122    87    86    1
   123    32    31    1
   124   150   149    1
   125    75    74    1
   126   154   153    1
   127     7     6   ar
   128   153   152    1
   129     2     1    1
   130     2     5    1
   131   149   152    1
   132   149   148    1
   133   147   145    1
   134    96    95    1
   135    93    95   ar
   136    93    91   ar
   137    85    86    1
   138    86    89    1
   139     6     5    1
   140     6     8   ar
   141    95    94   ar
   142    91    90   ar
   143    94    92   ar
   144    90    92   ar
   145    90    89    1
   146   146   145    1
   147   145   144    1
   148   144   141    1
   149   141   140    1
   150   141   142    1
   151   142   143    2
