@<TRIPOS>MOLECULE
tmp/3wkdA00.pdb
 192 191 0 0 0
SMALL
GASTEIGER

@<TRIPOS>ATOM
      1  N        -22.6310   -7.9790   51.6540 N.3   309  MET309     -0.1245
      2  CA       -23.2980   -6.7370   52.0440 C.3   309  MET309      0.1570
      3  C        -24.2490   -6.1940   50.9790 C.2   309  MET309      0.2261
      4  O        -25.3380   -5.7450   51.3190 O.2   309  MET309     -0.2867
      5  CB       -22.3190   -5.6660   52.4980 C.3   309  MET309      0.0387
      6  CG       -22.9410   -4.5700   53.4010 C.3   309  MET309      0.0595
      7  SD       -23.9050   -5.1750   54.8010 S.3   309  MET309     -0.1393
      8  CE       -22.6720   -5.8900   55.8710 C.3   309  MET309      0.0692
      9  N        -22.3280   -6.0370   63.3200 N.3   335  TRP335     -0.1241
     10  CA       -22.6080   -6.2780   61.8970 C.3   335  TRP335      0.1605
     11  C        -23.7190   -5.4190   61.2810 C.2   335  TRP335      0.2264
     12  O        -23.5900   -5.0290   60.1270 O.2   335  TRP335     -0.2867
     13  CB       -22.8510   -7.7550   61.5640 C.3   335  TRP335      0.0550
     14  CG       -21.5990   -8.3910   61.1800 C.ar  335  TRP335      0.0003
     15  CD1      -20.8800   -9.2660   61.9370 C.ar  335  TRP335      0.0946
     16  CD2      -20.8170   -8.1440   59.9930 C.ar  335  TRP335      0.0152
     17  NE1      -19.7260   -9.6220   61.2740 N.ar  335  TRP335     -0.2442
     18  CE2      -19.6670   -8.9530   60.0810 C.ar  335  TRP335      0.0810
     19  CE3      -20.9890   -7.3470   58.8600 C.ar  335  TRP335      0.0012
     20  CZ2      -18.6860   -8.9750   59.0870 C.ar  335  TRP335      0.0191
     21  CZ3      -20.0230   -7.3870   57.8770 C.ar  335  TRP335      0.0001
     22  CH2      -18.8860   -8.1890   57.9990 C.ar  335  TRP335      0.0015
     23  N        -22.2560   -2.0680   60.3920 N.3   338  MET338     -0.1245
     24  CA       -21.6600   -2.0510   59.0620 C.3   338  MET338      0.1570
     25  C        -22.7350   -1.9150   58.0090 C.2   338  MET338      0.2261
     26  O        -22.5500   -1.1880   56.9860 O.2   338  MET338     -0.2867
     27  CB       -20.9090   -3.3230   58.8060 C.3   338  MET338      0.0387
     28  CG       -19.8720   -3.2240   57.7260 C.3   338  MET338      0.0595
     29  SD       -18.3330   -2.5160   58.3520 S.3   338  MET338     -0.1393
     30  CE       -18.5160   -0.7550   58.0240 C.3   338  MET338      0.0692
     31  N        -23.4190    1.1580   54.9740 N.3   342  TYR342     -0.1241
     32  CA       -23.5400    0.8900   53.5560 C.3   342  TYR342      0.1605
     33  C        -24.9250    1.1830   52.9340 C.2   342  TYR342      0.2264
     34  O        -25.0130    1.4290   51.7370 O.2   342  TYR342     -0.2867
     35  CB       -22.9710   -0.4900   53.2100 C.3   342  TYR342      0.0534
     36  CG       -21.4720   -0.3940   53.2690 C.ar  342  TYR342     -0.0201
     37  CD1      -20.7740   -0.6480   54.4610 C.ar  342  TYR342     -0.0009
     38  CD2      -20.7510    0.0590   52.1450 C.ar  342  TYR342     -0.0009
     39  CE1      -19.3890   -0.5050   54.5080 C.ar  342  TYR342      0.0417
     40  CE2      -19.3760    0.2120   52.1900 C.ar  342  TYR342      0.0417
     41  CZ       -18.7030   -0.0770   53.3560 C.ar  342  TYR342      0.1957
     42  OH       -17.3680    0.0860   53.3410 O.3   342  TYR342     -0.2866
     43  N        -15.1090    2.8410   58.1220 N.3   362  ILE362     -0.1231
     44  CA       -13.7550    2.9590   57.6400 C.3   362  ILE362      0.1678
     45  C        -13.8170    2.4640   56.2160 C.2   362  ILE362      0.2434
     46  O        -14.1060    1.3020   55.9860 O.2   362  ILE362     -0.2733
     47  CB       -12.7350    2.0890   58.4480 C.3   362  ILE362      0.0265
     48  CG1      -12.7220    2.4660   59.9430 C.3   362  ILE362      0.0019
     49  CG2      -11.3120    2.2000   57.8480 C.3   362  ILE362      0.0020
     50  CD1      -11.7170    1.6840   60.7710 C.3   362  ILE362      0.0001
     51  N        -13.5400    3.3470   55.2530 N.am  363  PRO363     -0.2718
     52  CA       -13.6100    3.0450   53.8120 C.3   363  PRO363      0.1535
     53  C        -12.6330    1.9700   53.4140 C.2   363  PRO363      0.2598
     54  O        -11.5170    1.9660   53.9010 O.2   363  PRO363     -0.2715
     55  CB       -13.1870    4.3560   53.1430 C.3   363  PRO363      0.0310
     56  CG       -12.4880    5.1280   54.2180 C.3   363  PRO363      0.0237
     57  CD       -13.1270    4.7380   55.5170 C.3   363  PRO363      0.0939
     58  N        -13.0420    1.0920   52.5090 N.am  364  ALA364     -0.1964
     59  CA       -12.1770    0.0440   51.9950 C.3   364  ALA364      0.1728
     60  C        -10.8470    0.5840   51.4420 C.2   364  ALA364      0.2616
     61  O        -10.8000    1.6270   50.8010 O.2   364  ALA364     -0.2715
     62  CB       -12.9080   -0.7090   50.9140 C.3   364  ALA364      0.0334
     63  N         -9.7690   -0.1540   51.6540 N.am  365  ASN365     -0.1972
     64  CA        -8.5050    0.1740   50.9850 C.3   365  ASN365      0.1688
     65  C         -8.3290   -0.5300   49.6350 C.2   365  ASN365      0.2292
     66  O         -8.0280   -1.7440   49.6040 O.2   365  ASN365     -0.2864
     67  CB        -7.2990   -0.1330   51.8870 C.3   365  ASN365      0.1181
     68  CG        -5.9780    0.2620   51.2530 C.2   365  ASN365      0.2629
     69  OD1       -5.9000    0.5600   50.0550 O.2   365  ASN365     -0.2716
     70  ND2       -4.9200    0.2640   52.0670 N.am  365  ASN365     -0.0877
     71  N         -8.1500   -7.5860   50.9720 N.3   370  PRO370     -0.2116
     72  CA        -8.8910   -7.3870   52.2200 C.3   370  PRO370      0.1372
     73  C         -8.4950   -8.3300   53.3660 C.2   370  PRO370      0.2244
     74  O         -8.5800   -7.9240   54.5360 O.2   370  PRO370     -0.2868
     75  CB       -10.3550   -7.5610   51.8040 C.3   370  PRO370      0.0268
     76  CG       -10.3340   -8.2360   50.4620 C.3   370  PRO370      0.0207
     77  CD        -9.0060   -7.9900   49.8340 C.3   370  PRO370      0.0892
     78  N         -5.5380   -6.9040   55.2440 N.3   373  SER373     -0.1202
     79  CA        -6.0700   -5.8450   56.1020 C.3   373  SER373      0.2020
     80  C         -6.5060   -6.3740   57.4780 C.2   373  SER373      0.2618
     81  O         -6.0040   -5.8850   58.5010 O.2   373  SER373     -0.2717
     82  CB        -7.2100   -5.0990   55.3930 C.3   373  SER373      0.2103
     83  OG        -6.7950   -4.6800   54.1000 O.3   373  SER373     -0.2182
     84  N         -7.3980   -7.3780   57.5030 N.am  374  ILE374     -0.1979
     85  CA        -7.7820   -8.0620   58.7600 C.3   374  ILE374      0.1595
     86  C         -6.5810   -8.6130   59.5500 C.2   374  ILE374      0.2287
     87  O         -6.4240   -8.2650   60.7240 O.2   374  ILE374     -0.2864
     88  CB        -8.8480   -9.1690   58.5480 C.3   374  ILE374      0.0276
     89  CG1      -10.2420   -8.5630   58.4740 C.3   374  ILE374      0.0022
     90  CG2       -8.8630  -10.1590   59.7050 C.3   374  ILE374      0.0022
     91  CD1      -10.6710   -8.1600   57.0780 C.3   374  ILE374      0.0001
     92  N        -12.0910  -13.4030   63.6730 N.3   383  GLN383     -0.1245
     93  CA       -12.5660  -13.3230   62.3080 C.3   383  GLN383      0.1566
     94  C        -11.9930  -14.3690   61.3220 C.2   383  GLN383      0.2260
     95  O        -12.7550  -14.8640   60.4770 O.2   383  GLN383     -0.2867
     96  CB       -12.4410  -11.9080   61.7920 C.3   383  GLN383      0.0367
     97  CG       -13.3520  -10.9750   62.5960 C.3   383  GLN383      0.0905
     98  CD       -13.1090   -9.4870   62.3710 C.2   383  GLN383      0.2608
     99  OE1      -13.4720   -8.6700   63.2210 O.2   383  GLN383     -0.2717
    100  NE2      -12.4960   -9.1250   61.2310 N.am  383  GLN383     -0.0878
    101  N        -13.6720  -18.1740   59.1070 N.3   387  GLN387     -0.1245
    102  CA       -13.6540  -18.3860   57.6480 C.3   387  GLN387      0.1566
    103  C        -14.0830  -19.7650   57.1030 C.2   387  GLN387      0.2260
    104  O        -14.8480  -19.8470   56.1410 O.2   387  GLN387     -0.2867
    105  CB       -12.3040  -17.9170   57.0820 C.3   387  GLN387      0.0367
    106  CG       -12.0460  -16.4880   57.5170 C.3   387  GLN387      0.0905
    107  CD       -13.0660  -15.5670   56.8580 C.2   387  GLN387      0.2608
    108  OE1      -13.2080  -15.6030   55.6570 O.2   387  GLN387     -0.2717
    109  NE2      -13.7690  -14.7560   57.6220 N.am  387  GLN387     -0.0878
    110  N        -21.9970  -13.9200   57.3980 N.3   464  TRP464     -0.1227
    111  CA       -21.8000  -12.4800   57.2930 C.3   464  TRP464      0.1737
    112  C        -20.3020  -12.1900   57.2210 C.2   464  TRP464      0.2595
    113  O        -19.9090  -11.1450   56.6870 O.2   464  TRP464     -0.2718
    114  CB       -22.4010  -11.7300   58.4890 C.3   464  TRP464      0.0564
    115  CG       -23.9090  -11.5710   58.4740 C.ar  464  TRP464      0.0003
    116  CD1      -24.8620  -12.5920   58.4840 C.ar  464  TRP464      0.0946
    117  CD2      -24.6580  -10.3410   58.4320 C.ar  464  TRP464      0.0152
    118  NE1      -26.1320  -12.0530   58.4480 N.ar  464  TRP464     -0.2442
    119  CE2      -26.0430  -10.6870   58.4160 C.ar  464  TRP464      0.0810
    120  CE3      -24.2980   -8.9860   58.4170 C.ar  464  TRP464      0.0012
    121  CZ2      -27.0580   -9.7320   58.3900 C.ar  464  TRP464      0.0191
    122  CZ3      -25.3160   -8.0240   58.3660 C.ar  464  TRP464      0.0001
    123  CH2      -26.6910   -8.4050   58.3490 C.ar  464  TRP464      0.0015
    124  N        -19.4730  -13.0830   57.7830 N.am  465  TYR465     -0.1976
    125  CA       -18.0240  -12.8860   57.8180 C.3   465  TYR465      0.1639
    126  C        -17.2970  -13.4280   56.6020 C.2   465  TYR465      0.2290
    127  O        -16.0820  -13.2750   56.4910 O.2   465  TYR465     -0.2864
    128  CB       -17.4320  -13.5910   59.0220 C.3   465  TYR465      0.0560
    129  CG       -17.7340  -12.9520   60.3440 C.ar  465  TYR465     -0.0198
    130  CD1      -16.9070  -11.9800   60.8530 C.ar  465  TYR465     -0.0009
    131  CD2      -18.8170  -13.3600   61.1030 C.ar  465  TYR465     -0.0009
    132  CE1      -17.1550  -11.3960   62.0870 C.ar  465  TYR465      0.0417
    133  CE2      -19.0800  -12.7860   62.3420 C.ar  465  TYR465      0.0417
    134  CZ       -18.2350  -11.7960   62.8170 C.ar  465  TYR465      0.1957
    135  OH       -18.4620  -11.1840   64.0140 O.3   465  TYR465     -0.2866
    136  N        -17.6160  -12.9940   53.2820 N.3   467  ASN467     -0.1225
    137  CA       -17.6510  -12.2940   52.0060 C.3   467  ASN467      0.1785
    138  C        -16.6880  -11.1490   51.8830 C.2   467  ASN467      0.2600
    139  O        -17.0010  -10.1980   51.1940 O.2   467  ASN467     -0.2717
    140  CB       -19.0600  -11.7930   51.7350 C.3   467  ASN467      0.1169
    141  CG       -20.0380  -12.9250   51.5240 C.2   467  ASN467      0.2627
    142  OD1      -20.0770  -13.4960   50.4470 O.2   467  ASN467     -0.2716
    143  ND2      -20.8330  -13.2570   52.5520 N.am  467  ASN467     -0.0877
    144  N        -15.5270  -11.2090   52.5200 N.am  468  MET468     -0.1934
    145  CA       -14.6210  -10.0670   52.4400 C.3   468  MET468      0.1821
    146  C        -14.2090   -9.6120   51.0190 C.2   468  MET468      0.2332
    147  O        -14.2540   -8.4190   50.7620 O.2   468  MET468     -0.2860
    148  CB       -13.4420  -10.1860   53.4210 C.2   468  MET468      0.0096
    149  CG       -12.2500  -10.9820   52.9280 C.2   468  MET468      0.0285
    150  SD       -11.1210  -11.6000   54.2170 S.3   468  MET468     -0.1125
    151  CE       -11.6590  -10.7030   55.6820 C.3   468  MET468      0.0742
    152  N        -17.3330   -8.0750   49.3320 N.3   471  ASN471     -0.1225
    153  CA       -17.7620   -6.8680   49.9990 C.3   471  ASN471      0.1785
    154  C        -16.7560   -5.7660   49.7510 C.2   471  ASN471      0.2597
    155  O        -17.1520   -4.6010   49.6300 O.2   471  ASN471     -0.2718
    156  CB       -17.8640   -7.0620   51.5110 C.3   471  ASN471      0.1169
    157  CG       -19.1180   -7.7760   51.9400 C.2   471  ASN471      0.2627
    158  OD1      -20.0190   -8.0700   51.1520 O.2   471  ASN471     -0.2716
    159  ND2      -19.1800   -8.0700   53.2110 N.am  471  ASN471     -0.0877
    160  N        -15.4670   -6.1340   49.7000 N.am  472  TRP472     -0.1976
    161  CA       -14.3730   -5.1800   49.4280 C.3   472  TRP472      0.1640
    162  C        -14.5390   -4.5380   48.0380 C.2   472  TRP472      0.2290
    163  O        -14.4620   -3.3020   47.9240 O.2   472  TRP472     -0.2864
    164  CB       -12.9980   -5.8380   49.6190 C.3   472  TRP472      0.0576
    165  CG       -11.7790   -5.0270   49.1050 C.ar  472  TRP472      0.0006
    166  CD1      -11.1640   -3.9530   49.7210 C.ar  472  TRP472      0.0946
    167  CD2      -11.0270   -5.2800   47.9000 C.ar  472  TRP472      0.0152
    168  NE1      -10.1010   -3.5210   48.9660 N.ar  472  TRP472     -0.2442
    169  CE2       -9.9840   -4.3080   47.8470 C.ar  472  TRP472      0.0810
    170  CE3      -11.1350   -6.2310   46.8570 C.ar  472  TRP472      0.0012
    171  CZ2       -9.0610   -4.2430   46.7770 C.ar  472  TRP472      0.0191
    172  CZ3      -10.2090   -6.1820   45.7910 C.ar  472  TRP472      0.0001
    173  CH2       -9.1860   -5.1850   45.7620 C.ar  472  TRP472      0.0015
    174  N        -17.2580   -4.3890   46.2140 N.3   474  TRP474     -0.1227
    175  CA       -18.5080   -3.6400   46.2070 C.3   474  TRP474      0.1737
    176  C        -18.3340   -2.2630   46.8440 C.2   474  TRP474      0.2595
    177  O        -18.7570   -1.2210   46.2720 O.2   474  TRP474     -0.2718
    178  CB       -19.5660   -4.4390   46.9800 C.3   474  TRP474      0.0564
    179  CG       -20.8910   -3.8400   46.8790 C.ar  474  TRP474      0.0003
    180  CD1      -21.5880   -3.5570   45.7110 C.ar  474  TRP474      0.0946
    181  CD2      -21.7100   -3.3800   47.9620 C.ar  474  TRP474      0.0152
    182  NE1      -22.8020   -2.9650   46.0270 N.ar  474  TRP474     -0.2442
    183  CE2      -22.9100   -2.8440   47.3850 C.ar  474  TRP474      0.0810
    184  CE3      -21.5710   -3.3870   49.3490 C.ar  474  TRP474      0.0012
    185  CZ2      -23.9430   -2.3330   48.1480 C.ar  474  TRP474      0.0191
    186  CZ3      -22.6200   -2.8640   50.1190 C.ar  474  TRP474      0.0001
    187  CH2      -23.7850   -2.3490   49.5080 C.ar  474  TRP474      0.0015
    188  N        -17.6860   -2.2760   48.0090 N.am  475  ALA475     -0.1980
    189  CA       -17.3780   -1.0890   48.7880 C.3   475  ALA475      0.1597
    190  C        -16.4830   -0.1200   47.9700 C.2   475  ALA475      0.2287
    191  O        -16.6920    1.1050   47.9900 O.2   475  ALA475     -0.2864
    192  CB       -16.7360   -1.4930   50.1140 C.3   475  ALA475      0.0319
@<TRIPOS>BOND
     1   180   182   ar
     2   180   179   ar
     3   173   172   ar
     4   173   171   ar
     5   172   170   ar
     6   182   183   ar
     7   175   174    1
     8   175   176    1
     9   175   178    1
    10   177   176    2
    11   171   169   ar
    12   176   188   am
    13   170   167   ar
    14   179   178    1
    15   179   181   ar
    16   183   181   ar
    17   183   185   ar
    18   169   167   ar
    19   169   168   ar
    20   167   165   ar
    21   163   162    2
    22   181   184   ar
    23   190   191    2
    24   190   189    1
    25   188   189    1
    26   162   161    1
    27   185   187   ar
    28   189   192    1
    29   168   166   ar
    30   165   164    1
    31   165   166   ar
    32   152   153    1
    33   184   186   ar
    34   161   164    1
    35   161   160    1
    36   187   186   ar
    37    66    65    2
    38   155   154    2
    39    65    64    1
    40   160   154   am
    41   154   153    1
    42    77    76    1
    43    77    71    1
    44   153   156    1
    45    69    68    2
    46   142   141    2
    47    76    75    1
    48   147   146    2
    49    61    60    2
    50    62    59    1
    51    71    72    1
    52     3     4    2
    53     3     2    1
    54    64    63    1
    55    64    67    1
    56   146   145    1
    57   158   157    2
    58   139   138    2
    59    68    67    1
    60    68    70   am
    61    60    63   am
    62    60    59    1
    63   156   157    1
    64   141   140    1
    65   141   143   am
    66     1     2    1
    67   140   137    1
    68    34    33    2
    69    75    72    1
    70   138   137    1
    71   138   144   am
    72   157   159   am
    73    59    58    1
    74   137   136    1
    75     2     5    1
    76    38    40   ar
    77    38    36   ar
    78    40    41   ar
    79    72    73    1
    80   145   144    1
    81   145   148    1
    82     5     6    1
    83    58    53   am
    84   149   148    2
    85   149   150    1
    86    33    32    1
    87    55    52    1
    88    55    56    1
    89    35    36    1
    90    35    32    1
    91    36    37   ar
    92    42    41    1
    93    41    39   ar
    94    73    74    2
    95     6     7    1
    96    53    52    1
    97    53    54    2
    98    32    31    1
    99    52    51    1
   100    83    82    1
   101   150   151    1
   102    56    57    1
   103    37    39   ar
   104     7     8    1
   105    78    79    1
   106    51    57    1
   107    51    45   am
   108    82    79    1
   109   108   107    2
   110    46    45    2
   111    79    80    1
   112   104   103    2
   113    45    44    1
   114   127   126    2
   115   126   125    1
   116   113   112    2
   117   107   106    1
   118   107   109   am
   119    26    25    2
   120    91    89    1
   121   105   106    1
   122   105   102    1
   123   103   102    1
   124   112   111    1
   125   112   124   am
   126   111   110    1
   127   111   114    1
   128    80    84   am
   129    80    81    2
   130    84    85    1
   131    44    43    1
   132    44    47    1
   133   102   101    1
   134    28    29    1
   135    28    27    1
   136   124   125    1
   137   125   128    1
   138    49    47    1
   139    21    22   ar
   140    21    19   ar
   141    22    20   ar
   142    25    24    1
   143    30    29    1
   144   123   122   ar
   145   123   121   ar
   146   122   120   ar
   147   121   119   ar
   148   119   117   ar
   149   119   118   ar
   150   120   117   ar
   151   117   115   ar
   152    47    48    1
   153   118   116   ar
   154    89    88    1
   155   115   116   ar
   156   115   114    1
   157    88    85    1
   158    88    90    1
   159    85    86    1
   160    27    24    1
   161    19    16   ar
   162   128   129    1
   163    24    23    1
   164    20    18   ar
   165    86    87    2
   166    48    50    1
   167    16    18   ar
   168    16    14   ar
   169    18    17   ar
   170    12    11    2
   171   129   130   ar
   172   129   131   ar
   173    95    94    2
   174   130   132   ar
   175   131   133   ar
   176    14    13    1
   177    14    15   ar
   178   100    98   am
   179    17    15   ar
   180    11    10    1
   181    94    93    1
   182    13    10    1
   183    96    93    1
   184    96    97    1
   185    10     9    1
   186   132   134   ar
   187    93    92    1
   188   133   134   ar
   189    98    97    1
   190    98    99    2
   191   134   135    1
