@<TRIPOS>MOLECULE
tmp/3wkgA00.pdb
 165 165 0 0 0
SMALL
GASTEIGER

@<TRIPOS>ATOM
      1  N          1.2710   -7.2520  -11.7170 N.3    64  ARG64      -0.1245
      2  CA         0.9950   -6.1380  -12.6190 C.3    64  ARG64       0.1563
      3  C          0.9510   -6.5760  -14.0850 C.2    64  ARG64       0.2260
      4  O          0.1210   -6.0890  -14.8510 O.2    64  ARG64      -0.2867
      5  CB         1.9940   -5.0090  -12.3910 C.3    64  ARG64       0.0307
      6  CG         1.6990   -4.2310  -11.1060 C.3    64  ARG64       0.0489
      7  CD         2.8140   -3.2640  -10.7730 C.3    64  ARG64       0.2205
      8  NE         2.4930   -2.4440   -9.6060 N.pl3  64  ARG64      -0.0865
      9  CZ         3.2150   -1.3960   -9.2110 C.cat  64  ARG64       0.5346
     10  NH1        4.3040   -1.0450   -9.8760 N.pl3  64  ARG64       0.1354
     11  NH2        2.8450   -0.6960   -8.1490 N.pl3  64  ARG64       0.1354
     12  N          0.9500   -5.1100    0.5330 N.3   122  TYR122     -0.1241
     13  CA         0.9830   -4.4270   -0.7650 C.3   122  TYR122      0.1605
     14  C          1.0270   -5.4880   -1.8600 C.2   122  TYR122      0.2264
     15  O          0.2950   -5.4030   -2.8490 O.2   122  TYR122     -0.2867
     16  CB         2.2050   -3.5030   -0.8330 C.3   122  TYR122      0.0534
     17  CG         2.3380   -2.6040   -2.0580 C.ar  122  TYR122     -0.0201
     18  CD1        2.6300   -3.1320   -3.3140 C.ar  122  TYR122     -0.0009
     19  CD2        2.2360   -1.2230   -1.9370 C.ar  122  TYR122     -0.0009
     20  CE1        2.7950   -2.3060   -4.4220 C.ar  122  TYR122      0.0417
     21  CE2        2.3880   -0.3900   -3.0350 C.ar  122  TYR122      0.0417
     22  CZ         2.6580   -0.9370   -4.2730 C.ar  122  TYR122      0.1957
     23  OH         2.8170   -0.1080   -5.3620 O.3   122  TYR122     -0.2866
     24  N          8.3530   -0.9850    2.3100 N.3   182  LEU182     -0.1231
     25  CA         8.4200   -1.5180    0.9560 C.3   182  LEU182      0.1693
     26  C          9.8390   -1.4210    0.3940 C.2   182  LEU182      0.2592
     27  O         10.2640   -2.2730   -0.4000 O.2   182  LEU182     -0.2718
     28  CB         7.4520   -0.7540    0.0520 C.3   182  LEU182      0.0284
     29  CG         5.9530   -0.8640    0.3180 C.3   182  LEU182      0.0019
     30  CD1        5.2190    0.2250   -0.4640 C.3   182  LEU182      0.0001
     31  CD2        5.4700   -2.2470   -0.0870 C.3   182  LEU182      0.0001
     32  N         10.5640   -0.3790    0.8050 N.am  183  SER183     -0.1952
     33  CA        11.9060   -0.0940    0.2970 C.3   183  SER183      0.1924
     34  C         12.6460    0.8400    1.2490 C.2   183  SER183      0.2314
     35  O         12.0600    1.3480    2.2090 O.2   183  SER183     -0.2863
     36  CB        11.8190    0.5740   -1.0800 C.3   183  SER183      0.2116
     37  OG        11.2600    1.8790   -0.9800 O.3   183  SER183     -0.2180
     38  N         13.4400    3.7690    0.7810 N.3   185  LYS185     -0.1231
     39  CA        12.8680    5.1050    0.6280 C.3   185  LYS185      0.1693
     40  C         11.8000    5.4020    1.6910 C.2   185  LYS185      0.2592
     41  O         11.5980    6.5530    2.0740 O.2   185  LYS185     -0.2718
     42  CB        12.2600    5.2300   -0.7770 C.3   185  LYS185      0.0285
     43  CG        11.5860    6.5560   -1.1100 C.3   185  LYS185      0.0035
     44  CD        10.5970    6.3650   -2.2640 C.3   185  LYS185      0.0206
     45  CE        10.0890    7.6930   -2.8190 C.3   185  LYS185      0.1093
     46  NZ         9.6340    8.6210   -1.7500 N.3   185  LYS185     -0.1314
     47  N         11.1250    4.3620    2.1730 N.am  186  ASP186     -0.1974
     48  CA         9.9220    4.5450    2.9760 C.3   186  ASP186      0.1709
     49  C         10.1950    4.7420    4.4590 C.2   186  ASP186      0.2293
     50  O         11.1040    4.1310    5.0140 O.2   186  ASP186     -0.2864
     51  CB         8.9870    3.3560    2.7760 C.3   186  ASP186      0.1436
     52  CG         8.6600    3.1310    1.3220 C.2   186  ASP186      0.3671
     53  OD1        7.9780    3.9930    0.7410 O.co2 186  ASP186     -0.2456
     54  OD2        9.0970    2.1060    0.7550 O.co2 186  ASP186     -0.2456
     55  N          0.1670    4.4490    1.1660 N.3   194  ASN194     -0.1240
     56  CA         0.5100    3.7200   -0.0590 C.3   194  ASN194      0.1653
     57  C         -0.0400    2.2810   -0.0580 C.2   194  ASN194      0.2266
     58  O         -0.7560    1.8590   -0.9720 O.2   194  ASN194     -0.2867
     59  CB         2.0320    3.7460   -0.2310 C.3   194  ASN194      0.1155
     60  CG         2.4860    3.3210   -1.6080 C.2   194  ASN194      0.2627
     61  OD1        1.6820    3.1930   -2.5350 O.2   194  ASN194     -0.2716
     62  ND2        3.7910    3.1190   -1.7510 N.am  194  ASN194     -0.0877
     63  N         -3.6540    0.5670   -2.1120 N.3   198  HIS198     -0.1241
     64  CA        -3.6980   -0.6470   -2.9240 C.3   198  HIS198      0.1621
     65  C         -4.5810   -1.7650   -2.3590 C.2   198  HIS198      0.2264
     66  O         -5.1280   -2.5610   -3.1180 O.2   198  HIS198     -0.2867
     67  CB        -2.2790   -1.0890   -3.2890 C.3   198  HIS198      0.0745
     68  CG        -1.5970   -0.1310   -4.2130 C.ar  198  HIS198      0.0817
     69  ND1       -1.9640    0.0030   -5.5350 N.ar  198  HIS198     -0.2268
     70  CD2       -0.6130    0.7750   -4.0010 C.ar  198  HIS198      0.1154
     71  CE1       -1.2200    0.9360   -6.1050 C.ar  198  HIS198      0.1986
     72  NE2       -0.3930    1.4210   -5.1950 N.ar  198  HIS198     -0.2212
     73  N          0.3380    9.9860   -5.9270 N.3   257  HIS257     -0.1241
     74  CA        -0.6100    9.2720   -5.0730 C.3   257  HIS257      0.1621
     75  C         -1.9050   10.0630   -4.9020 C.2   257  HIS257      0.2264
     76  O         -2.9860    9.4690   -4.8670 O.2   257  HIS257     -0.2867
     77  CB        -0.0100    9.0000   -3.6930 C.3   257  HIS257      0.0745
     78  CG         0.9860    7.8830   -3.6560 C.ar  257  HIS257      0.0817
     79  ND1        2.3420    8.0870   -3.7850 N.ar  257  HIS257     -0.2268
     80  CD2        0.8230    6.5580   -3.4380 C.ar  257  HIS257      0.1154
     81  CE1        2.9690    6.9300   -3.6810 C.ar  257  HIS257      0.1986
     82  NE2        2.0710    5.9870   -3.4650 N.ar  257  HIS257     -0.2212
     83  N         -3.9190    9.7020   -8.2060 N.3   260  GLU260     -0.1245
     84  CA        -4.3640    8.3040   -8.3060 C.3   260  GLU260      0.1567
     85  C         -5.5330    8.0440   -7.3540 C.2   260  GLU260      0.2260
     86  O         -6.5750    7.4870   -7.7460 O.2   260  GLU260     -0.2867
     87  CB        -3.2090    7.3440   -7.9890 C.3   260  GLU260      0.0388
     88  CG        -3.5850    5.8740   -8.1360 C.3   260  GLU260      0.1160
     89  CD        -2.4220    4.9270   -7.8940 C.2   260  GLU260      0.3649
     90  OE1       -1.3390    5.3780   -7.4520 O.co2 260  GLU260     -0.2457
     91  OE2       -2.5900    3.7130   -8.1400 O.co2 260  GLU260     -0.2457
     92  N          7.4470   14.9670   -8.6730 N.3   305  TYR305     -0.1241
     93  CA         7.4060   13.6940   -7.9540 C.3   305  TYR305      0.1605
     94  C          6.8690   13.8080   -6.5260 C.2   305  TYR305      0.2264
     95  O          5.9370   13.1000   -6.1350 O.2   305  TYR305     -0.2867
     96  CB         8.7880   13.0420   -7.9300 C.3   305  TYR305      0.0534
     97  CG         8.7980   11.6330   -7.3930 C.ar  305  TYR305     -0.0201
     98  CD1        7.8900   10.6890   -7.8570 C.ar  305  TYR305     -0.0009
     99  CD2        9.7420   11.2360   -6.4550 C.ar  305  TYR305     -0.0009
    100  CE1        7.9050    9.3900   -7.3860 C.ar  305  TYR305      0.0417
    101  CE2        9.7670    9.9340   -5.9750 C.ar  305  TYR305      0.0417
    102  CZ         8.8440    9.0230   -6.4550 C.ar  305  TYR305      0.1957
    103  OH         8.8460    7.7200   -5.9950 O.3   305  TYR305     -0.2866
    104  N          8.4880   11.1230  -12.9160 N.3   318  HIS318     -0.1226
    105  CA         8.4510    9.6680  -12.9780 C.3   318  HIS318      0.1752
    106  C          7.3320    9.2520  -13.9140 C.2   318  HIS318      0.2596
    107  O          6.3850   10.0150  -14.1480 O.2   318  HIS318     -0.2718
    108  CB         8.2620    9.0590  -11.5870 C.3   318  HIS318      0.0759
    109  CG         9.4380    9.2490  -10.6830 C.ar  318  HIS318      0.0818
    110  ND1        9.9800    8.2130   -9.9520 N.ar  318  HIS318     -0.2268
    111  CD2       10.1630   10.3510  -10.3750 C.ar  318  HIS318      0.1154
    112  CE1       10.9850    8.6730   -9.2260 C.ar  318  HIS318      0.1986
    113  NE2       11.1190    9.9640   -9.4680 N.ar  318  HIS318     -0.2212
    114  N          7.4280    8.0430  -14.4490 N.am  319  TRP319     -0.1962
    115  CA         6.4760    7.6050  -15.4610 C.3   319  TRP319      0.1771
    116  C          5.0480    7.5290  -14.9090 C.2   319  TRP319      0.2619
    117  O          4.0830    7.9700  -15.5620 O.2   319  TRP319     -0.2715
    118  CB         6.9180    6.2650  -16.0710 C.3   319  TRP319      0.0590
    119  CG         6.5080    5.0480  -15.2760 C.ar  319  TRP319      0.0006
    120  CD1        5.4700    4.1950  -15.5570 C.ar  319  TRP319      0.0946
    121  CD2        7.1240    4.5380  -14.0810 C.ar  319  TRP319      0.0152
    122  NE1        5.4030    3.2130  -14.6180 N.ar  319  TRP319     -0.2442
    123  CE2        6.3900    3.3990  -13.6850 C.ar  319  TRP319      0.0810
    124  CE3        8.2110    4.9430  -13.2980 C.ar  319  TRP319      0.0012
    125  CZ2        6.7230    2.6480  -12.5580 C.ar  319  TRP319      0.0191
    126  CZ3        8.5380    4.2000  -12.1630 C.ar  319  TRP319      0.0001
    127  CH2        7.7860    3.0650  -11.8060 C.ar  319  TRP319      0.0015
    128  N          4.9030    6.9980  -13.7000 N.am  320  TRP320     -0.1974
    129  CA         3.5770    6.6390  -13.2110 C.3   320  TRP320      0.1640
    130  C          2.6950    7.8290  -12.7540 C.2   320  TRP320      0.2290
    131  O          1.4810    7.7700  -12.9280 O.2   320  TRP320     -0.2864
    132  CB         3.6370    5.4950  -12.1720 C.3   320  TRP320      0.0576
    133  CG         4.2470    5.8960  -10.8760 C.ar  320  TRP320      0.0006
    134  CD1        5.5690    5.8090  -10.5200 C.ar  320  TRP320      0.0946
    135  CD2        3.5700    6.5030   -9.7660 C.ar  320  TRP320      0.0152
    136  NE1        5.7460    6.3170   -9.2530 N.ar  320  TRP320     -0.2442
    137  CE2        4.5360    6.7390   -8.7680 C.ar  320  TRP320      0.0810
    138  CE3        2.2370    6.8450   -9.5130 C.ar  320  TRP320      0.0012
    139  CZ2        4.2180    7.3250   -7.5430 C.ar  320  TRP320      0.0191
    140  CZ3        1.9170    7.4230   -8.2970 C.ar  320  TRP320      0.0001
    141  CH2        2.9000    7.6600   -7.3260 C.ar  320  TRP320      0.0015
    142  N          9.8610   -2.4440   -9.4180 N.3   383  TRP383     -0.1241
    143  CA         8.8520   -1.4070   -9.2190 C.3   383  TRP383      0.1605
    144  C          8.2320   -0.8210  -10.4960 C.2   383  TRP383      0.2264
    145  O          7.3470    0.0400  -10.4130 O.2   383  TRP383     -0.2867
    146  CB         9.4460   -0.2660   -8.3950 C.3   383  TRP383      0.0550
    147  CG         9.6750   -0.6590   -6.9800 C.ar  383  TRP383      0.0003
    148  CD1       10.8730   -0.8640   -6.3620 C.ar  383  TRP383      0.0946
    149  CD2        8.6640   -0.9290   -6.0070 C.ar  383  TRP383      0.0152
    150  NE1       10.6670   -1.2290   -5.0490 N.ar  383  TRP383     -0.2442
    151  CE2        9.3210   -1.2720   -4.8060 C.ar  383  TRP383      0.0810
    152  CE3        7.2670   -0.8930   -6.0280 C.ar  383  TRP383      0.0012
    153  CZ2        8.6210   -1.6000   -3.6410 C.ar  383  TRP383      0.0191
    154  CZ3        6.5720   -1.2150   -4.8740 C.ar  383  TRP383      0.0001
    155  CH2        7.2510   -1.5650   -3.6950 C.ar  383  TRP383      0.0015
    156  N          0.6120    0.9230  -14.4390 N.3   388  HIS388     -0.1241
    157  CA         0.1880    2.3190  -14.3720 C.3   388  HIS388      0.1621
    158  C         -0.0920    2.9040  -15.7390 C.2   388  HIS388      0.2264
    159  O         -1.1340    3.5370  -15.9560 O.2   388  HIS388     -0.2867
    160  CB         1.2030    3.1960  -13.6490 C.3   388  HIS388      0.0745
    161  CG         1.1390    3.0810  -12.1640 C.ar  388  HIS388      0.0817
    162  ND1        0.0740    3.5610  -11.4380 N.ar  388  HIS388     -0.2268
    163  CD2        2.0040    2.5470  -11.2690 C.ar  388  HIS388      0.1154
    164  CE1        0.2880    3.3340  -10.1530 C.ar  388  HIS388      0.1986
    165  NE2        1.4450    2.7110  -10.0260 N.ar  388  HIS388     -0.2212
@<TRIPOS>BOND
     1   118   115    1
     2   118   119    1
     3   159   158    2
     4   158   157    1
     5   117   116    2
     6   120   119   ar
     7   120   122   ar
     8   115   116    1
     9   115   114    1
    10   119   121   ar
    11   116   128   am
    12     4     3    2
    13   122   123   ar
    14   114   106   am
    15   156   157    1
    16   157   160    1
    17   107   106    2
    18     3     2    1
    19   121   123   ar
    20   121   124   ar
    21   106   105    1
    22   128   129    1
    23   123   125   ar
    24   160   161    1
    25   124   126   ar
    26   129   130    1
    27   129   132    1
    28   105   104    1
    29   105   108    1
    30   131   130    2
    31     2     5    1
    32     2     1    1
    33   125   127   ar
    34     5     6    1
    35   132   133    1
    36   161   162   ar
    37   161   163   ar
    38   126   127   ar
    39   108   109    1
    40   162   164   ar
    41   163   165   ar
    42     6     7    1
    43   133   134   ar
    44   133   135   ar
    45     7     8    1
    46   109   111   ar
    47   109   110   ar
    48   134   136   ar
    49   144   145    2
    50   144   143    1
    51   111   113   ar
    52   164   165   ar
    53   110   112   ar
    54    10     9    1
    55   135   138   ar
    56   135   137   ar
    57     8     9    2
    58   138   140   ar
    59   113   112   ar
    60   142   143    1
    61   136   137   ar
    62   143   146    1
    63     9    11    1
    64   137   139   ar
    65    92    93    1
    66   146   147    1
    67    84    83    1
    68    84    87    1
    69    84    85    1
    70   140   141   ar
    71    91    89   ar
    72    88    87    1
    73    88    89    1
    74    93    96    1
    75    93    94    1
    76    96    97    1
    77    89    90   ar
    78    98    97   ar
    79    98   100   ar
    80    86    85    2
    81   139   141   ar
    82    97    99   ar
    83   100   102   ar
    84   147   148   ar
    85   147   149   ar
    86    94    95    2
    87   102   103    1
    88   102   101   ar
    89    99   101   ar
    90   148   150   ar
    91    71    69   ar
    92    71    72   ar
    93   152   149   ar
    94   152   154   ar
    95   149   151   ar
    96    73    74    1
    97    69    68   ar
    98    23    22    1
    99    72    70   ar
   100    74    75    1
   101    74    77    1
   102   150   151   ar
   103    75    76    2
   104   154   155   ar
   105   151   153   ar
   106    20    22   ar
   107    20    18   ar
   108    22    21   ar
   109    68    70   ar
   110    68    67    1
   111    79    81   ar
   112    79    78   ar
   113   155   153   ar
   114    77    78    1
   115    81    82   ar
   116    78    80   ar
   117    82    80   ar
   118    18    17   ar
   119    67    64    1
   120    66    65    2
   121    21    19   ar
   122    64    65    1
   123    64    63    1
   124    15    14    2
   125    45    44    1
   126    45    46    1
   127    61    60    2
   128    44    43    1
   129    17    19   ar
   130    17    16    1
   131    14    13    1
   132    62    60   am
   133    60    59    1
   134    43    42    1
   135    36    37    1
   136    36    33    1
   137    58    57    2
   138    16    13    1
   139    42    39    1
   140    13    12    1
   141    30    29    1
   142    27    26    2
   143    59    56    1
   144    31    29    1
   145    56    57    1
   146    56    55    1
   147    28    29    1
   148    28    25    1
   149    33    32    1
   150    33    34    1
   151    26    32   am
   152    26    25    1
   153    39    38    1
   154    39    40    1
   155    53    52   ar
   156    54    52   ar
   157    25    24    1
   158    34    35    2
   159    52    51    1
   160    40    41    2
   161    40    47   am
   162    47    48    1
   163    51    48    1
   164    48    49    1
   165    49    50    2
