@<TRIPOS>MOLECULE
tmp/3wkiA00.pdb
 165 165 0 0 0
SMALL
GASTEIGER

@<TRIPOS>ATOM
      1  N         -1.2890    7.2750  -11.7120 N.3    64  ARG64      -0.1245
      2  CA        -0.9910    6.1540  -12.6130 C.3    64  ARG64       0.1563
      3  C         -0.9310    6.5940  -14.0620 C.2    64  ARG64       0.2260
      4  O         -0.0480    6.1790  -14.8100 O.2    64  ARG64      -0.2867
      5  CB        -1.9890    5.0110  -12.4220 C.3    64  ARG64       0.0307
      6  CG        -1.7650    4.2540  -11.1170 C.3    64  ARG64       0.0489
      7  CD        -2.8070    3.1480  -10.8850 C.3    64  ARG64       0.2205
      8  NE        -2.5870    2.4770   -9.6000 N.pl3  64  ARG64      -0.0865
      9  CZ        -3.3020    1.4510   -9.1420 C.cat  64  ARG64       0.5346
     10  NH1       -4.3080    0.9610   -9.8600 N.pl3  64  ARG64       0.1354
     11  NH2       -3.0230    0.9220   -7.9510 N.pl3  64  ARG64       0.1354
     12  N         -0.9450    5.1390    0.6870 N.3   122  TYR122     -0.1241
     13  CA        -0.9820    4.4730   -0.6170 C.3   122  TYR122      0.1605
     14  C         -1.0420    5.5150   -1.7350 C.2   122  TYR122      0.2264
     15  O         -0.3090    5.4210   -2.7150 O.2   122  TYR122     -0.2867
     16  CB        -2.1840    3.5250   -0.6830 C.3   122  TYR122      0.0534
     17  CG        -2.2960    2.6390   -1.9110 C.ar  122  TYR122     -0.0201
     18  CD1       -1.9610    1.2920   -1.8480 C.ar  122  TYR122     -0.0009
     19  CD2       -2.7760    3.1390   -3.1130 C.ar  122  TYR122     -0.0009
     20  CE1       -2.0880    0.4610   -2.9600 C.ar  122  TYR122      0.0417
     21  CE2       -2.9000    2.3290   -4.2360 C.ar  122  TYR122      0.0417
     22  CZ        -2.5630    0.9830   -4.1500 C.ar  122  TYR122      0.1957
     23  OH        -2.6890    0.1650   -5.2470 O.3   122  TYR122     -0.2866
     24  N         -8.3100    0.8780    2.1790 N.3   182  LEU182     -0.1231
     25  CA        -8.3150    1.4520    0.8470 C.3   182  LEU182      0.1693
     26  C         -9.7230    1.3910    0.2730 C.2   182  LEU182      0.2592
     27  O        -10.1380    2.2670   -0.4980 O.2   182  LEU182     -0.2718
     28  CB        -7.3370    0.6930   -0.0430 C.3   182  LEU182      0.0284
     29  CG        -5.8680    0.9480    0.2870 C.3   182  LEU182      0.0019
     30  CD1       -4.9830   -0.0660   -0.4280 C.3   182  LEU182      0.0001
     31  CD2       -5.5170    2.3720   -0.1220 C.3   182  LEU182      0.0001
     32  N        -10.4590    0.3560    0.6670 N.am  183  SER183     -0.1952
     33  CA       -11.7880    0.1050    0.1420 C.3   183  SER183      0.1924
     34  C        -12.5310   -0.7840    1.1190 C.2   183  SER183      0.2314
     35  O        -11.9680   -1.2020    2.1250 O.2   183  SER183     -0.2863
     36  CB       -11.6860   -0.6020   -1.2120 C.3   183  SER183      0.2116
     37  OG       -11.0870   -1.8760   -1.0610 O.3   183  SER183     -0.2180
     38  N        -13.2700   -3.7140    0.5880 N.3   185  LYS185     -0.1231
     39  CA       -12.7320   -5.0450    0.3880 C.3   185  LYS185      0.1693
     40  C        -11.6220   -5.3750    1.4040 C.2   185  LYS185      0.2592
     41  O        -11.3750   -6.5420    1.7300 O.2   185  LYS185     -0.2718
     42  CB       -12.2320   -5.1670   -1.0530 C.3   185  LYS185      0.0285
     43  CG       -11.1010   -6.1440   -1.2400 C.3   185  LYS185      0.0035
     44  CD       -10.6970   -6.2840   -2.6870 C.3   185  LYS185      0.0206
     45  CE        -9.6460   -7.3640   -2.8150 C.3   185  LYS185      0.1093
     46  NZ       -10.1510   -8.6880   -2.3580 N.3   185  LYS185     -0.1314
     47  N        -10.9760   -4.3430    1.9290 N.am  186  ASP186     -0.1974
     48  CA        -9.8290   -4.5400    2.8080 C.3   186  ASP186      0.1709
     49  C        -10.1840   -4.7620    4.2760 C.2   186  ASP186      0.2293
     50  O        -11.1840   -4.2490    4.7690 O.2   186  ASP186     -0.2864
     51  CB        -8.8870   -3.3540    2.6890 C.3   186  ASP186      0.1436
     52  CG        -8.5730   -3.0210    1.2590 C.2   186  ASP186      0.3671
     53  OD1       -7.7990   -3.7710    0.6330 O.co2 186  ASP186     -0.2456
     54  OD2       -9.1020   -2.0090    0.7570 O.co2 186  ASP186     -0.2456
     55  N         -0.2440   -4.3870    1.1680 N.3   194  ASN194     -0.1240
     56  CA        -0.5650   -3.6610   -0.0620 C.3   194  ASN194      0.1653
     57  C         -0.0480   -2.2350   -0.0130 C.2   194  ASN194      0.2266
     58  O          0.6140   -1.7650   -0.9470 O.2   194  ASN194     -0.2867
     59  CB        -2.0740   -3.6640   -0.2910 C.3   194  ASN194      0.1155
     60  CG        -2.4550   -3.3520   -1.7200 C.2   194  ASN194      0.2627
     61  OD1       -1.6140   -3.3540   -2.6210 O.2   194  ASN194     -0.2716
     62  ND2       -3.7380   -3.0850   -1.9390 N.am  194  ASN194     -0.0877
     63  N          3.6820   -0.4330   -1.9080 N.3   198  HIS198     -0.1241
     64  CA         3.7390    0.7230   -2.7840 C.3   198  HIS198      0.1621
     65  C          4.5760    1.8590   -2.2130 C.2   198  HIS198      0.2264
     66  O          5.0470    2.7020   -2.9620 O.2   198  HIS198     -0.2867
     67  CB         2.3340    1.1370   -3.2290 C.3   198  HIS198      0.0745
     68  CG         1.6900    0.1050   -4.0980 C.ar  198  HIS198      0.0817
     69  ND1        1.9420    0.0120   -5.4480 N.ar  198  HIS198     -0.2268
     70  CD2        0.8760   -0.9350   -3.7970 C.ar  198  HIS198      0.1154
     71  CE1        1.2850   -1.0190   -5.9510 C.ar  198  HIS198      0.1986
     72  NE2        0.6270   -1.6080   -4.9690 N.ar  198  HIS198     -0.2212
     73  N         -0.2880   -9.9550   -5.9490 N.3   257  HIS257     -0.1241
     74  CA         0.6200   -9.2380   -5.0440 C.3   257  HIS257      0.1621
     75  C          1.9270   -9.9700   -4.8270 C.2   257  HIS257      0.2264
     76  O          2.9840   -9.3480   -4.7360 O.2   257  HIS257     -0.2867
     77  CB        -0.0220   -9.0590   -3.6800 C.3   257  HIS257      0.0745
     78  CG        -1.0960   -8.0300   -3.6510 C.ar  257  HIS257      0.0817
     79  ND1       -2.4250   -8.3380   -3.8390 N.ar  257  HIS257     -0.2268
     80  CD2       -1.0400   -6.6940   -3.4470 C.ar  257  HIS257      0.1154
     81  CE1       -3.1420   -7.2330   -3.7550 C.ar  257  HIS257      0.1986
     82  NE2       -2.3250   -6.2210   -3.5160 N.ar  257  HIS257     -0.2212
     83  N          4.0610   -9.6930   -8.0560 N.3   260  GLU260     -0.1245
     84  CA         4.5080   -8.3070   -8.1940 C.3   260  GLU260      0.1567
     85  C          5.6600   -7.9980   -7.2330 C.2   260  GLU260      0.2260
     86  O          6.6720   -7.4000   -7.6230 O.2   260  GLU260     -0.2867
     87  CB         3.3470   -7.3380   -7.9550 C.3   260  GLU260      0.0388
     88  CG         3.7520   -5.8690   -8.0140 C.3   260  GLU260      0.1160
     89  CD         2.5800   -4.9630   -7.7610 C.2   260  GLU260      0.3649
     90  OE1        1.4650   -5.5020   -7.5910 O.co2 260  GLU260     -0.2457
     91  OE2        2.7670   -3.7220   -7.7340 O.co2 260  GLU260     -0.2457
     92  N         -7.3560  -14.9090   -8.6650 N.3   305  TYR305     -0.1241
     93  CA        -7.3520  -13.6420   -7.9520 C.3   305  TYR305      0.1605
     94  C         -6.7830  -13.7570   -6.5500 C.2   305  TYR305      0.2264
     95  O         -5.8580  -13.0300   -6.1850 O.2   305  TYR305     -0.2867
     96  CB        -8.7550  -13.0620   -7.8720 C.3   305  TYR305      0.0534
     97  CG        -8.7650  -11.6260   -7.4030 C.ar  305  TYR305     -0.0201
     98  CD1       -7.8440  -10.7150   -7.9030 C.ar  305  TYR305     -0.0009
     99  CD2       -9.6950  -11.1790   -6.4730 C.ar  305  TYR305     -0.0009
    100  CE1       -7.8450   -9.3990   -7.4940 C.ar  305  TYR305      0.0417
    101  CE2       -9.7070   -9.8570   -6.0500 C.ar  305  TYR305      0.0417
    102  CZ        -8.7800   -8.9730   -6.5630 C.ar  305  TYR305      0.1957
    103  OH        -8.7840   -7.6570   -6.1630 O.3   305  TYR305     -0.2866
    104  N         -8.4960  -11.1550  -12.9160 N.3   318  HIS318     -0.1226
    105  CA        -8.4280   -9.7000  -12.9560 C.3   318  HIS318      0.1752
    106  C         -7.2910   -9.2980  -13.8860 C.2   318  HIS318      0.2596
    107  O         -6.3390  -10.0490  -14.0700 O.2   318  HIS318     -0.2718
    108  CB        -8.2160   -9.1060  -11.5600 C.3   318  HIS318      0.0759
    109  CG        -9.3910   -9.2730  -10.6510 C.ar  318  HIS318      0.0818
    110  ND1       -9.9980   -8.2110  -10.0190 N.ar  318  HIS318     -0.2268
    111  CD2      -10.0710  -10.3840  -10.2630 C.ar  318  HIS318      0.1154
    112  CE1      -10.9990   -8.6560   -9.2780 C.ar  318  HIS318      0.1986
    113  NE2      -11.0630   -9.9720   -9.4070 N.ar  318  HIS318     -0.2212
    114  N         -7.3770   -8.1080  -14.4590 N.am  319  TRP319     -0.1962
    115  CA        -6.4200   -7.7150  -15.4800 C.3   319  TRP319      0.1771
    116  C         -4.9930   -7.6280  -14.9240 C.2   319  TRP319      0.2619
    117  O         -4.0530   -8.0650  -15.5750 O.2   319  TRP319     -0.2715
    118  CB        -6.8530   -6.3970  -16.1540 C.3   319  TRP319      0.0590
    119  CG        -6.4090   -5.1410  -15.4240 C.ar  319  TRP319      0.0006
    120  CD1       -5.3690   -4.3200  -15.7710 C.ar  319  TRP319      0.0946
    121  CD2       -6.9850   -4.5730  -14.2350 C.ar  319  TRP319      0.0152
    122  NE1       -5.2630   -3.2830  -14.8760 N.ar  319  TRP319     -0.2442
    123  CE2       -6.2370   -3.4140  -13.9210 C.ar  319  TRP319      0.0810
    124  CE3       -8.0580   -4.9240  -13.4110 C.ar  319  TRP319      0.0012
    125  CZ2       -6.5240   -2.6110  -12.8090 C.ar  319  TRP319      0.0191
    126  CZ3       -8.3470   -4.1170  -12.3050 C.ar  319  TRP319      0.0001
    127  CH2       -7.5840   -2.9770  -12.0190 C.ar  319  TRP319      0.0015
    128  N         -4.8400   -7.0900  -13.7150 N.am  320  TRP320     -0.1974
    129  CA        -3.5150   -6.7170  -13.2140 C.3   320  TRP320      0.1640
    130  C         -2.6220   -7.8660  -12.7120 C.2   320  TRP320      0.2290
    131  O         -1.3970   -7.7900  -12.8620 O.2   320  TRP320     -0.2864
    132  CB        -3.5910   -5.5430  -12.1970 C.3   320  TRP320      0.0576
    133  CG        -4.1820   -5.9210  -10.8790 C.ar  320  TRP320      0.0006
    134  CD1       -5.4930   -5.8150  -10.5100 C.ar  320  TRP320      0.0946
    135  CD2       -3.4910   -6.4930   -9.7580 C.ar  320  TRP320      0.0152
    136  NE1       -5.6630   -6.3000   -9.2370 N.ar  320  TRP320     -0.2442
    137  CE2       -4.4500   -6.7180   -8.7510 C.ar  320  TRP320      0.0810
    138  CE3       -2.1590   -6.8560   -9.5170 C.ar  320  TRP320      0.0012
    139  CZ2       -4.1180   -7.2740   -7.5100 C.ar  320  TRP320      0.0191
    140  CZ3       -1.8270   -7.3990   -8.2880 C.ar  320  TRP320      0.0001
    141  CH2       -2.8070   -7.6070   -7.2970 C.ar  320  TRP320      0.0015
    142  N         -9.9010    2.5170   -9.5330 N.3   383  TRP383     -0.1241
    143  CA        -8.9220    1.4560   -9.3010 C.3   383  TRP383      0.1605
    144  C         -8.3230    0.8640  -10.5820 C.2   383  TRP383      0.2264
    145  O         -7.4760   -0.0330  -10.5210 O.2   383  TRP383     -0.2867
    146  CB        -9.5310    0.3320   -8.4400 C.3   383  TRP383      0.0550
    147  CG        -9.6820    0.7190   -7.0060 C.ar  383  TRP383      0.0003
    148  CD1      -10.8510    0.9290   -6.3290 C.ar  383  TRP383      0.0946
    149  CD2       -8.6290    0.9770   -6.0750 C.ar  383  TRP383      0.0152
    150  NE1      -10.5880    1.3010   -5.0360 N.ar  383  TRP383     -0.2442
    151  CE2       -9.2330    1.3300   -4.8480 C.ar  383  TRP383      0.0810
    152  CE3       -7.2330    0.9380   -6.1530 C.ar  383  TRP383      0.0012
    153  CZ2       -8.4900    1.6380   -3.7120 C.ar  383  TRP383      0.0191
    154  CZ3       -6.4980    1.2510   -5.0250 C.ar  383  TRP383      0.0001
    155  CH2       -7.1280    1.5990   -3.8210 C.ar  383  TRP383      0.0015
    156  N         -0.6120   -0.8990  -14.3420 N.3   388  HIS388     -0.1241
    157  CA        -0.2320   -2.3180  -14.3010 C.3   388  HIS388      0.1621
    158  C          0.0760   -2.9030  -15.6810 C.2   388  HIS388      0.2264
    159  O          1.1320   -3.5090  -15.8820 O.2   388  HIS388     -0.2867
    160  CB        -1.3010   -3.1610  -13.6210 C.3   388  HIS388      0.0745
    161  CG        -1.3280   -3.0180  -12.1350 C.ar  388  HIS388      0.0817
    162  ND1       -0.3080   -3.4700  -11.3270 N.ar  388  HIS388     -0.2268
    163  CD2       -2.2620   -2.4970  -11.3030 C.ar  388  HIS388      0.1154
    164  CE1       -0.6090   -3.2290  -10.0640 C.ar  388  HIS388      0.1986
    165  NE2       -1.7920   -2.6410  -10.0220 N.ar  388  HIS388     -0.2212
@<TRIPOS>BOND
     1   118   115    1
     2   118   119    1
     3   159   158    2
     4   120   119   ar
     5   120   122   ar
     6   158   157    1
     7   117   116    2
     8   115   116    1
     9   115   114    1
    10   119   121   ar
    11   116   128   am
    12   122   123   ar
    13     4     3    2
    14   114   106   am
    15   156   157    1
    16   157   160    1
    17   121   123   ar
    18   121   124   ar
    19   107   106    2
    20     3     2    1
    21   123   125   ar
    22   106   105    1
    23   128   129    1
    24   160   161    1
    25   124   126   ar
    26   129   130    1
    27   129   132    1
    28   105   104    1
    29   105   108    1
    30   131   130    2
    31   125   127   ar
    32     2     5    1
    33     2     1    1
    34     5     6    1
    35   126   127   ar
    36   132   133    1
    37   161   162   ar
    38   161   163   ar
    39   108   109    1
    40   162   164   ar
    41   163   165   ar
    42     6     7    1
    43     7     8    1
    44   133   134   ar
    45   133   135   ar
    46   109   111   ar
    47   109   110   ar
    48   144   145    2
    49   144   143    1
    50   134   136   ar
    51   111   113   ar
    52   164   165   ar
    53   110   112   ar
    54    10     9    1
    55   135   138   ar
    56   135   137   ar
    57     8     9    2
    58   142   143    1
    59   138   140   ar
    60   113   112   ar
    61   143   146    1
    62   136   137   ar
    63     9    11    1
    64   137   139   ar
    65    92    93    1
    66   146   147    1
    67   140   141   ar
    68    84    83    1
    69    84    87    1
    70    84    85    1
    71    88    87    1
    72    88    89    1
    73    93    96    1
    74    93    94    1
    75    98   100   ar
    76    98    97   ar
    77    96    97    1
    78    89    91   ar
    79    89    90   ar
    80    86    85    2
    81   139   141   ar
    82   100   102   ar
    83    97    99   ar
    84   147   148   ar
    85   147   149   ar
    86   102   103    1
    87   102   101   ar
    88    94    95    2
    89    99   101   ar
    90   148   150   ar
    91   152   149   ar
    92   152   154   ar
    93   149   151   ar
    94    71    69   ar
    95    71    72   ar
    96    73    74    1
    97    69    68   ar
    98    23    22    1
    99    74    75    1
   100    74    77    1
   101   150   151   ar
   102   154   155   ar
   103    72    70   ar
   104   151   153   ar
   105    75    76    2
   106    21    22   ar
   107    21    19   ar
   108    22    20   ar
   109    68    70   ar
   110    68    67    1
   111    79    81   ar
   112    79    78   ar
   113   155   153   ar
   114    81    82   ar
   115    77    78    1
   116    78    80   ar
   117    82    80   ar
   118    67    64    1
   119    19    17   ar
   120    66    65    2
   121    20    18   ar
   122    45    44    1
   123    45    46    1
   124    64    65    1
   125    64    63    1
   126    15    14    2
   127    44    43    1
   128    61    60    2
   129    62    60   am
   130    17    18   ar
   131    17    16    1
   132    14    13    1
   133    60    59    1
   134    43    42    1
   135    36    37    1
   136    36    33    1
   137    42    39    1
   138    58    57    2
   139    16    13    1
   140    13    12    1
   141    27    26    2
   142    30    29    1
   143    59    56    1
   144    31    29    1
   145    56    57    1
   146    56    55    1
   147    28    29    1
   148    28    25    1
   149    33    32    1
   150    33    34    1
   151    26    32   am
   152    26    25    1
   153    39    38    1
   154    39    40    1
   155    53    52   ar
   156    54    52   ar
   157    25    24    1
   158    34    35    2
   159    52    51    1
   160    40    41    2
   161    40    47   am
   162    47    48    1
   163    51    48    1
   164    48    49    1
   165    49    50    2
