@<TRIPOS>MOLECULE
tmp/3wkyA01.pdb
 112 104 0 0 0
SMALL
GASTEIGER

@<TRIPOS>ATOM
      1  N         37.0970  127.0200  191.5310 N.3     9  TYR9       -0.1227
      2  CA        36.2300  128.0780  191.0000 C.3     9  TYR9        0.1736
      3  C         36.1510  128.1460  189.4700 C.2     9  TYR9        0.2595
      4  O         37.0510  127.6840  188.7710 O.2     9  TYR9       -0.2718
      5  CB        36.6380  129.4400  191.5660 C.3     9  TYR9        0.0548
      6  CG        36.3700  129.5690  193.0440 C.ar    9  TYR9       -0.0200
      7  CD1       35.5880  128.6310  193.7070 C.ar    9  TYR9       -0.0009
      8  CD2       36.8920  130.6240  193.7780 C.ar    9  TYR9       -0.0009
      9  CE1       35.3370  128.7340  195.0610 C.ar    9  TYR9        0.0417
     10  CE2       36.6420  130.7380  195.1370 C.ar    9  TYR9        0.0417
     11  CZ        35.8640  129.7850  195.7710 C.ar    9  TYR9        0.1957
     12  OH        35.6070  129.8810  197.1200 O.3     9  TYR9       -0.2866
     13  N         35.0500  128.7240  188.9830 N.am   10  LEU10      -0.1980
     14  CA        34.7860  128.8930  187.5520 C.3    10  LEU10       0.1596
     15  C         35.2150  127.6850  186.7110 C.2    10  LEU10       0.2287
     16  O         36.0290  127.8240  185.8010 O.2    10  LEU10      -0.2864
     17  CB        35.4800  130.1660  187.0410 C.3    10  LEU10       0.0297
     18  CG        35.1770  131.4570  187.8070 C.3    10  LEU10       0.0022
     19  CD1       35.9090  132.6450  187.1740 C.3    10  LEU10       0.0001
     20  CD2       33.6800  131.7370  187.8900 C.3    10  LEU10       0.0001
     21  N         40.3440  132.3230  184.8050 N.3    18  LEU18      -0.1245
     22  CA        40.3580  132.2000  186.2560 C.3    18  LEU18       0.1561
     23  C         41.5630  132.9440  186.8270 C.2    18  LEU18       0.2260
     24  O         41.4450  133.6820  187.8080 O.2    18  LEU18      -0.2867
     25  CB        40.3990  130.7240  186.6680 C.3    18  LEU18       0.0270
     26  CG        40.4950  130.4410  188.1710 C.3    18  LEU18       0.0019
     27  CD1       39.2150  130.8300  188.8880 C.3    18  LEU18       0.0001
     28  CD2       40.8420  128.9750  188.4270 C.3    18  LEU18       0.0001
     29  N         41.2480  136.7800  186.7330 N.3    21  ARG21      -0.1231
     30  CA        40.3260  137.2700  187.7430 C.3    21  ARG21       0.1694
     31  C         40.9590  137.2080  189.1290 C.2    21  ARG21       0.2591
     32  O         40.7140  138.0710  189.9700 O.2    21  ARG21      -0.2718
     33  CB        39.0330  136.4470  187.7110 C.3    21  ARG21       0.0321
     34  CG        37.7530  137.2630  187.8200 C.3    21  ARG21       0.0489
     35  CD        37.7250  138.0470  189.1030 C.3    21  ARG21       0.2205
     36  NE        36.4160  138.6210  189.3930 N.pl3  21  ARG21      -0.0865
     37  CZ        36.0590  139.8590  189.0750 C.cat  21  ARG21       0.5346
     38  NH1       36.9120  140.6540  188.4420 N.pl3  21  ARG21       0.1354
     39  NH2       34.8480  140.3010  189.3870 N.pl3  21  ARG21       0.1354
     40  N         41.7830  136.1900  189.3590 N.am   22  LEU22      -0.1980
     41  CA        42.2970  135.9120  190.7000 C.3    22  LEU22       0.1596
     42  C         43.7450  136.3370  190.9320 C.2    22  LEU22       0.2287
     43  O         44.2580  136.2040  192.0420 O.2    22  LEU22      -0.2864
     44  CB        42.1550  134.4210  191.0190 C.3    22  LEU22       0.0297
     45  CG        41.0530  134.0210  192.0010 C.3    22  LEU22       0.0022
     46  CD1       39.8830  134.9830  191.9390 C.3    22  LEU22       0.0001
     47  CD2       40.5880  132.6090  191.7050 C.3    22  LEU22       0.0001
     48  N         24.6400  143.5440  192.2050 N.3   154  GLU154     -0.1245
     49  CA        24.0720  142.3380  192.7980 C.3   154  GLU154      0.1567
     50  C         22.6850  142.0430  192.2540 C.2   154  GLU154      0.2260
     51  O         21.8840  142.9530  192.0270 O.2   154  GLU154     -0.2867
     52  CB        24.0010  142.4560  194.3230 C.3   154  GLU154      0.0388
     53  CG        25.3450  142.5570  195.0140 C.3   154  GLU154      0.1160
     54  CD        25.2200  142.5500  196.5250 C.2   154  GLU154      0.3649
     55  OE1       24.8800  141.4890  197.0920 O.co2 154  GLU154     -0.2457
     56  OE2       25.4540  143.6090  197.1430 O.co2 154  GLU154     -0.2457
     57  N         25.9960  132.5160  197.0780 N.3   445  ASN445     -0.1240
     58  CA        26.6560  133.2640  196.0100 C.3   445  ASN445      0.1653
     59  C         27.0960  132.3040  194.8950 C.2   445  ASN445      0.2266
     60  O         28.0170  131.5040  195.0770 O.2   445  ASN445     -0.2867
     61  CB        27.8620  134.0140  196.6060 C.3   445  ASN445      0.1155
     62  CG        28.5520  134.9480  195.6140 C.2   445  ASN445      0.2627
     63  OD1       28.3570  134.8530  194.3980 O.2   445  ASN445     -0.2716
     64  ND2       29.3790  135.8620  196.1460 N.am  445  ASN445     -0.0877
     65  N         28.3900  133.1050  191.9950 N.3   447  SER447     -0.1202
     66  CA        29.4070  133.6840  191.1180 C.3   447  SER447      0.2020
     67  C         30.7860  133.0440  191.2560 C.2   447  SER447      0.2619
     68  O         31.6760  133.2880  190.4500 O.2   447  SER447     -0.2717
     69  CB        29.4670  135.1990  191.3030 C.3   447  SER447      0.2103
     70  OG        28.3060  135.7930  190.7510 O.3   447  SER447     -0.2182
     71  N         30.9580  132.2050  192.2690 N.am  448  SER448     -0.1951
     72  CA        32.1680  131.4080  192.3690 C.3   448  SER448      0.1924
     73  C         32.1210  130.2760  191.3520 C.2   448  SER448      0.2314
     74  O         33.1540  129.7130  190.9910 O.2   448  SER448     -0.2863
     75  CB        32.3010  130.8270  193.7760 C.3   448  SER448      0.2116
     76  OG        31.0320  130.4010  194.2480 O.3   448  SER448     -0.2180
     77  N         29.7500  137.7460  184.0560 N.3   453  ARG453     -0.1245
     78  CA        30.2330  138.9450  183.3660 C.3   453  ARG453      0.1563
     79  C         30.0040  138.8730  181.8580 C.2   453  ARG453      0.2260
     80  O         30.1840  137.8220  181.2390 O.2   453  ARG453     -0.2867
     81  CB        31.7280  139.1570  183.6250 C.3   453  ARG453      0.0307
     82  CG        32.0830  139.5350  185.0570 C.3   453  ARG453      0.0489
     83  CD        33.3040  138.7630  185.5280 C.3   453  ARG453      0.2205
     84  NE        34.5690  139.2560  184.9960 N.pl3 453  ARG453     -0.0865
     85  CZ        35.5710  138.4810  184.5840 C.cat 453  ARG453      0.5346
     86  NH1       35.4610  137.1620  184.6100 N.pl3 453  ARG453      0.1354
     87  NH2       36.6890  139.0320  184.1310 N.pl3 453  ARG453      0.1354
     88  N         31.2800  144.0600  187.1520 N.3   459  ASN459     -0.1240
     89  CA        31.2270  143.6920  188.5560 C.3   459  ASN459      0.1653
     90  C         29.8170  143.1970  188.8540 C.2   459  ASN459      0.2266
     91  O         28.8970  143.9950  189.0640 O.2   459  ASN459     -0.2867
     92  CB        31.5720  144.9160  189.4090 C.3   459  ASN459      0.1155
     93  CG        31.4870  144.6510  190.8970 C.2   459  ASN459      0.2627
     94  OD1       31.6350  143.5170  191.3540 O.2   459  ASN459     -0.2716
     95  ND2       31.2540  145.7170  191.6650 N.am  459  ASN459     -0.0877
     96  N         27.4110  139.9780  190.8290 N.3   461  THR461     -0.1218
     97  CA        27.2490  138.7980  191.6680 C.3   461  THR461      0.1862
     98  C         25.8090  138.3330  191.6150 C.2   461  THR461      0.2287
     99  O         24.8800  139.1340  191.7440 O.2   461  THR461     -0.2866
    100  CB        27.6180  139.0770  193.1300 C.3   461  THR461      0.1770
    101  OG1       26.8930  140.2210  193.5960 O.3   461  THR461     -0.2211
    102  CG2       29.0990  139.3400  193.2520 C.3   461  THR461      0.0375
    103  N         23.0990  136.0270  193.3850 N.3   463  HIS463     -0.1241
    104  CA        22.7060  135.2470  194.5470 C.3   463  HIS463      0.1621
    105  C         21.5320  134.3650  194.1500 C.2   463  HIS463      0.2264
    106  O         20.6720  134.7830  193.3640 O.2   463  HIS463     -0.2867
    107  CB        22.3100  136.1670  195.7030 C.3   463  HIS463      0.0745
    108  CG        23.4330  137.0210  196.2050 C.ar  463  HIS463      0.0817
    109  ND1       24.4640  136.5170  196.9690 N.ar  463  HIS463     -0.2268
    110  CD2       23.6850  138.3440  196.0570 C.ar  463  HIS463      0.1154
    111  CE1       25.3070  137.4920  197.2660 C.ar  463  HIS463      0.1986
    112  NE2       24.8560  138.6100  196.7260 N.ar  463  HIS463     -0.2212
@<TRIPOS>BOND
     1    80    79    2
     2    79    78    1
     3    78    81    1
     4    78    77    1
     5    81    82    1
     6    87    85    1
     7    85    86    1
     8    85    84    2
     9    21    22    1
    10    84    83    1
    11    82    83    1
    12    16    15    2
    13    22    25    1
    14    22    23    1
    15    25    26    1
    16    15    14    1
    17    29    30    1
    18    23    24    2
    19    17    14    1
    20    17    18    1
    21    88    89    1
    22    19    18    1
    23    14    13    1
    24    33    30    1
    25    33    34    1
    26    30    31    1
    27    18    20    1
    28    34    35    1
    29    26    28    1
    30    26    27    1
    31    38    37    1
    32    89    90    1
    33    89    92    1
    34     4     3    2
    35    90    91    2
    36    13     3   am
    37    37    39    1
    38    37    36    2
    39    35    36    1
    40    31    40   am
    41    31    32    2
    42    40    41    1
    43    92    93    1
    44     3     2    1
    45    68    67    2
    46    41    42    1
    47    41    44    1
    48    70    69    1
    49    96    97    1
    50    93    94    2
    51    93    95   am
    52    42    43    2
    53    74    73    2
    54     2     1    1
    55     2     5    1
    56    44    45    1
    57    66    67    1
    58    66    69    1
    59    66    65    1
    60    67    71   am
    61    73    72    1
    62     5     6    1
    63    98    97    1
    64    98    99    2
    65    97   100    1
    66    47    45    1
    67    46    45    1
    68    51    50    2
    69    48    49    1
    70    50    49    1
    71    71    72    1
    72    72    75    1
    73    49    52    1
    74     6     7   ar
    75     6     8   ar
    76   100   102    1
    77   100   101    1
    78   106   105    2
    79   103   104    1
    80     7     9   ar
    81    75    76    1
    82     8    10   ar
    83   105   104    1
    84    52    53    1
    85    63    62    2
    86   104   107    1
    87    59    60    2
    88    59    58    1
    89    53    54    1
    90     9    11   ar
    91    10    11   ar
    92    62    64   am
    93    62    61    1
    94   107   108    1
    95    11    12    1
    96    58    61    1
    97    58    57    1
    98   110   108   ar
    99   110   112   ar
   100   108   109   ar
   101    54    55   ar
   102    54    56   ar
   103   112   111   ar
   104   109   111   ar
