@<TRIPOS>MOLECULE
tmp/3wl0A00.pdb
 200 200 0 0 0
SMALL
GASTEIGER

@<TRIPOS>ATOM
      1  N        -28.7890   22.2090   11.2900 N.3    11  TRP11      -0.1241
      2  CA       -28.2420   23.5540   11.4400 C.3    11  TRP11       0.1605
      3  C        -28.8990   24.3370   12.5860 C.2    11  TRP11       0.2264
      4  O        -28.4880   25.4500   12.8930 O.2    11  TRP11      -0.2867
      5  CB       -28.3400   24.3340   10.1260 C.3    11  TRP11       0.0550
      6  CG       -29.7460   24.5390    9.6340 C.ar   11  TRP11       0.0003
      7  CD1      -30.5260   25.6440    9.8150 C.ar   11  TRP11       0.0946
      8  CD2      -30.5300   23.6160    8.8660 C.ar   11  TRP11       0.0152
      9  NE1      -31.7480   25.4660    9.2100 N.ar   11  TRP11      -0.2442
     10  CE2      -31.7770   24.2280    8.6240 C.ar   11  TRP11       0.0810
     11  CE3      -30.2970   22.3310    8.3620 C.ar   11  TRP11       0.0012
     12  CZ2      -32.7920   23.5980    7.8990 C.ar   11  TRP11       0.0191
     13  CZ3      -31.3090   21.7010    7.6470 C.ar   11  TRP11       0.0001
     14  CH2      -32.5400   22.3380    7.4220 C.ar   11  TRP11       0.0015
     15  N        -28.4350   28.2470   16.1890 N.3    15  ARG15      -0.1245
     16  CA       -29.3110   29.3420   16.5940 C.3    15  ARG15       0.1563
     17  C        -28.9270   29.8250   17.9940 C.2    15  ARG15       0.2260
     18  O        -28.6230   29.0180   18.8660 O.2    15  ARG15      -0.2867
     19  CB       -30.7800   28.9140   16.5280 C.3    15  ARG15       0.0307
     20  CG       -31.2300   28.6310   15.1040 C.3    15  ARG15       0.0489
     21  CD       -32.6340   28.0330   15.0160 C.3    15  ARG15       0.2205
     22  NE       -32.8780   27.5640   13.6510 N.pl3  15  ARG15      -0.0865
     23  CZ       -33.7720   26.6420   13.3150 C.cat  15  ARG15       0.5346
     24  NH1      -34.5430   26.0830   14.2460 N.pl3  15  ARG15       0.1354
     25  NH2      -33.8960   26.2810   12.0450 N.pl3  15  ARG15       0.1354
     26  N        -29.7570   18.0300    6.5220 N.3    38  PHE38      -0.1241
     27  CA       -29.7850   17.2740    5.2690 C.3    38  PHE38       0.1605
     28  C        -28.3700   16.7770    4.9330 C.2    38  PHE38       0.2264
     29  O        -27.3760   17.3470    5.3950 O.2    38  PHE38      -0.2867
     30  CB       -30.2100   18.1770    4.0960 C.3    38  PHE38       0.0534
     31  CG       -31.6700   18.5600    4.0960 C.ar   38  PHE38      -0.0203
     32  CD1      -32.6440   17.6440    3.7310 C.ar   38  PHE38      -0.0042
     33  CD2      -32.0610   19.8480    4.4290 C.ar   38  PHE38      -0.0042
     34  CE1      -34.0000   17.9960    3.7330 C.ar   38  PHE38      -0.0003
     35  CE2      -33.4020   20.2160    4.4210 C.ar   38  PHE38      -0.0003
     36  CZ       -34.3750   19.2830    4.0730 C.ar   38  PHE38      -0.0000
     37  N        -30.9090   16.1470    0.0330 N.3    82  GLY82      -0.1210
     38  CA       -31.4550   17.2490   -0.7400 C.3    82  GLY82       0.1956
     39  C        -31.8540   18.4510    0.1010 C.2    82  GLY82       0.2612
     40  O        -31.0330   19.0190    0.8200 O.2    82  GLY82      -0.2717
     41  N        -33.1230   18.8400    0.0060 N.am   83  GLY83      -0.1942
     42  CA       -33.6120   20.0350    0.6720 C.3    83  GLY83       0.2014
     43  C        -33.5410   21.2160   -0.2770 C.2    83  GLY83       0.2639
     44  O        -32.8660   21.1530   -1.3060 O.2    83  GLY83      -0.2714
     45  N        -34.2250   22.2990    0.0660 N.am   84  TRP84      -0.1959
     46  CA       -34.2890   23.4610   -0.8180 C.3    84  TRP84       0.1771
     47  C        -32.9140   24.0720   -1.1450 C.2    84  TRP84       0.2620
     48  O        -32.5980   24.3270   -2.3120 O.2    84  TRP84      -0.2715
     49  CB       -35.2080   24.5330   -0.2270 C.3    84  TRP84       0.0590
     50  CG       -35.4760   25.6230   -1.1970 C.ar   84  TRP84       0.0006
     51  CD1      -34.8910   26.8600   -1.2300 C.ar   84  TRP84       0.0946
     52  CD2      -36.3640   25.5680   -2.3180 C.ar   84  TRP84       0.0152
     53  NE1      -35.3760   27.5780   -2.2930 N.ar   84  TRP84      -0.2442
     54  CE2      -36.2800   26.8110   -2.9770 C.ar   84  TRP84       0.0810
     55  CE3      -37.2280   24.5890   -2.8240 C.ar   84  TRP84       0.0012
     56  CZ2      -37.0310   27.1050   -4.1120 C.ar   84  TRP84       0.0191
     57  CZ3      -37.9700   24.8800   -3.9550 C.ar   84  TRP84       0.0001
     58  CH2      -37.8680   26.1310   -4.5870 C.ar   84  TRP84       0.0015
     59  N        -32.1030   24.2900   -0.1130 N.am   85  ALA85      -0.1963
     60  CA       -30.8270   24.9920   -0.2670 C.3    85  ALA85       0.1728
     61  C        -29.8250   24.2320   -1.1330 C.2    85  ALA85       0.2616
     62  O        -28.9010   24.8250   -1.6770 O.2    85  ALA85      -0.2715
     63  CB       -30.2220   25.3000    1.0950 C.3    85  ALA85       0.0334
     64  N        -30.0190   22.9220   -1.2570 N.am   86  GLU86      -0.1977
     65  CA       -29.1460   22.0760   -2.0650 C.3    86  GLU86       0.1602
     66  C        -29.3090   22.3380   -3.5640 C.2    86  GLU86       0.2287
     67  O        -28.4310   21.9980   -4.3550 O.2    86  GLU86      -0.2864
     68  CB       -29.4180   20.5920   -1.7640 C.3    86  GLU86       0.0415
     69  CG       -28.3280   19.8920   -0.9500 C.3    86  GLU86       0.1163
     70  CD       -27.0840   19.5880   -1.7810 C.2    86  GLU86       0.3649
     71  OE1      -27.1260   18.6390   -2.5930 O.co2  86  GLU86      -0.2457
     72  OE2      -26.0690   20.3020   -1.6330 O.co2  86  GLU86      -0.2457
     73  N        -35.2670   14.1690   -0.9490 N.3   123  ASP123     -0.1225
     74  CA       -35.7590   15.5430   -0.8490 C.3   123  ASP123      0.1805
     75  C        -35.2800   16.4190   -1.9860 C.2   123  ASP123      0.2598
     76  O        -34.8220   17.5390   -1.7720 O.2   123  ASP123     -0.2718
     77  CB       -35.3660   16.1640    0.4920 C.3   123  ASP123      0.1424
     78  CG       -36.0770   15.5130    1.6570 C.2   123  ASP123      0.3668
     79  OD1      -35.8330   14.3130    1.8790 O.co2 123  ASP123     -0.2456
     80  OD2      -36.8690   16.1950    2.3510 O.co2 123  ASP123     -0.2456
     81  N        -35.4010   15.9030   -3.1990 N.am  124  TRP124     -0.1962
     82  CA       -35.0390   16.6520   -4.3890 C.3   124  TRP124      0.1771
     83  C        -36.1730   17.6010   -4.7460 C.2   124  TRP124      0.2619
     84  O        -37.2630   17.1680   -5.0990 O.2   124  TRP124     -0.2715
     85  CB       -34.7840   15.6680   -5.5350 C.3   124  TRP124      0.0590
     86  CG       -34.5410   16.2680   -6.8950 C.ar  124  TRP124      0.0006
     87  CD1      -34.3680   17.5910   -7.2120 C.ar  124  TRP124      0.0946
     88  CD2      -34.4380   15.5460   -8.1230 C.ar  124  TRP124      0.0152
     89  NE1      -34.1670   17.7300   -8.5690 N.ar  124  TRP124     -0.2442
     90  CE2      -34.2060   16.4880   -9.1490 C.ar  124  TRP124      0.0810
     91  CE3      -34.5220   14.1870   -8.4580 C.ar  124  TRP124      0.0012
     92  CZ2      -34.0570   16.1160  -10.4850 C.ar  124  TRP124      0.0191
     93  CZ3      -34.3680   13.8200   -9.7810 C.ar  124  TRP124      0.0001
     94  CH2      -34.1410   14.7830  -10.7800 C.ar  124  TRP124      0.0015
     95  N        -35.9160   18.9000   -4.6630 N.am  125  ALA125     -0.1963
     96  CA       -36.8820   19.8790   -5.1550 C.3   125  ALA125      0.1728
     97  C        -36.3900   20.5710   -6.4340 C.2   125  ALA125      0.2616
     98  O        -35.4470   21.3530   -6.3740 O.2   125  ALA125     -0.2715
     99  CB       -37.1690   20.9090   -4.0820 C.3   125  ALA125      0.0334
    100  N        -36.9760   20.2680   -7.5960 N.am  126  TYR126     -0.1974
    101  CA       -37.8810   19.1390   -7.8200 C.3   126  TYR126      0.1639
    102  C        -37.5010   18.5500   -9.1680 C.2   126  TYR126      0.2290
    103  O        -37.0620   19.2790  -10.0530 O.2   126  TYR126     -0.2864
    104  CB       -39.3370   19.5910   -7.9570 C.3   126  TYR126      0.0560
    105  CG       -39.8570   20.4950   -6.8720 C.ar  126  TYR126     -0.0198
    106  CD1      -40.4200   19.9710   -5.7130 C.ar  126  TYR126     -0.0009
    107  CD2      -39.8150   21.8770   -7.0200 C.ar  126  TYR126     -0.0009
    108  CE1      -40.9140   20.8130   -4.7120 C.ar  126  TYR126      0.0417
    109  CE2      -40.3060   22.7200   -6.0340 C.ar  126  TYR126      0.0417
    110  CZ       -40.8540   22.1850   -4.8860 C.ar  126  TYR126      0.1957
    111  OH       -41.3330   23.0340   -3.9090 O.3   126  TYR126     -0.2866
    112  N        -40.0740   13.3230    0.1510 N.3   165  ALA165     -0.1245
    113  CA       -40.8390   14.5380    0.3980 C.3   165  ALA165      0.1562
    114  C        -41.2890   15.0840   -0.9510 C.2   165  ALA165      0.2260
    115  O        -40.4840   15.2040   -1.8710 O.2   165  ALA165     -0.2867
    116  CB       -39.9860   15.5730    1.1450 C.3   165  ALA165      0.0290
    117  N        -45.4750   17.7840    1.2880 N.3   192  MET192     -0.1245
    118  CA       -45.1130   19.1040    1.7790 C.3   192  MET192      0.1570
    119  C        -46.2850   20.0670    1.6400 C.2   192  MET192      0.2261
    120  O        -46.2930   20.9500    0.7860 O.2   192  MET192     -0.2867
    121  CB       -43.8670   19.6060    1.0540 C.3   192  MET192      0.0387
    122  CG       -42.6240   18.7940    1.4160 C.3   192  MET192      0.0595
    123  SD       -41.1370   19.3710    0.5780 S.3   192  MET192     -0.1393
    124  CE       -41.5150   18.9160   -1.1170 C.3   192  MET192      0.0692
    125  N        -47.3470   22.7230    2.8150 N.3   194  TYR194     -0.1227
    126  CA       -47.0630   24.0300    3.4030 C.3   194  TYR194      0.1736
    127  C        -46.2760   24.8000    2.3450 C.2   194  TYR194      0.2595
    128  O        -46.0530   24.2730    1.2570 O.2   194  TYR194     -0.2718
    129  CB       -46.2630   23.8960    4.7100 C.3   194  TYR194      0.0548
    130  CG       -45.1550   22.8620    4.6610 C.ar  194  TYR194     -0.0200
    131  CD1      -43.9870   23.0940    3.9290 C.ar  194  TYR194     -0.0009
    132  CD2      -45.2720   21.6560    5.3520 C.ar  194  TYR194     -0.0009
    133  CE1      -42.9660   22.1470    3.8810 C.ar  194  TYR194      0.0417
    134  CE2      -44.2590   20.7050    5.3140 C.ar  194  TYR194      0.0417
    135  CZ       -43.1090   20.9580    4.5760 C.ar  194  TYR194      0.1957
    136  OH       -42.1060   20.0180    4.5330 O.3   194  TYR194     -0.2866
    137  N        -45.8550   26.0250    2.6590 N.am  195  ASP195     -0.1974
    138  CA       -45.3260   26.9470    1.6460 C.3   195  ASP195      0.1709
    139  C        -46.2570   27.0250    0.4350 C.2   195  ASP195      0.2293
    140  O        -45.8030   27.1860   -0.7000 O.2   195  ASP195     -0.2864
    141  CB       -43.9120   26.5410    1.1910 C.3   195  ASP195      0.1436
    142  CG       -42.8620   26.7850    2.2610 C.2   195  ASP195      0.3671
    143  OD1      -43.1500   27.5280    3.2340 O.co2 195  ASP195     -0.2456
    144  OD2      -41.7500   26.2330    2.1320 O.co2 195  ASP195     -0.2456
    145  N        -43.9300   26.5400   11.5610 N.3   249  TYR249     -0.1241
    146  CA       -43.3870   27.8670   11.2910 C.3   249  TYR249      0.1605
    147  C        -44.4090   28.6600   10.4880 C.2   249  TYR249      0.2264
    148  O        -45.3160   28.0850    9.8880 O.2   249  TYR249     -0.2867
    149  CB       -42.0720   27.7750   10.5010 C.3   249  TYR249      0.0534
    150  CG       -42.2750   27.2700    9.0950 C.ar  249  TYR249     -0.0201
    151  CD1      -42.3160   25.9030    8.8330 C.ar  249  TYR249     -0.0009
    152  CD2      -42.4490   28.1560    8.0260 C.ar  249  TYR249     -0.0009
    153  CE1      -42.5210   25.4250    7.5490 C.ar  249  TYR249      0.0417
    154  CE2      -42.6550   27.6870    6.7320 C.ar  249  TYR249      0.0417
    155  CZ       -42.6920   26.3140    6.5040 C.ar  249  TYR249      0.1957
    156  OH       -42.8940   25.8210    5.2320 O.3   249  TYR249     -0.2866
    157  N        -45.2090   31.7780    7.4770 N.3   251  ARG251     -0.1245
    158  CA       -44.7090   32.5740    6.3610 C.3   251  ARG251      0.1563
    159  C        -45.0840   34.0330    6.5980 C.2   251  ARG251      0.2260
    160  O        -46.2470   34.3570    6.8650 O.2   251  ARG251     -0.2867
    161  CB       -45.2770   32.0680    5.0300 C.3   251  ARG251      0.0307
    162  CG       -44.5290   30.8600    4.4680 C.3   251  ARG251      0.0489
    163  CD       -43.1070   31.2500    4.1010 C.3   251  ARG251      0.2205
    164  NE       -42.2700   30.1060    3.7450 N.pl3 251  ARG251     -0.0865
    165  CZ       -40.9530   30.1820    3.5630 C.cat 251  ARG251      0.5346
    166  NH1      -40.3340   31.3450    3.7090 N.pl3 251  ARG251      0.1354
    167  NH2      -40.2530   29.1010    3.2440 N.pl3 251  ARG251      0.1354
    168  N        -39.8800   34.0000    7.0370 N.3   286  PHE286     -0.1241
    169  CA       -40.4970   33.0550    7.9670 C.3   286  PHE286      0.1605
    170  C        -40.1010   33.2380    9.4240 C.2   286  PHE286      0.2264
    171  O        -39.0540   33.8090    9.7280 O.2   286  PHE286     -0.2867
    172  CB       -40.3070   31.5920    7.5240 C.3   286  PHE286      0.0534
    173  CG       -38.9300   31.0210    7.7910 C.ar  286  PHE286     -0.0203
    174  CD1      -38.6430   30.3890    8.9950 C.ar  286  PHE286     -0.0042
    175  CD2      -37.9460   31.0660    6.8110 C.ar  286  PHE286     -0.0042
    176  CE1      -37.3930   29.8360    9.2300 C.ar  286  PHE286     -0.0003
    177  CE2      -36.6920   30.5110    7.0360 C.ar  286  PHE286     -0.0003
    178  CZ       -36.4140   29.8980    8.2500 C.ar  286  PHE286     -0.0000
    179  N        -42.4670   19.7890    9.4620 N.3   349  TRP349     -0.1241
    180  CA       -41.2760   20.5890    9.2210 C.3   349  TRP349      0.1605
    181  C        -41.3350   21.8170   10.1200 C.2   349  TRP349      0.2264
    182  O        -42.1860   22.6750    9.9110 O.2   349  TRP349     -0.2867
    183  CB       -41.1730   21.0690    7.7630 C.3   349  TRP349      0.0550
    184  CG       -39.8630   21.7720    7.5940 C.ar  349  TRP349      0.0003
    185  CD1      -39.5960   23.0970    7.8250 C.ar  349  TRP349      0.0946
    186  CD2      -38.6140   21.1620    7.2620 C.ar  349  TRP349      0.0152
    187  NE1      -38.2560   23.3490    7.6280 N.ar  349  TRP349     -0.2442
    188  CE2      -37.6330   22.1780    7.2850 C.ar  349  TRP349      0.0810
    189  CE3      -38.2310   19.8560    6.9360 C.ar  349  TRP349      0.0012
    190  CZ2      -36.2980   21.9290    6.9830 C.ar  349  TRP349      0.0191
    191  CZ3      -36.9070   19.6100    6.6500 C.ar  349  TRP349      0.0001
    192  CH2      -35.9540   20.6420    6.6750 C.ar  349  TRP349      0.0015
    193  N        -38.5340   23.6650   15.5370 N.3   353  MET353     -0.1245
    194  CA       -39.2180   24.9540   15.5640 C.3   353  MET353      0.1570
    195  C        -40.4900   24.9330   16.4090 C.2   353  MET353      0.2261
    196  O        -41.1870   25.9350   16.5120 O.2   353  MET353     -0.2867
    197  CB       -39.4900   25.4730   14.1440 C.3   353  MET353      0.0387
    198  CG       -38.2010   25.8540   13.3930 C.3   353  MET353      0.0595
    199  SD       -38.4500   26.7560   11.8440 S.3   353  MET353     -0.1393
    200  CE       -38.9960   25.4290   10.7660 C.3   353  MET353      0.0692
@<TRIPOS>BOND
     1    94    92   ar
     2    94    93   ar
     3    92    90   ar
     4   103   102    2
     5    93    91   ar
     6   102   101    1
     7    90    89   ar
     8    90    88   ar
     9    89    87   ar
    10    91    88   ar
    11    88    86   ar
    12   104   101    1
    13   104   105    1
    14   101   100    1
    15   100    97   am
    16    87    86   ar
    17   107   105   ar
    18   107   109   ar
    19    86    85    1
    20   105   106   ar
    21    97    98    2
    22    97    96    1
    23   109   110   ar
    24   106   108   ar
    25    85    82    1
    26    96    95    1
    27    96    99    1
    28    84    83    2
    29   110   108   ar
    30   110   111    1
    31    83    95   am
    32    83    82    1
    33    58    56   ar
    34    58    57   ar
    35    82    81    1
    36    67    66    2
    37    56    54   ar
    38    57    55   ar
    39    66    65    1
    40    81    75   am
    41    54    52   ar
    42    54    53   ar
    43    55    52   ar
    44    71    70   ar
    45    52    50   ar
    46    48    47    2
    47    53    51   ar
    48    65    68    1
    49    65    64    1
    50    75    76    2
    51    75    74    1
    52   115   114    2
    53    70    72   ar
    54    70    69    1
    55    68    69    1
    56    62    61    2
    57    44    43    2
    58    64    61   am
    59    51    50   ar
    60    50    49    1
    61    47    46    1
    62    47    59   am
    63    61    60    1
    64   124   123    1
    65   114   113    1
    66    73    74    1
    67    74    77    1
    68    46    49    1
    69    46    45    1
    70    38    37    1
    71    38    39    1
    72   140   139    2
    73    43    45   am
    74    43    42    1
    75    60    59    1
    76    60    63    1
    77    41    39   am
    78    41    42    1
    79    39    40    2
    80   112   113    1
    81   113   116    1
    82   139   138    1
    83    77    78    1
    84   123   122    1
    85   120   119    2
    86   121   122    1
    87   121   118    1
    88   141   138    1
    89   141   142    1
    90   128   127    2
    91   117   118    1
    92   119   118    1
    93   138   137    1
    94    78    79   ar
    95    78    80   ar
    96   144   142   ar
    97   142   143   ar
    98   127   137   am
    99   127   126    1
   100   125   126    1
   101   167   165    1
   102   126   129    1
   103   165   166    1
   104   165   164    2
   105    32    34   ar
   106    32    31   ar
   107    34    36   ar
   108   164   163    1
   109   133   131   ar
   110   133   135   ar
   111   131   130   ar
   112    36    35   ar
   113    31    30    1
   114    31    33   ar
   115    30    27    1
   116   163   162    1
   117    35    33   ar
   118   162   161    1
   119   136   135    1
   120   135   134   ar
   121   130   129    1
   122   130   132   ar
   123    28    27    1
   124    28    29    2
   125   161   158    1
   126   156   155    1
   127    27    26    1
   128   134   132   ar
   129   158   159    1
   130   158   157    1
   131   155   154   ar
   132   155   153   ar
   133   159   160    2
   134   191   192   ar
   135   191   189   ar
   136   192   190   ar
   137   154   152   ar
   138   175   177   ar
   139   175   173   ar
   140   189   186   ar
   141   190   188   ar
   142   177   178   ar
   143   168   169    1
   144   186   188   ar
   145   186   184   ar
   146   188   187   ar
   147    14    13   ar
   148    14    12   ar
   149   172   173    1
   150   172   169    1
   151   153   151   ar
   152   184   183    1
   153   184   185   ar
   154   187   185   ar
   155    13    11   ar
   156   183   180    1
   157   173   174   ar
   158    12    10   ar
   159   169   170    1
   160   152   150   ar
   161   178   176   ar
   162    11     8   ar
   163    10     8   ar
   164    10     9   ar
   165   151   150   ar
   166     8     6   ar
   167   174   176   ar
   168   150   149    1
   169     9     7   ar
   170   180   179    1
   171   180   181    1
   172   170   171    2
   173     6     7   ar
   174     6     5    1
   175   148   147    2
   176   182   181    2
   177     5     2    1
   178   147   146    1
   179   149   146    1
   180   200   199    1
   181     1     2    1
   182   146   145    1
   183     2     3    1
   184   199   198    1
   185    25    23    1
   186     3     4    2
   187    23    22    2
   188    23    24    1
   189   198   197    1
   190    22    21    1
   191   197   194    1
   192    21    20    1
   193    20    19    1
   194   193   194    1
   195   194   195    1
   196    15    16    1
   197   195   196    2
   198    19    16    1
   199    16    17    1
   200    17    18    2
