@<TRIPOS>MOLECULE
tmp/3wl1A01.pdb
 136 135 0 0 0
SMALL
GASTEIGER

@<TRIPOS>ATOM
      1  N        -34.1400   22.3160   21.3900 N.3    84  TRP84      -0.1241
      2  CA       -34.2170   23.4630   20.4900 C.3    84  TRP84       0.1605
      3  C        -32.8430   24.0560   20.1800 C.2    84  TRP84       0.2264
      4  O        -32.5240   24.3600   18.9930 O.2    84  TRP84      -0.2867
      5  CB       -35.0830   24.5220   21.1410 C.3    84  TRP84       0.0550
      6  CG       -35.2440   25.7040   20.2290 C.ar   84  TRP84       0.0003
      7  CD1      -34.6430   26.9330   20.3670 C.ar   84  TRP84       0.0946
      8  CD2      -36.0130   25.7600   19.0370 C.ar   84  TRP84       0.0152
      9  NE1      -35.0380   27.7480   19.3470 N.ar   84  TRP84      -0.2442
     10  CE2      -35.8750   27.0570   18.5120 C.ar   84  TRP84       0.0810
     11  CE3      -36.8400   24.8490   18.3760 C.ar   84  TRP84       0.0012
     12  CZ2      -36.5170   27.4640   17.3530 C.ar   84  TRP84       0.0191
     13  CZ3      -37.4830   25.2530   17.2070 C.ar   84  TRP84       0.0001
     14  CH2      -37.3070   26.5440   16.7090 C.ar   84  TRP84       0.0015
     15  N        -35.8210   18.7900   16.5250 N.3   125  GLU125     -0.1231
     16  CA       -36.8310   19.7990   16.1310 C.3   125  GLU125      0.1699
     17  C        -36.3670   20.5230   14.8780 C.2   125  GLU125      0.2592
     18  O        -35.4830   21.3850   14.9680 O.2   125  GLU125     -0.2718
     19  CB       -37.0440   20.7780   17.2870 C.3   125  GLU125      0.0402
     20  CG       -37.4770   19.9380   18.5570 C.3   125  GLU125      0.1161
     21  CD       -37.8170   20.7460   19.8250 C.2   125  GLU125      0.3649
     22  OE1      -37.7820   21.9810   19.8100 O.co2 125  GLU125     -0.2457
     23  OE2      -38.1400   20.0930   20.8560 O.co2 125  GLU125     -0.2457
     24  N        -36.9080   20.1790   13.6990 N.am  126  TYR126     -0.1976
     25  CA       -37.8330   19.0450   13.4710 C.3   126  TYR126      0.1639
     26  C        -37.4780   18.4930   12.0990 C.2   126  TYR126      0.2290
     27  O        -37.1020   19.2810   11.2040 O.2   126  TYR126     -0.2864
     28  CB       -39.2760   19.5440   13.2920 C.3   126  TYR126      0.0560
     29  CG       -39.7760   20.4370   14.3850 C.ar  126  TYR126     -0.0198
     30  CD1      -40.3570   19.9050   15.5210 C.ar  126  TYR126     -0.0009
     31  CD2      -39.6480   21.8110   14.2690 C.ar  126  TYR126     -0.0009
     32  CE1      -40.8340   20.7850   16.5550 C.ar  126  TYR126      0.0417
     33  CE2      -40.1200   22.6600   15.2420 C.ar  126  TYR126      0.0417
     34  CZ       -40.6900   22.1480   16.3720 C.ar  126  TYR126      0.1957
     35  OH       -41.1260   23.0460   17.3000 O.3   126  TYR126     -0.2866
     36  N        -37.0720   25.8620    8.1050 N.3   131  ASP131     -0.1239
     37  CA       -36.5720   26.8720    9.0260 C.3   131  ASP131      0.1674
     38  C        -35.5650   26.3080   10.0290 C.2   131  ASP131      0.2266
     39  O        -34.9710   27.0550   10.7880 O.2   131  ASP131     -0.2867
     40  CB       -37.7570   27.5330    9.8030 C.3   131  ASP131      0.1410
     41  CG       -38.8660   26.5050   10.2830 C.2   131  ASP131      0.3668
     42  OD1      -39.2500   25.5340    9.5590 O.co2 131  ASP131     -0.2456
     43  OD2      -39.4280   26.6990   11.3960 O.co2 131  ASP131     -0.2456
     44  N        -44.1460   17.6680   17.7370 N.3   167  PRO167     -0.2116
     45  CA       -45.0470   18.8380   17.7310 C.3   167  PRO167      0.1372
     46  C        -46.4770   18.4650   17.4790 C.2   167  PRO167      0.2244
     47  O        -46.7640   17.2790   17.2160 O.2   167  PRO167     -0.2868
     48  CB       -44.5510   19.6450   16.5430 C.3   167  PRO167      0.0268
     49  CG       -44.0360   18.5470   15.5570 C.3   167  PRO167      0.0207
     50  CD       -43.4160   17.4800   16.4640 C.3   167  PRO167      0.0892
     51  N        -48.9880   21.0200    9.8540 N.3   171  PHE171     -0.1227
     52  CA       -47.9750   21.1540    8.8070 C.3   171  PHE171      0.1736
     53  C        -46.6670   20.4860    9.2170 C.2   171  PHE171      0.2595
     54  O        -45.9840   19.8960    8.3620 O.2   171  PHE171     -0.2718
     55  CB       -47.7760   22.6090    8.3640 C.3   171  PHE171      0.0547
     56  CG       -46.9200   23.4320    9.2750 C.ar  171  PHE171     -0.0202
     57  CD1      -45.5460   23.5810    9.0160 C.ar  171  PHE171     -0.0042
     58  CD2      -47.4910   24.1050   10.3440 C.ar  171  PHE171     -0.0042
     59  CE1      -44.7480   24.3670    9.8420 C.ar  171  PHE171     -0.0003
     60  CE2      -46.7170   24.8860   11.1950 C.ar  171  PHE171     -0.0003
     61  CZ       -45.3370   25.0240   10.9500 C.ar  171  PHE171     -0.0000
     62  N        -46.3490   20.5120   10.5090 N.am  172  ARG172     -0.1980
     63  CA       -45.1400   19.8570   11.0070 C.3   172  ARG172      0.1597
     64  C        -45.3100   18.3530   10.8950 C.2   172  ARG172      0.2287
     65  O        -44.3530   17.6380   10.5430 O.2   172  ARG172     -0.2864
     66  CB       -44.8700   20.2910   12.4660 C.3   172  ARG172      0.0334
     67  CG       -44.5420   21.7930   12.5330 C.3   172  ARG172      0.0492
     68  CD       -43.2840   22.0830   13.2670 C.3   172  ARG172      0.2205
     69  NE       -43.0920   23.5200   13.4970 N.pl3 172  ARG172     -0.0865
     70  CZ       -42.2900   24.2780   12.7560 C.cat 172  ARG172      0.5346
     71  NH1      -41.6280   23.7580   11.7190 N.pl3 172  ARG172      0.1354
     72  NH2      -42.1640   25.5850   13.0470 N.pl3 172  ARG172      0.1354
     73  N        -45.4620   17.7660   22.5110 N.3   192  MET192     -0.1245
     74  CA       -45.1220   19.1100   22.9940 C.3   192  MET192      0.1570
     75  C        -46.3120   20.0380   22.8400 C.2   192  MET192      0.2261
     76  O        -46.3480   20.8980   21.9400 O.2   192  MET192     -0.2867
     77  CB       -43.8580   19.5970   22.2290 C.3   192  MET192      0.0387
     78  CG       -42.6530   18.6790   22.5970 C.3   192  MET192      0.0595
     79  SD       -41.1350   19.3350   21.8280 S.3   192  MET192     -0.1393
     80  CE       -41.4860   18.9160   20.1430 C.3   192  MET192      0.0692
     81  N        -47.3300   22.7340   23.8960 N.3   194  TYR194     -0.1227
     82  CA       -46.9840   24.0190   24.5440 C.3   194  TYR194      0.1736
     83  C        -46.1860   24.7780   23.4990 C.2   194  TYR194      0.2595
     84  O        -45.9410   24.2250   22.4170 O.2   194  TYR194     -0.2718
     85  CB       -46.2030   23.8520   25.8800 C.3   194  TYR194      0.0548
     86  CG       -45.1240   22.7700   25.8560 C.ar  194  TYR194     -0.0200
     87  CD1      -43.9120   22.9440   25.1510 C.ar  194  TYR194     -0.0009
     88  CD2      -45.3220   21.5830   26.5670 C.ar  194  TYR194     -0.0009
     89  CE1      -42.9200   21.9020   25.1410 C.ar  194  TYR194      0.0417
     90  CE2      -44.3420   20.5800   26.5860 C.ar  194  TYR194      0.0417
     91  CZ       -43.1670   20.7520   25.8560 C.ar  194  TYR194      0.1957
     92  OH       -42.2730   19.7160   25.8890 O.3   194  TYR194     -0.2866
     93  N        -45.8170   26.0180   23.8020 N.am  195  ASP195     -0.1974
     94  CA       -45.3060   26.9420   22.7700 C.3   195  ASP195      0.1709
     95  C        -46.2300   26.9540   21.5730 C.2   195  ASP195      0.2293
     96  O        -45.7790   27.1220   20.4040 O.2   195  ASP195     -0.2864
     97  CB       -43.8970   26.5230   22.3140 C.3   195  ASP195      0.1436
     98  CG       -42.8120   26.9460   23.2810 C.2   195  ASP195      0.3671
     99  OD1      -43.0990   27.6180   24.3100 O.co2 195  ASP195     -0.2456
    100  OD2      -41.6350   26.5830   23.0260 O.co2 195  ASP195     -0.2456
    101  N        -43.2960   35.0170   18.5510 N.3   200  TRP200     -0.1241
    102  CA       -43.1420   34.7950   17.1220 C.3   200  TRP200      0.1605
    103  C        -44.4300   34.9100   16.3730 C.2   200  TRP200      0.2264
    104  O        -44.4190   35.1740   15.1630 O.2   200  TRP200     -0.2867
    105  CB       -42.5650   33.4030   16.8690 C.3   200  TRP200      0.0550
    106  CG       -43.3440   32.2980   17.5470 C.ar  200  TRP200      0.0003
    107  CD1      -44.4110   31.5910   17.0380 C.ar  200  TRP200      0.0946
    108  CD2      -43.0980   31.7800   18.8670 C.ar  200  TRP200      0.0152
    109  NE1      -44.8550   30.6700   17.9890 N.ar  200  TRP200     -0.2442
    110  CE2      -44.0600   30.7630   19.1040 C.ar  200  TRP200      0.0810
    111  CE3      -42.1740   32.0910   19.8690 C.ar  200  TRP200      0.0012
    112  CZ2      -44.1190   30.0370   20.3160 C.ar  200  TRP200      0.0191
    113  CZ3      -42.2120   31.3520   21.1000 C.ar  200  TRP200      0.0001
    114  CH2      -43.2010   30.3360   21.2990 C.ar  200  TRP200      0.0015
    115  N        -45.1480   31.7980   28.4840 N.3   251  ARG251     -0.1245
    116  CA       -44.6340   32.6030   27.3750 C.3   251  ARG251      0.1563
    117  C        -45.0380   34.0350   27.6400 C.2   251  ARG251      0.2260
    118  O        -46.2180   34.3260   27.8790 O.2   251  ARG251     -0.2867
    119  CB       -45.1980   32.0970   26.0410 C.3   251  ARG251      0.0307
    120  CG       -44.4330   30.8250   25.5480 C.3   251  ARG251      0.0489
    121  CD       -43.0150   31.2760   25.1120 C.3   251  ARG251      0.2205
    122  NE       -42.1640   30.1660   24.7010 N.pl3 251  ARG251     -0.0865
    123  CZ       -40.8620   30.2570   24.4810 C.cat 251  ARG251      0.5346
    124  NH1      -40.2570   31.4290   24.6590 N.pl3 251  ARG251      0.1354
    125  NH2      -40.1640   29.1810   24.1100 N.pl3 251  ARG251      0.1354
    126  N        -39.7960   34.0810   28.1180 N.3   286  PHE286     -0.1241
    127  CA       -40.3810   33.0390   28.9760 C.3   286  PHE286      0.1605
    128  C        -40.0040   33.1760   30.4280 C.2   286  PHE286      0.2264
    129  O        -38.9490   33.7420   30.7620 O.2   286  PHE286     -0.2867
    130  CB       -40.1570   31.6160   28.4450 C.3   286  PHE286      0.0534
    131  CG       -38.8100   30.9960   28.8050 C.ar  286  PHE286     -0.0203
    132  CD1      -37.7660   31.0400   27.9110 C.ar  286  PHE286     -0.0042
    133  CD2      -38.6330   30.3300   30.0270 C.ar  286  PHE286     -0.0042
    134  CE1      -36.5370   30.4240   28.2300 C.ar  286  PHE286     -0.0003
    135  CE2      -37.4640   29.7410   30.3640 C.ar  286  PHE286     -0.0003
    136  CZ       -36.3830   29.8000   29.4740 C.ar  286  PHE286     -0.0000
@<TRIPOS>BOND
     1    36    37    1
     2    54    53    2
     3    55    52    1
     4    55    56    1
     5    52    53    1
     6    52    51    1
     7    57    56   ar
     8    57    59   ar
     9    37    40    1
    10    37    38    1
    11    53    62   am
    12    56    58   ar
    13    42    41   ar
    14    40    41    1
    15    59    61   ar
    16    38    39    2
    17    41    43   ar
    18    58    60   ar
    19    62    63    1
    20    65    64    2
    21    64    63    1
    22    61    60   ar
    23    63    66    1
    24    27    26    2
    25    71    70    1
    26    26    25    1
    27    66    67    1
    28    67    68    1
    29    70    72    1
    30    70    69    2
    31    68    69    1
    32    28    25    1
    33    28    29    1
    34    25    24    1
    35    24    17   am
    36    31    29   ar
    37    31    33   ar
    38    29    30   ar
    39    17    18    2
    40    17    16    1
    41   104   103    2
    42    33    34   ar
    43    30    32   ar
    44    49    50    1
    45    49    48    1
    46    16    15    1
    47    16    19    1
    48    34    32   ar
    49    34    35    1
    50   103   102    1
    51    50    44    1
    52    48    45    1
    53    14    13   ar
    54    14    12   ar
    55   105   102    1
    56   105   106    1
    57   107   106   ar
    58   107   109   ar
    59   102   101    1
    60    13    11   ar
    61    47    46    2
    62    19    20    1
    63    12    10   ar
    64    46    45    1
    65   106   108   ar
    66    45    44    1
    67   109   110   ar
    68    11     8   ar
    69    10     8   ar
    70    10     9   ar
    71    20    21    1
    72   108   110   ar
    73   108   111   ar
    74     4     3    2
    75     8     6   ar
    76   110   112   ar
    77     9     7   ar
    78    22    21   ar
    79    21    23   ar
    80   111   113   ar
    81    80    79    1
    82     3     2    1
    83     6     7   ar
    84     6     5    1
    85   112   114   ar
    86    96    95    2
    87     2     5    1
    88     2     1    1
    89   113   114   ar
    90    95    94    1
    91    79    78    1
    92    76    75    2
    93    77    78    1
    94    77    74    1
    95    97    94    1
    96    97    98    1
    97    84    83    2
    98    73    74    1
    99    94    93    1
   100    75    74    1
   101   100    98   ar
   102    98    99   ar
   103    83    93   am
   104    83    82    1
   105    81    82    1
   106   125   123    1
   107   123   124    1
   108   123   122    2
   109    82    85    1
   110   122   121    1
   111   121   120    1
   112    89    87   ar
   113    89    91   ar
   114    87    86   ar
   115   120   119    1
   116    86    85    1
   117    86    88   ar
   118    91    92    1
   119    91    90   ar
   120   119   116    1
   121    88    90   ar
   122   116   117    1
   123   116   115    1
   124   117   118    2
   125   132   134   ar
   126   132   131   ar
   127   126   127    1
   128   134   136   ar
   129   130   131    1
   130   130   127    1
   131   131   133   ar
   132   127   128    1
   133   136   135   ar
   134   133   135   ar
   135   128   129    2
