@<TRIPOS>MOLECULE
tmp/3wl1A00.pdb
 238 233 0 0 0
SMALL
GASTEIGER

@<TRIPOS>ATOM
      1  N        -39.0190   15.8160   32.0490 N.3     7  TYR7       -0.1241
      2  CA       -37.7270   16.2380   31.4400 C.3     7  TYR7        0.1605
      3  C        -36.9430   17.0200   32.4960 C.2     7  TYR7        0.2264
      4  O        -37.5040   17.8830   33.1880 O.2     7  TYR7       -0.2867
      5  CB       -37.9720   17.1560   30.2410 C.3     7  TYR7        0.0534
      6  CG       -38.3800   16.3990   29.0060 C.ar    7  TYR7       -0.0201
      7  CD1      -39.7170   16.2140   28.6850 C.ar    7  TYR7       -0.0009
      8  CD2      -37.4000   15.8860   28.1430 C.ar    7  TYR7       -0.0009
      9  CE1      -40.0830   15.4880   27.4950 C.ar    7  TYR7        0.0417
     10  CE2      -37.7740   15.1850   26.9350 C.ar    7  TYR7        0.0417
     11  CZ       -39.0960   14.9860   26.6680 C.ar    7  TYR7        0.1957
     12  OH       -39.4210   14.2590   25.5040 O.3     7  TYR7       -0.2866
     13  N        -30.1430   19.8000   32.1640 N.3    10  ASN10      -0.1225
     14  CA       -28.8550   19.7250   32.8590 C.3    10  ASN10       0.1785
     15  C        -28.2500   21.1200   33.0810 C.2    10  ASN10       0.2597
     16  O        -27.2920   21.2450   33.8040 O.2    10  ASN10      -0.2718
     17  CB       -27.8420   18.8190   32.1070 C.3    10  ASN10       0.1169
     18  CG       -27.3230   19.4150   30.8260 C.2    10  ASN10       0.2627
     19  OD1      -27.8680   20.3720   30.2810 O.2    10  ASN10      -0.2716
     20  ND2      -26.2240   18.8350   30.3060 N.am   10  ASN10      -0.0877
     21  N        -28.7930   22.1500   32.4460 N.am   11  TRP11      -0.1976
     22  CA       -28.2180   23.5130   32.6020 C.3    11  TRP11       0.1640
     23  C        -28.8750   24.2820   33.7490 C.2    11  TRP11       0.2290
     24  O        -28.4760   25.4070   34.0570 O.2    11  TRP11      -0.2864
     25  CB       -28.3170   24.2750   31.2890 C.3    11  TRP11       0.0576
     26  CG       -29.7010   24.5330   30.8170 C.ar   11  TRP11       0.0006
     27  CD1      -30.4540   25.6690   31.0390 C.ar   11  TRP11       0.0946
     28  CD2      -30.5170   23.6500   30.0130 C.ar   11  TRP11       0.0152
     29  NE1      -31.6710   25.5390   30.4350 N.ar   11  TRP11      -0.2442
     30  CE2      -31.7530   24.3240   29.8220 C.ar   11  TRP11       0.0810
     31  CE3      -30.3450   22.3620   29.4880 C.ar   11  TRP11       0.0012
     32  CZ2      -32.8090   23.7470   29.0870 C.ar   11  TRP11       0.0191
     33  CZ3      -31.3980   21.7800   28.7670 C.ar   11  TRP11       0.0001
     34  CH2      -32.6250   22.4800   28.5860 C.ar   11  TRP11       0.0015
     35  N        -28.4240   28.1970   37.3260 N.3    15  ARG15      -0.1245
     36  CA       -29.2910   29.3080   37.6910 C.3    15  ARG15       0.1563
     37  C        -28.9340   29.8150   39.0730 C.2    15  ARG15       0.2260
     38  O        -28.5690   29.0510   39.9500 O.2    15  ARG15      -0.2867
     39  CB       -30.7470   28.8470   37.6750 C.3    15  ARG15       0.0307
     40  CG       -31.1930   28.5600   36.2160 C.3    15  ARG15       0.0489
     41  CD       -32.6560   28.0100   36.1690 C.3    15  ARG15       0.2205
     42  NE       -32.9270   27.6520   34.7550 N.pl3  15  ARG15      -0.0865
     43  CZ       -33.7340   26.6680   34.3620 C.cat  15  ARG15       0.5346
     44  NH1      -34.4460   26.0000   35.2610 N.pl3  15  ARG15       0.1354
     45  NH2      -33.8530   26.3970   33.0470 N.pl3  15  ARG15       0.1354
     46  N        -29.7630   17.9030   27.6050 N.3    38  PHE38      -0.1241
     47  CA       -29.7780   17.1540   26.3510 C.3    38  PHE38       0.1605
     48  C        -28.3420   16.6830   26.0680 C.2    38  PHE38       0.2264
     49  O        -27.3670   17.3040   26.5370 O.2    38  PHE38      -0.2867
     50  CB       -30.1590   18.0690   25.1990 C.3    38  PHE38       0.0534
     51  CG       -31.6040   18.4610   25.2110 C.ar   38  PHE38      -0.0203
     52  CD1      -32.5920   17.5310   24.8490 C.ar   38  PHE38      -0.0042
     53  CD2      -31.9930   19.7630   25.5630 C.ar   38  PHE38      -0.0042
     54  CE1      -33.9670   17.8830   24.8970 C.ar   38  PHE38      -0.0003
     55  CE2      -33.3460   20.1230   25.5710 C.ar   38  PHE38      -0.0003
     56  CZ       -34.3450   19.1720   25.2770 C.ar   38  PHE38      -0.0000
     57  N        -22.7390   17.7670   25.6380 N.3    51  ILE51      -0.1245
     58  CA       -22.8330   19.2030   25.4700 C.3    51  ILE51       0.1561
     59  C        -22.1680   19.9540   26.6580 C.2    51  ILE51       0.2260
     60  O        -21.6670   21.0530   26.4720 O.2    51  ILE51      -0.2867
     61  CB       -24.3380   19.5970   25.2970 C.3    51  ILE51       0.0252
     62  CG1      -24.8220   19.0640   23.9430 C.3    51  ILE51       0.0019
     63  CG2      -24.5240   21.1380   25.3510 C.3    51  ILE51       0.0019
     64  CD1      -26.3730   19.3290   23.6000 C.3    51  ILE51       0.0001
     65  N        -30.9880   16.1690   21.1260 N.3    82  GLY82      -0.1210
     66  CA       -31.5970   17.2250   20.3320 C.3    82  GLY82       0.1956
     67  C        -31.9580   18.3970   21.2280 C.2    82  GLY82       0.2612
     68  O        -31.1090   18.9060   21.9990 O.2    82  GLY82      -0.2717
     69  N        -33.2310   18.8060   21.1770 N.am   83  GLY83      -0.1942
     70  CA       -33.6990   19.9870   21.9040 C.3    83  GLY83       0.2014
     71  C        -33.5700   21.1970   20.9760 C.2    83  GLY83       0.2639
     72  O        -32.9100   21.1680   19.9380 O.2    83  GLY83      -0.2714
     73  N        -34.1400   22.3160   21.3900 N.am   84  TRP84      -0.1959
     74  CA       -34.2170   23.4630   20.4900 C.3    84  TRP84       0.1771
     75  C        -32.8430   24.0560   20.1800 C.2    84  TRP84       0.2620
     76  O        -32.5240   24.3600   18.9930 O.2    84  TRP84      -0.2715
     77  CB       -35.0830   24.5220   21.1410 C.3    84  TRP84       0.0590
     78  CG       -35.2440   25.7040   20.2290 C.ar   84  TRP84       0.0006
     79  CD1      -34.6430   26.9330   20.3670 C.ar   84  TRP84       0.0946
     80  CD2      -36.0130   25.7600   19.0370 C.ar   84  TRP84       0.0152
     81  NE1      -35.0380   27.7480   19.3470 N.ar   84  TRP84      -0.2442
     82  CE2      -35.8750   27.0570   18.5120 C.ar   84  TRP84       0.0810
     83  CE3      -36.8400   24.8490   18.3760 C.ar   84  TRP84       0.0012
     84  CZ2      -36.5170   27.4640   17.3530 C.ar   84  TRP84       0.0191
     85  CZ3      -37.4830   25.2530   17.2070 C.ar   84  TRP84       0.0001
     86  CH2      -37.3070   26.5440   16.7090 C.ar   84  TRP84       0.0015
     87  N        -32.0150   24.2000   21.2060 N.am   85  ALA85      -0.1963
     88  CA       -30.7010   24.8570   21.0250 C.3    85  ALA85       0.1728
     89  C        -29.7510   24.0950   20.1180 C.2    85  ALA85       0.2616
     90  O        -28.8700   24.7100   19.4770 O.2    85  ALA85      -0.2715
     91  CB       -30.0290   25.1000   22.3870 C.3    85  ALA85       0.0334
     92  N        -29.9270   22.7740   20.0020 N.am   86  GLU86      -0.1977
     93  CA       -29.0600   21.9730   19.1240 C.3    86  GLU86       0.1602
     94  C        -29.2550   22.2720   17.6710 C.2    86  GLU86       0.2287
     95  O        -28.4060   21.9050   16.8530 O.2    86  GLU86      -0.2864
     96  CB       -29.3620   20.4640   19.2910 C.3    86  GLU86       0.0415
     97  CG       -28.3160   19.7870   20.1930 C.3    86  GLU86       0.1163
     98  CD       -27.0920   19.4510   19.3710 C.2    86  GLU86       0.3649
     99  OE1      -27.1860   18.5030   18.5480 O.co2  86  GLU86      -0.2457
    100  OE2      -26.0700   20.1670   19.5250 O.co2  86  GLU86      -0.2457
    101  N        -35.3720   14.0870   20.2690 N.3   123  ASP123     -0.1239
    102  CA       -35.9680   15.4200   20.2740 C.3   123  ASP123      0.1674
    103  C        -35.3910   16.2820   19.1590 C.2   123  ASP123      0.2266
    104  O        -34.9530   17.4160   19.4040 O.2   123  ASP123     -0.2867
    105  CB       -35.7410   16.1210   21.6230 C.3   123  ASP123      0.1410
    106  CG       -36.5860   17.3950   21.7600 C.2   123  ASP123      0.3668
    107  OD1      -37.5300   17.6390   20.9280 O.co2 123  ASP123     -0.2456
    108  OD2      -36.2940   18.1970   22.6730 O.co2 123  ASP123     -0.2456
    109  N        -35.8210   18.7900   16.5250 N.3   125  GLU125     -0.1231
    110  CA       -36.8310   19.7990   16.1310 C.3   125  GLU125      0.1699
    111  C        -36.3670   20.5230   14.8780 C.2   125  GLU125      0.2592
    112  O        -35.4830   21.3850   14.9680 O.2   125  GLU125     -0.2718
    113  CB       -37.0440   20.7780   17.2870 C.3   125  GLU125      0.0402
    114  CG       -37.4770   19.9380   18.5570 C.3   125  GLU125      0.1161
    115  CD       -37.8170   20.7460   19.8250 C.2   125  GLU125      0.3649
    116  OE1      -37.7820   21.9810   19.8100 O.co2 125  GLU125     -0.2457
    117  OE2      -38.1400   20.0930   20.8560 O.co2 125  GLU125     -0.2457
    118  N        -36.9080   20.1790   13.6990 N.am  126  TYR126     -0.1976
    119  CA       -37.8330   19.0450   13.4710 C.3   126  TYR126      0.1639
    120  C        -37.4780   18.4930   12.0990 C.2   126  TYR126      0.2290
    121  O        -37.1020   19.2810   11.2040 O.2   126  TYR126     -0.2864
    122  CB       -39.2760   19.5440   13.2920 C.3   126  TYR126      0.0560
    123  CG       -39.7760   20.4370   14.3850 C.ar  126  TYR126     -0.0198
    124  CD1      -40.3570   19.9050   15.5210 C.ar  126  TYR126     -0.0009
    125  CD2      -39.6480   21.8110   14.2690 C.ar  126  TYR126     -0.0009
    126  CE1      -40.8340   20.7850   16.5550 C.ar  126  TYR126      0.0417
    127  CE2      -40.1200   22.6600   15.2420 C.ar  126  TYR126      0.0417
    128  CZ       -40.6900   22.1480   16.3720 C.ar  126  TYR126      0.1957
    129  OH       -41.1260   23.0460   17.3000 O.3   126  TYR126     -0.2866
    130  N        -40.1060   13.2470   21.3130 N.3   165  ALA165     -0.1245
    131  CA       -40.8980   14.4500   21.5960 C.3   165  ALA165      0.1562
    132  C        -41.3290   14.9880   20.2390 C.2   165  ALA165      0.2260
    133  O        -40.4920   15.0840   19.3210 O.2   165  ALA165     -0.2867
    134  CB       -40.0210   15.5150   22.3260 C.3   165  ALA165      0.0290
    135  N        -45.4620   17.7660   22.5110 N.3   192  MET192     -0.1245
    136  CA       -45.1220   19.1100   22.9940 C.3   192  MET192      0.1570
    137  C        -46.3120   20.0380   22.8400 C.2   192  MET192      0.2261
    138  O        -46.3480   20.8980   21.9400 O.2   192  MET192     -0.2867
    139  CB       -43.8580   19.5970   22.2290 C.3   192  MET192      0.0387
    140  CG       -42.6530   18.6790   22.5970 C.3   192  MET192      0.0595
    141  SD       -41.1350   19.3350   21.8280 S.3   192  MET192     -0.1393
    142  CE       -41.4860   18.9160   20.1430 C.3   192  MET192      0.0692
    143  N        -47.3300   22.7340   23.8960 N.3   194  TYR194     -0.1227
    144  CA       -46.9840   24.0190   24.5440 C.3   194  TYR194      0.1736
    145  C        -46.1860   24.7780   23.4990 C.2   194  TYR194      0.2595
    146  O        -45.9410   24.2250   22.4170 O.2   194  TYR194     -0.2718
    147  CB       -46.2030   23.8520   25.8800 C.3   194  TYR194      0.0548
    148  CG       -45.1240   22.7700   25.8560 C.ar  194  TYR194     -0.0200
    149  CD1      -43.9120   22.9440   25.1510 C.ar  194  TYR194     -0.0009
    150  CD2      -45.3220   21.5830   26.5670 C.ar  194  TYR194     -0.0009
    151  CE1      -42.9200   21.9020   25.1410 C.ar  194  TYR194      0.0417
    152  CE2      -44.3420   20.5800   26.5860 C.ar  194  TYR194      0.0417
    153  CZ       -43.1670   20.7520   25.8560 C.ar  194  TYR194      0.1957
    154  OH       -42.2730   19.7160   25.8890 O.3   194  TYR194     -0.2866
    155  N        -45.8170   26.0180   23.8020 N.am  195  ASP195     -0.1974
    156  CA       -45.3060   26.9420   22.7700 C.3   195  ASP195      0.1709
    157  C        -46.2300   26.9540   21.5730 C.2   195  ASP195      0.2293
    158  O        -45.7790   27.1220   20.4040 O.2   195  ASP195     -0.2864
    159  CB       -43.8970   26.5230   22.3140 C.3   195  ASP195      0.1436
    160  CG       -42.8120   26.9460   23.2810 C.2   195  ASP195      0.3671
    161  OD1      -43.0990   27.6180   24.3100 O.co2 195  ASP195     -0.2456
    162  OD2      -41.6350   26.5830   23.0260 O.co2 195  ASP195     -0.2456
    163  N        -43.9430   26.5200   32.6150 N.3   249  TYR249     -0.1241
    164  CA       -43.3600   27.8410   32.3080 C.3   249  TYR249      0.1605
    165  C        -44.3760   28.6310   31.5430 C.2   249  TYR249      0.2264
    166  O        -45.3190   28.0530   30.9640 O.2   249  TYR249     -0.2867
    167  CB       -42.0360   27.7360   31.5160 C.3   249  TYR249      0.0534
    168  CG       -42.2460   27.2430   30.1200 C.ar  249  TYR249     -0.0201
    169  CD1      -42.2800   25.8750   29.8660 C.ar  249  TYR249     -0.0009
    170  CD2      -42.4260   28.1520   29.0500 C.ar  249  TYR249     -0.0009
    171  CE1      -42.5150   25.3920   28.5980 C.ar  249  TYR249      0.0417
    172  CE2      -42.6840   27.7020   27.7470 C.ar  249  TYR249      0.0417
    173  CZ       -42.6940   26.3010   27.5270 C.ar  249  TYR249      0.1957
    174  OH       -42.9390   25.8000   26.2650 O.3   249  TYR249     -0.2866
    175  N        -45.1480   31.7980   28.4840 N.3   251  ARG251     -0.1245
    176  CA       -44.6340   32.6030   27.3750 C.3   251  ARG251      0.1563
    177  C        -45.0380   34.0350   27.6400 C.2   251  ARG251      0.2260
    178  O        -46.2180   34.3260   27.8790 O.2   251  ARG251     -0.2867
    179  CB       -45.1980   32.0970   26.0410 C.3   251  ARG251      0.0307
    180  CG       -44.4330   30.8250   25.5480 C.3   251  ARG251      0.0489
    181  CD       -43.0150   31.2760   25.1120 C.3   251  ARG251      0.2205
    182  NE       -42.1640   30.1660   24.7010 N.pl3 251  ARG251     -0.0865
    183  CZ       -40.8620   30.2570   24.4810 C.cat 251  ARG251      0.5346
    184  NH1      -40.2570   31.4290   24.6590 N.pl3 251  ARG251      0.1354
    185  NH2      -40.1640   29.1810   24.1100 N.pl3 251  ARG251      0.1354
    186  N        -34.2780   32.4030   35.1570 N.3   281  THR281     -0.1203
    187  CA       -34.1380   31.8390   33.8040 C.3   281  THR281      0.1994
    188  C        -33.4630   32.8120   32.8510 C.2   281  THR281      0.2618
    189  O        -32.8920   32.3880   31.8300 O.2   281  THR281     -0.2717
    190  CB       -35.4930   31.4190   33.2120 C.3   281  THR281      0.1784
    191  OG1      -36.4440   32.4880   33.3410 O.3   281  THR281     -0.2211
    192  CG2      -36.0490   30.1550   33.9580 C.3   281  THR281      0.0376
    193  N        -33.5780   34.1150   33.1400 N.am  282  ASN282     -0.1960
    194  CA       -32.8570   35.1440   32.3490 C.3   282  ASN282      0.1819
    195  C        -33.0120   34.9860   30.8440 C.2   282  ASN282      0.2621
    196  O        -32.0150   34.9390   30.0920 O.2   282  ASN282     -0.2715
    197  CB       -31.3430   35.1490   32.7290 C.3   282  ASN282      0.1195
    198  CG       -30.5910   36.3020   32.0710 C.2   282  ASN282      0.2630
    199  OD1      -31.1700   37.3770   31.8120 O.2   282  ASN282     -0.2716
    200  ND2      -29.3190   36.0620   31.7510 N.am  282  ASN282     -0.0877
    201  N        -34.2570   34.8830   30.3770 N.am  283  ALA283     -0.1977
    202  CA       -34.5090   34.6770   28.9500 C.3   283  ALA283      0.1597
    203  C        -35.6840   35.5210   28.5260 C.2   283  ALA283      0.2287
    204  O        -36.7860   35.4250   29.0870 O.2   283  ALA283     -0.2864
    205  CB       -34.8280   33.2060   28.6890 C.3   283  ALA283      0.0319
    206  N        -39.7960   34.0810   28.1180 N.3   286  PHE286     -0.1241
    207  CA       -40.3810   33.0390   28.9760 C.3   286  PHE286      0.1605
    208  C        -40.0040   33.1760   30.4280 C.2   286  PHE286      0.2264
    209  O        -38.9490   33.7420   30.7620 O.2   286  PHE286     -0.2867
    210  CB       -40.1570   31.6160   28.4450 C.3   286  PHE286      0.0534
    211  CG       -38.8100   30.9960   28.8050 C.ar  286  PHE286     -0.0203
    212  CD1      -37.7660   31.0400   27.9110 C.ar  286  PHE286     -0.0042
    213  CD2      -38.6330   30.3300   30.0270 C.ar  286  PHE286     -0.0042
    214  CE1      -36.5370   30.4240   28.2300 C.ar  286  PHE286     -0.0003
    215  CE2      -37.4640   29.7410   30.3640 C.ar  286  PHE286     -0.0003
    216  CZ       -36.3830   29.8000   29.4740 C.ar  286  PHE286     -0.0000
    217  N        -42.4260   19.7900   30.5670 N.3   349  TRP349     -0.1241
    218  CA       -41.2160   20.5710   30.2840 C.3   349  TRP349      0.1605
    219  C        -41.2730   21.7480   31.2570 C.2   349  TRP349      0.2264
    220  O        -42.1310   22.6180   31.0680 O.2   349  TRP349     -0.2867
    221  CB       -41.2220   21.1380   28.8410 C.3   349  TRP349      0.0550
    222  CG       -39.8890   21.8350   28.6900 C.ar  349  TRP349      0.0003
    223  CD1      -39.6350   23.1790   28.8910 C.ar  349  TRP349      0.0946
    224  CD2      -38.6300   21.2110   28.4100 C.ar  349  TRP349      0.0152
    225  NE1      -38.2680   23.4170   28.7510 N.ar  349  TRP349     -0.2442
    226  CE2      -37.6370   22.2370   28.4750 C.ar  349  TRP349      0.0810
    227  CE3      -38.2350   19.8940   28.1460 C.ar  349  TRP349      0.0012
    228  CZ2      -36.2720   21.9760   28.2740 C.ar  349  TRP349      0.0191
    229  CZ3      -36.8910   19.6280   27.9270 C.ar  349  TRP349      0.0001
    230  CH2      -35.9100   20.6710   28.0000 C.ar  349  TRP349      0.0015
    231  N        -38.5000   23.6740   36.6920 N.3   353  MET353     -0.1245
    232  CA       -39.1850   24.9730   36.6930 C.3   353  MET353      0.1570
    233  C        -40.4580   24.9400   37.5110 C.2   353  MET353      0.2261
    234  O        -41.1540   25.9550   37.6000 O.2   353  MET353     -0.2867
    235  CB       -39.5100   25.4690   35.2620 C.3   353  MET353      0.0387
    236  CG       -38.1940   25.7680   34.4920 C.3   353  MET353      0.0595
    237  SD       -38.4520   26.6620   32.9430 S.3   353  MET353     -0.1393
    238  CE       -39.0780   25.2680   31.9350 C.3   353  MET353      0.0692
@<TRIPOS>BOND
     1   121   120    2
     2   120   119    1
     3   122   119    1
     4   122   123    1
     5   119   118    1
     6   118   111   am
     7   125   123   ar
     8   125   127   ar
     9   123   124   ar
    10   111   112    2
    11   111   110    1
    12   127   128   ar
    13   124   126   ar
    14   110   109    1
    15   110   113    1
    16   128   126   ar
    17   128   129    1
    18    86    85   ar
    19    86    84   ar
    20    95    94    2
    21    85    83   ar
    22   113   114    1
    23    84    82   ar
    24    94    93    1
    25    83    80   ar
    26    82    80   ar
    27    82    81   ar
    28    99    98   ar
    29   114   115    1
    30    76    75    2
    31    80    78   ar
    32    93    96    1
    33    93    92    1
    34   103   104    2
    35   103   102    1
    36    96    97    1
    37   133   132    2
    38    81    79   ar
    39    98   100   ar
    40    98    97    1
    41    90    89    2
    42   116   115   ar
    43   115   117   ar
    44    72    71    2
    45    92    89   am
    46    89    88    1
    47   142   141    1
    48    75    74    1
    49    75    87   am
    50    78    79   ar
    51    78    77    1
    52   132   131    1
    53   101   102    1
    54   102   105    1
    55    66    65    1
    56    66    67    1
    57   158   157    2
    58    74    77    1
    59    74    73    1
    60   107   106   ar
    61    71    73   am
    62    71    70    1
    63    88    87    1
    64    88    91    1
    65    69    67   am
    66    69    70    1
    67    67    68    2
    68   130   131    1
    69   157   156    1
    70   131   134    1
    71   105   106    1
    72   106   108   ar
    73   141   140    1
    74   138   137    2
    75   139   140    1
    76   139   136    1
    77   159   156    1
    78   159   160    1
    79   146   145    2
    80   135   136    1
    81   156   155    1
    82   137   136    1
    83   162   160   ar
    84   160   161   ar
    85   145   155   am
    86   145   144    1
    87    64    62    1
    88   143   144    1
    89    62    61    1
    90   185   183    1
    91   183   184    1
    92   183   182    2
    93   144   147    1
    94   182   181    1
    95    52    54   ar
    96    52    51   ar
    97    54    56   ar
    98   181   180    1
    99   151   149   ar
   100   151   153   ar
   101   149   148   ar
   102    50    51    1
   103    50    47    1
   104    51    53   ar
   105    56    55   ar
   106    61    63    1
   107    61    58    1
   108    58    57    1
   109    58    59    1
   110    12    11    1
   111   180   179    1
   112    53    55   ar
   113   148   147    1
   114   148   150   ar
   115   153   154    1
   116   153   152   ar
   117   179   176    1
   118    48    47    1
   119    48    49    2
   120   174   173    1
   121    47    46    1
   122    60    59    2
   123   150   152   ar
   124    11    10   ar
   125    11     9   ar
   126    10     8   ar
   127   176   177    1
   128   176   175    1
   129     9     7   ar
   130   173   172   ar
   131   173   171   ar
   132   177   178    2
   133   172   170   ar
   134   212   214   ar
   135   212   211   ar
   136   229   230   ar
   137   229   227   ar
   138   230   228   ar
   139   206   207    1
   140     8     6   ar
   141   227   224   ar
   142   214   216   ar
   143   228   226   ar
   144   224   226   ar
   145   224   222   ar
   146   210   211    1
   147   210   207    1
   148   226   225   ar
   149   203   202    1
   150   203   204    2
   151    34    33   ar
   152    34    32   ar
   153   171   169   ar
   154     7     6   ar
   155   205   202    1
   156   222   221    1
   157   222   223   ar
   158   225   223   ar
   159    33    31   ar
   160   211   213   ar
   161   221   218    1
   162   202   201    1
   163   207   208    1
   164     6     5    1
   165   170   168   ar
   166    32    30   ar
   167   216   215   ar
   168    31    28   ar
   169    30    28   ar
   170    30    29   ar
   171   169   168   ar
   172    28    26   ar
   173   213   215   ar
   174   196   195    2
   175   168   167    1
   176     5     2    1
   177    19    18    2
   178   218   217    1
   179   218   219    1
   180    20    18   am
   181   201   195   am
   182   208   209    2
   183    29    27   ar
   184    26    27   ar
   185    26    25    1
   186    18    17    1
   187   195   194    1
   188   166   165    2
   189   220   219    2
   190    25    22    1
   191     2     1    1
   192     2     3    1
   193   167   164    1
   194   165   164    1
   195   200   198   am
   196   199   198    2
   197   189   188    2
   198   238   237    1
   199   198   197    1
   200    17    14    1
   201    13    14    1
   202   164   163    1
   203   194   197    1
   204   194   193    1
   205    21    22    1
   206    21    15   am
   207     3     4    2
   208    22    23    1
   209   188   193   am
   210   188   187    1
   211    14    15    1
   212   237   236    1
   213    45    43    1
   214    15    16    2
   215   190   191    1
   216   190   187    1
   217   190   192    1
   218    23    24    2
   219   187   186    1
   220    43    42    2
   221    43    44    1
   222   236   235    1
   223    42    41    1
   224   235   232    1
   225    41    40    1
   226    40    39    1
   227   231   232    1
   228   232   233    1
   229    35    36    1
   230   233   234    2
   231    39    36    1
   232    36    37    1
   233    37    38    2
