@<TRIPOS>MOLECULE
tmp/3wl4B01.pdb
 111 109 0 0 0
SMALL
GASTEIGER

@<TRIPOS>ATOM
      1  N        -38.6420   28.8610   32.4530 N.3    39  HIS39      -0.1241
      2  CA       -37.5080   29.4240   31.7860 C.3    39  HIS39       0.1621
      3  C        -36.2050   28.6780   32.1940 C.2    39  HIS39       0.2264
      4  O        -36.2330   27.9970   33.2020 O.2    39  HIS39      -0.2867
      5  CB       -37.2870   30.9040   32.3280 C.3    39  HIS39       0.0745
      6  CG       -38.5250   31.7460   32.1440 C.ar   39  HIS39       0.0817
      7  ND1      -39.2250   32.2470   33.2140 N.ar   39  HIS39      -0.2268
      8  CD2      -39.1690   32.1770   31.0140 C.ar   39  HIS39       0.1154
      9  CE1      -40.2560   32.9450   32.7840 C.ar   39  HIS39       0.1986
     10  NE2      -40.2450   32.9390   31.4470 N.ar   39  HIS39      -0.2212
     11  N        -33.2310   28.0880   34.1160 N.3    41  ASP41      -0.1225
     12  CA       -32.8420   28.4140   35.4850 C.3    41  ASP41       0.1805
     13  C        -33.9160   28.2200   36.5140 C.2    41  ASP41       0.2597
     14  O        -33.6130   28.0890   37.6980 O.2    41  ASP41      -0.2718
     15  CB       -32.1770   29.7750   35.7400 C.3    41  ASP41       0.1424
     16  CG       -33.0990   30.9670   35.7290 C.2    41  ASP41       0.3668
     17  OD1      -34.2890   30.8490   36.0160 O.co2  41  ASP41      -0.2456
     18  OD2      -32.6000   32.1740   35.5260 O.co2  41  ASP41      -0.2456
     19  N        -35.1960   27.9250   36.1370 N.am   42  ASP42      -0.1974
     20  CA       -36.1310   27.7910   37.2120 C.3    42  ASP42       0.1709
     21  C        -36.0680   26.5140   37.9930 C.2    42  ASP42       0.2293
     22  O        -36.3740   26.4340   39.1710 O.2    42  ASP42      -0.2864
     23  CB       -37.6200   27.8670   36.6440 C.3    42  ASP42       0.1436
     24  CG       -38.0330   29.2840   36.3290 C.2    42  ASP42       0.3671
     25  OD1      -37.8860   30.2270   37.2380 O.co2  42  ASP42      -0.2456
     26  OD2      -38.3810   29.6820   35.1580 O.co2  42  ASP42      -0.2456
     27  N        -33.3630   27.1770   40.4780 N.3    45  ILE45      -0.1245
     28  CA       -33.7920   28.1520   41.5460 C.3    45  ILE45       0.1561
     29  C        -34.8010   27.5140   42.4520 C.2    45  ILE45       0.2260
     30  O        -34.7750   27.5820   43.6900 O.2    45  ILE45      -0.2867
     31  CB       -34.2640   29.4360   40.9580 C.3    45  ILE45       0.0252
     32  CG1      -33.1570   30.1700   40.1930 C.3    45  ILE45       0.0019
     33  CG2      -34.9810   30.3210   42.0670 C.3    45  ILE45       0.0019
     34  CD1      -33.6580   31.3020   39.3140 C.3    45  ILE45       0.0001
     35  N        -28.3400   31.1260   26.8830 N.3    84  ARG84      -0.1245
     36  CA       -28.9700   30.4320   27.9660 C.3    84  ARG84       0.1563
     37  C        -29.0810   28.9330   27.8670 C.2    84  ARG84       0.2260
     38  O        -29.1590   28.2040   28.8570 O.2    84  ARG84      -0.2867
     39  CB       -30.3730   31.1240   28.1900 C.3    84  ARG84       0.0307
     40  CG       -30.1810   32.6040   28.6160 C.3    84  ARG84       0.0489
     41  CD       -31.5890   33.2360   28.9600 C.3    84  ARG84       0.2205
     42  NE       -32.0720   32.6710   30.2380 N.pl3  84  ARG84      -0.0865
     43  CZ       -33.1670   33.1970   30.8650 C.cat  84  ARG84       0.5346
     44  NH1      -33.8230   34.2240   30.2730 N.pl3  84  ARG84       0.1354
     45  NH2      -33.5740   32.6800   32.0560 N.pl3  84  ARG84       0.1354
     46  N        -46.0280   36.4730   36.5050 N.3   144  HIS144     -0.1241
     47  CA       -45.4620   36.1510   35.1840 C.3   144  HIS144      0.1621
     48  C        -46.4250   35.0660   34.5240 C.2   144  HIS144      0.2264
     49  O        -46.5290   33.9250   35.0370 O.2   144  HIS144     -0.2867
     50  CB       -44.0430   35.5130   35.3790 C.3   144  HIS144      0.0745
     51  CG       -43.3100   35.5920   34.0860 C.ar  144  HIS144      0.0817
     52  ND1      -42.0440   36.1210   33.8720 N.ar  144  HIS144     -0.2268
     53  CD2      -43.7800   35.2270   32.8500 C.ar  144  HIS144      0.1154
     54  CE1      -41.7710   36.1130   32.5540 C.ar  144  HIS144      0.1986
     55  NE2      -42.8360   35.5380   31.9270 N.ar  144  HIS144     -0.2212
     56  N        -45.0650   31.5730   34.1210 N.3   147  HIS147     -0.1241
     57  CA       -45.0530   30.6870   35.3280 C.3   147  HIS147      0.1621
     58  C        -46.4360   30.1080   35.5960 C.2   147  HIS147      0.2264
     59  O        -46.5770   28.8950   35.8690 O.2   147  HIS147     -0.2867
     60  CB       -44.5520   31.5130   36.5430 C.3   147  HIS147      0.0745
     61  CG       -43.0550   31.5380   36.5940 C.ar  147  HIS147      0.0817
     62  ND1      -42.3710   31.2160   37.7460 N.ar  147  HIS147     -0.2268
     63  CD2      -42.1550   31.8340   35.6210 C.ar  147  HIS147      0.1154
     64  CE1      -41.0600   31.3170   37.4850 C.ar  147  HIS147      0.1986
     65  NE2      -40.8710   31.6840   36.2230 N.ar  147  HIS147     -0.2212
     66  N        -41.9850   26.3600   44.0290 N.3   187  TYR187     -0.1241
     67  CA       -42.4120   27.7540   44.0680 C.3   187  TYR187      0.1605
     68  C        -43.7670   27.8860   44.7180 C.2   187  TYR187      0.2264
     69  O        -44.6970   28.5290   44.1290 O.2   187  TYR187     -0.2867
     70  CB       -42.3800   28.4410   42.6640 C.3   187  TYR187      0.0534
     71  CG       -41.0770   28.6280   41.9470 C.ar  187  TYR187     -0.0201
     72  CD1      -39.9500   29.0710   42.6420 C.ar  187  TYR187     -0.0009
     73  CD2      -40.9920   28.5840   40.5770 C.ar  187  TYR187     -0.0009
     74  CE1      -38.7920   29.3840   41.9960 C.ar  187  TYR187      0.0417
     75  CE2      -39.8480   28.9150   39.8590 C.ar  187  TYR187      0.0417
     76  CZ       -38.7300   29.3530   40.6290 C.ar  187  TYR187      0.1957
     77  OH       -37.6410   29.7590   39.9170 O.3   187  TYR187     -0.2866
     78  N        -28.1910   35.9520   33.5960 N.3   213  GLN213     -0.1231
     79  CA       -29.3270   36.4180   34.4110 C.3   213  GLN213      0.1698
     80  C        -28.7720   36.9830   35.7180 C.2   213  GLN213      0.2592
     81  O        -29.4130   37.7950   36.3440 O.2   213  GLN213     -0.2718
     82  CB       -30.2870   35.2730   34.7350 C.3   213  GLN213      0.0381
     83  CG       -30.8370   34.6300   33.3500 C.3   213  GLN213      0.0905
     84  CD       -31.3560   35.6520   32.4180 C.2   213  GLN213      0.2608
     85  OE1      -30.7790   35.9570   31.3390 O.2   213  GLN213     -0.2717
     86  NE2      -32.3720   36.3540   32.8730 N.am  213  GLN213     -0.0878
     87  N        -27.6720   36.4290   36.1240 N.am  214  PHE214     -0.1976
     88  CA       -27.1640   36.7490   37.5700 C.3   214  PHE214      0.1639
     89  C        -25.8140   37.3920   37.4770 C.2   214  PHE214      0.2290
     90  O        -24.7620   36.7360   37.7260 O.2   214  PHE214     -0.2864
     91  CB       -27.1640   35.4630   38.3750 C.3   214  PHE214      0.0560
     92  CG       -28.5780   34.9380   38.6090 C.ar  214  PHE214     -0.0200
     93  CD1      -29.4770   35.7310   39.3710 C.ar  214  PHE214     -0.0042
     94  CD2      -28.9850   33.8270   37.9340 C.ar  214  PHE214     -0.0042
     95  CE1      -30.7940   35.3450   39.5640 C.ar  214  PHE214     -0.0003
     96  CE2      -30.3640   33.4150   38.0600 C.ar  214  PHE214     -0.0003
     97  CZ       -31.2910   34.1620   38.8270 C.ar  214  PHE214     -0.0000
     98  N        -30.3430   39.0350   44.6370 N.3   222  TRP222     -0.1241
     99  CA       -30.7950   37.6240   44.5590 C.3   222  TRP222      0.1605
    100  C        -30.2610   36.6380   45.5560 C.2   222  TRP222      0.2264
    101  O        -30.9310   35.7250   46.0380 O.2   222  TRP222     -0.2867
    102  CB       -30.6820   37.0820   43.1060 C.3   222  TRP222      0.0550
    103  CG       -31.9240   37.6050   42.4010 C.ar  222  TRP222      0.0003
    104  CD1      -32.1650   38.9500   41.9880 C.ar  222  TRP222      0.0946
    105  CD2      -33.0600   36.8590   41.9770 C.ar  222  TRP222      0.0152
    106  NE1      -33.4680   39.0780   41.4290 N.ar  222  TRP222     -0.2442
    107  CE2      -34.0250   37.8190   41.4670 C.ar  222  TRP222      0.0810
    108  CE3      -33.4160   35.5230   42.1480 C.ar  222  TRP222      0.0012
    109  CZ2      -35.3190   37.3930   40.9370 C.ar  222  TRP222      0.0191
    110  CZ3      -34.6630   35.0960   41.5830 C.ar  222  TRP222      0.0001
    111  CH2      -35.6110   36.0370   41.0580 C.ar  222  TRP222      0.0015
@<TRIPOS>BOND
     1    35    36    1
     2    37    36    1
     3    37    38    2
     4    36    39    1
     5    39    40    1
     6    40    41    1
     7    41    42    1
     8    42    43    2
     9    44    43    1
    10    43    45    1
    11     8    10   ar
    12     8     6   ar
    13    85    84    2
    14    10     9   ar
    15     2     3    1
    16     2     5    1
    17     2     1    1
    18    55    54   ar
    19    55    53   ar
    20     6     5    1
    21     6     7   ar
    22     3     4    2
    23    84    86   am
    24    84    83    1
    25    54    52   ar
    26     9     7   ar
    27    53    51   ar
    28    83    82    1
    29    78    79    1
    30    52    51   ar
    31    51    50    1
    32    11    12    1
    33    56    57    1
    34    79    82    1
    35    79    80    1
    36    48    49    2
    37    48    47    1
    38    26    24   ar
    39    47    50    1
    40    47    46    1
    41    57    58    1
    42    57    60    1
    43    12    15    1
    44    12    13    1
    45    18    16   ar
    46    58    59    2
    47    63    65   ar
    48    63    61   ar
    49    80    87   am
    50    80    81    2
    51    16    15    1
    52    16    17   ar
    53    87    88    1
    54    19    13   am
    55    19    20    1
    56    65    64   ar
    57    24    23    1
    58    24    25   ar
    59    13    14    2
    60    60    61    1
    61    61    62   ar
    62    23    20    1
    63    20    21    1
    64    89    88    1
    65    89    90    2
    66    64    62   ar
    67    88    91    1
    68    94    96   ar
    69    94    92   ar
    70    21    22    2
    71    96    97   ar
    72    91    92    1
    73    92    93   ar
    74    97    95   ar
    75    34    32    1
    76    93    95   ar
    77    75    73   ar
    78    75    76   ar
    79    77    76    1
    80    32    31    1
    81    27    28    1
    82    73    71   ar
    83    76    74   ar
    84   109   111   ar
    85   109   107   ar
    86    31    28    1
    87    31    33    1
    88   111   110   ar
    89   106   107   ar
    90   106   104   ar
    91   107   105   ar
    92    28    29    1
    93   110   108   ar
    94    71    72   ar
    95    71    70    1
    96   105   108   ar
    97   105   103   ar
    98   104   103   ar
    99    74    72   ar
   100   103   102    1
   101    29    30    2
   102    70    67    1
   103   102    99    1
   104    66    67    1
   105    67    68    1
   106    69    68    2
   107    99    98    1
   108    99   100    1
   109   100   101    2
