@<TRIPOS>MOLECULE
tmp/3wl4B10.pdb
 86 85 0 0 0
SMALL
GASTEIGER

@<TRIPOS>ATOM
      1  N        -57.1900    6.8060   49.6890 N.3    19  LEU19      -0.1231
      2  CA       -56.2240    7.4240   48.7780 C.3    19  LEU19       0.1693
      3  C        -54.7890    7.0740   49.1160 C.2    19  LEU19       0.2592
      4  O        -53.8640    7.3320   48.3220 O.2    19  LEU19      -0.2718
      5  CB       -56.4420    8.9550   48.8320 C.3    19  LEU19       0.0284
      6  CG       -57.7990    9.4410   48.4620 C.3    19  LEU19       0.0019
      7  CD1      -57.9030   10.9320   48.7120 C.3    19  LEU19       0.0001
      8  CD2      -58.1260    9.0890   46.9650 C.3    19  LEU19       0.0001
      9  N        -54.5770    6.4480   50.2830 N.am   20  GLU20      -0.1966
     10  CA       -53.2500    5.9500   50.7270 C.3    20  GLU20       0.1733
     11  C        -52.2510    7.0580   50.6210 C.2    20  GLU20       0.2616
     12  O        -51.0860    6.8750   50.1040 O.2    20  GLU20      -0.2715
     13  CB       -52.8420    4.7040   49.8810 C.3    20  GLU20       0.0429
     14  CG       -53.7270    3.5300   50.2950 C.3    20  GLU20       0.1163
     15  CD       -53.4580    2.1880   49.5230 C.2    20  GLU20       0.3649
     16  OE1      -52.4260    1.9840   48.8650 O.co2  20  GLU20      -0.2457
     17  OE2      -54.3340    1.3350   49.5760 O.co2  20  GLU20      -0.2457
     18  N        -52.6640    8.2260   51.0930 N.am   21  PHE21      -0.1960
     19  CA       -51.8110    9.4060   50.9260 C.3    21  PHE21       0.1771
     20  C        -50.8640    9.5490   52.1470 C.2    21  PHE21       0.2619
     21  O        -51.3120    9.5550   53.2400 O.2    21  PHE21      -0.2715
     22  CB       -52.7060   10.6490   50.8700 C.3    21  PHE21       0.0574
     23  CG       -51.9300   11.9300   50.6360 C.ar   21  PHE21      -0.0200
     24  CD1      -51.2280   12.1110   49.3970 C.ar   21  PHE21      -0.0042
     25  CD2      -51.9380   12.8520   51.6380 C.ar   21  PHE21      -0.0042
     26  CE1      -50.4960   13.3900   49.3340 C.ar   21  PHE21      -0.0003
     27  CE2      -51.2040   14.1260   51.4900 C.ar   21  PHE21      -0.0003
     28  CZ       -50.5860   14.2810   50.2980 C.ar   21  PHE21      -0.0000
     29  N        -49.5980    9.6990   51.9370 N.am   22  ASN22      -0.1972
     30  CA       -48.8130   10.2970   53.0300 C.3    22  ASN22       0.1688
     31  C        -47.5890   11.0050   52.4860 C.2    22  ASN22       0.2292
     32  O        -47.1790   10.7950   51.3630 O.2    22  ASN22      -0.2864
     33  CB       -48.5030    9.4070   54.2780 C.3    22  ASN22       0.1181
     34  CG       -47.4750    8.3590   53.9640 C.2    22  ASN22       0.2629
     35  OD1      -47.7990    7.3330   53.3580 O.2    22  ASN22      -0.2716
     36  ND2      -46.2390    8.6080   54.3130 N.am   22  ASN22      -0.0877
     37  N        -42.4370   11.1740   50.0450 N.3    26  PRO26      -0.2116
     38  CA       -43.1420   11.0390   48.7760 C.3    26  PRO26       0.1372
     39  C        -42.2950   10.7170   47.5430 C.2    26  PRO26       0.2244
     40  O        -42.8920   10.2330   46.5530 O.2    26  PRO26      -0.2868
     41  CB       -43.8830   12.3600   48.6230 C.3    26  PRO26       0.0268
     42  CG       -43.0710   13.3530   49.4120 C.3    26  PRO26       0.0207
     43  CD       -42.4990   12.5600   50.5480 C.3    26  PRO26       0.0892
     44  N        -47.0910    8.7510   38.8610 N.3   181  SER181     -0.1202
     45  CA       -47.4270    8.4530   40.2630 C.3   181  SER181      0.2020
     46  C        -47.5750    9.6400   41.2170 C.2   181  SER181      0.2618
     47  O        -48.4340    9.5790   42.0950 O.2   181  SER181     -0.2717
     48  CB       -46.3680    7.5270   40.8960 C.3   181  SER181      0.2103
     49  OG       -46.4140    6.2760   40.1190 O.3   181  SER181     -0.2182
     50  N        -46.7620   10.7140   41.0130 N.am  182  PHE182     -0.1975
     51  CA       -47.0230   11.8880   41.8740 C.3   182  PHE182      0.1639
     52  C        -46.6590   13.1190   41.0430 C.2   182  PHE182      0.2290
     53  O        -45.7900   13.1140   40.1580 O.2   182  PHE182     -0.2864
     54  CB       -46.1320   11.8640   43.2180 C.3   182  PHE182      0.0560
     55  CG       -44.6640   11.9630   42.9670 C.ar  182  PHE182     -0.0200
     56  CD1      -43.9550   13.2310   42.9490 C.ar  182  PHE182     -0.0042
     57  CD2      -43.8760   10.8060   42.8220 C.ar  182  PHE182     -0.0042
     58  CE1      -42.5710   13.3150   42.7000 C.ar  182  PHE182     -0.0003
     59  CE2      -42.4760   10.9400   42.6130 C.ar  182  PHE182     -0.0003
     60  CZ       -41.8460   12.1610   42.5950 C.ar  182  PHE182     -0.0000
     61  N        -47.6290   18.5210   47.6650 N.3   246  VAL246     -0.1245
     62  CA       -48.0980   17.2500   47.1110 C.3   246  VAL246      0.1561
     63  C        -49.5080   16.9510   47.5840 C.2   246  VAL246      0.2260
     64  O        -49.8270   17.1950   48.7880 O.2   246  VAL246     -0.2867
     65  CB       -47.1560   16.1070   47.5630 C.3   246  VAL246      0.0252
     66  CG1      -47.5750   14.7520   46.9360 C.3   246  VAL246      0.0019
     67  CG2      -45.7150   16.4240   47.1120 C.3   246  VAL246      0.0019
     68  N        -53.1320   14.1690   46.8400 N.3   247  PRO247     -0.2102
     69  CA       -53.7080   13.0580   46.0890 C.3   247  PRO247      0.1504
     70  C        -54.2700   13.6670   44.7600 C.2   247  PRO247      0.2576
     71  O        -54.7720   14.8340   44.7000 O.2   247  PRO247     -0.2718
     72  CB       -54.9610   12.6660   46.9210 C.3   247  PRO247      0.0282
     73  CG       -54.6680   13.0940   48.3150 C.3   247  PRO247      0.0208
     74  CD       -53.8520   14.3870   48.1000 C.3   247  PRO247      0.0893
     75  N        -54.2500   12.8380   43.7420 N.am  248  GLY248     -0.1943
     76  CA       -54.7130   13.3100   42.3870 C.3   248  GLY248      0.2014
     77  C        -56.1370   13.7900   42.5150 C.2   248  GLY248      0.2638
     78  O        -56.5230   14.8060   41.8480 O.2   248  GLY248     -0.2714
     79  N        -57.0150   13.1200   43.3310 N.am  249  LEU249     -0.1977
     80  CA       -58.3610   13.5280   43.4570 C.3   249  LEU249      0.1596
     81  C        -58.5160   14.9670   43.8770 C.2   249  LEU249      0.2287
     82  O        -59.4870   15.6620   43.5080 O.2   249  LEU249     -0.2864
     83  CB       -59.0260   12.6120   44.5530 C.3   249  LEU249      0.0297
     84  CG       -60.4750   12.6220   44.6910 C.3   249  LEU249      0.0022
     85  CD1      -61.1270   11.7980   43.5950 C.3   249  LEU249      0.0001
     86  CD2      -60.7960   11.7170   46.0140 C.3   249  LEU249      0.0001
@<TRIPOS>BOND
     1    44    45    1
     2    49    48    1
     3    53    52    2
     4    45    48    1
     5    45    46    1
     6    50    46   am
     7    50    51    1
     8    52    51    1
     9    46    47    2
    10    78    77    2
    11    51    54    1
    12    76    77    1
    13    76    75    1
    14    77    79   am
    15    60    59   ar
    16    60    58   ar
    17    59    57   ar
    18    58    56   ar
    19    57    55   ar
    20    56    55   ar
    21    55    54    1
    22    79    80    1
    23    80    81    1
    24    80    83    1
    25    82    81    2
    26    85    84    1
    27    75    70   am
    28    83    84    1
    29    84    86    1
    30    71    70    2
    31    70    69    1
    32    69    68    1
    33    69    72    1
    34    40    39    2
    35    68    74    1
    36    72    73    1
    37    66    65    1
    38     8     6    1
    39    62    65    1
    40    62    63    1
    41    62    61    1
    42    67    65    1
    43    39    38    1
    44    63    64    2
    45    74    73    1
    46     4     3    2
    47     6     7    1
    48     6     5    1
    49    41    38    1
    50    41    42    1
    51    38    37    1
    52     2     5    1
    53     2     3    1
    54     2     1    1
    55    16    15   ar
    56     3     9   am
    57    26    24   ar
    58    26    28   ar
    59    24    23   ar
    60    42    43    1
    61    15    17   ar
    62    15    14    1
    63    13    14    1
    64    13    10    1
    65    37    43    1
    66    12    11    2
    67     9    10    1
    68    28    27   ar
    69    11    10    1
    70    11    18   am
    71    23    22    1
    72    23    25   ar
    73    22    19    1
    74    19    18    1
    75    19    20    1
    76    32    31    2
    77    27    25   ar
    78    29    20   am
    79    29    30    1
    80    20    21    2
    81    31    30    1
    82    30    33    1
    83    35    34    2
    84    34    33    1
    85    34    36   am
