@<TRIPOS>MOLECULE
tmp/3wl4B07.pdb
 105 102 0 0 0
SMALL
GASTEIGER

@<TRIPOS>ATOM
      1  N        -33.3630   27.1770   40.4780 N.3    45  ILE45      -0.1231
      2  CA       -33.7920   28.1520   41.5460 C.3    45  ILE45       0.1692
      3  C        -34.8010   27.5140   42.4520 C.2    45  ILE45       0.2592
      4  O        -34.7750   27.5820   43.6900 O.2    45  ILE45      -0.2718
      5  CB       -34.2640   29.4360   40.9580 C.3    45  ILE45       0.0266
      6  CG1      -33.1570   30.1700   40.1930 C.3    45  ILE45       0.0019
      7  CG2      -34.9810   30.3210   42.0670 C.3    45  ILE45       0.0020
      8  CD1      -33.6580   31.3020   39.3140 C.3    45  ILE45       0.0001
      9  N        -35.8180   26.8660   41.8010 N.am   46  GLY46      -0.1957
     10  CA       -36.9080   26.3620   42.6950 C.3    46  GLY46       0.1869
     11  C        -36.5790   25.1140   43.4770 C.2    46  GLY46       0.2309
     12  O        -37.0990   24.8700   44.5660 O.2    46  GLY46      -0.2863
     13  N        -41.9850   26.3600   44.0290 N.3   187  TYR187     -0.1241
     14  CA       -42.4120   27.7540   44.0680 C.3   187  TYR187      0.1605
     15  C        -43.7670   27.8860   44.7180 C.2   187  TYR187      0.2264
     16  O        -44.6970   28.5290   44.1290 O.2   187  TYR187     -0.2867
     17  CB       -42.3800   28.4410   42.6640 C.3   187  TYR187      0.0534
     18  CG       -41.0770   28.6280   41.9470 C.ar  187  TYR187     -0.0201
     19  CD1      -39.9500   29.0710   42.6420 C.ar  187  TYR187     -0.0009
     20  CD2      -40.9920   28.5840   40.5770 C.ar  187  TYR187     -0.0009
     21  CE1      -38.7920   29.3840   41.9960 C.ar  187  TYR187      0.0417
     22  CE2      -39.8480   28.9150   39.8590 C.ar  187  TYR187      0.0417
     23  CZ       -38.7300   29.3530   40.6290 C.ar  187  TYR187      0.1957
     24  OH       -37.6410   29.7590   39.9170 O.3   187  TYR187     -0.2866
     25  N        -26.1930   24.4880   45.2320 N.3   203  LYS203     -0.1301
     26  CA       -27.3970   25.0800   44.5630 C.3   203  LYS203      0.1247
     27  C        -27.0710   26.4230   44.0930 C.3   203  LYS203      0.2009
     28  O        -27.4070   26.8380   42.9180 O.3   203  LYS203     -0.2188
     29  CB       -28.5310   25.1160   45.6000 C.3   203  LYS203      0.0218
     30  CG       -29.7680   25.9220   45.0310 C.3   203  LYS203      0.0031
     31  CD       -30.9350   25.8180   46.0030 C.3   203  LYS203      0.0205
     32  CE       -32.0530   26.6020   45.2400 C.3   203  LYS203      0.1093
     33  NZ       -33.3660   26.3100   45.8420 N.3   203  LYS203     -0.1314
     34  N        -30.3430   39.0350   44.6370 N.3   222  TRP222     -0.1241
     35  CA       -30.7950   37.6240   44.5590 C.3   222  TRP222      0.1605
     36  C        -30.2610   36.6380   45.5560 C.2   222  TRP222      0.2264
     37  O        -30.9310   35.7250   46.0380 O.2   222  TRP222     -0.2867
     38  CB       -30.6820   37.0820   43.1060 C.3   222  TRP222      0.0550
     39  CG       -31.9240   37.6050   42.4010 C.ar  222  TRP222      0.0003
     40  CD1      -32.1650   38.9500   41.9880 C.ar  222  TRP222      0.0946
     41  CD2      -33.0600   36.8590   41.9770 C.ar  222  TRP222      0.0152
     42  NE1      -33.4680   39.0780   41.4290 N.ar  222  TRP222     -0.2442
     43  CE2      -34.0250   37.8190   41.4670 C.ar  222  TRP222      0.0810
     44  CE3      -33.4160   35.5230   42.1480 C.ar  222  TRP222      0.0012
     45  CZ2      -35.3190   37.3930   40.9370 C.ar  222  TRP222      0.0191
     46  CZ3      -34.6630   35.0960   41.5830 C.ar  222  TRP222      0.0001
     47  CH2      -35.6110   36.0370   41.0580 C.ar  222  TRP222      0.0015
     48  N        -32.3610   37.1940   48.5880 N.3   225  PHE225     -0.1227
     49  CA       -33.7080   36.5960   48.3190 C.3   225  PHE225      0.1736
     50  C        -33.7190   35.0960   48.4120 C.2   225  PHE225      0.2595
     51  O        -34.5730   34.5470   49.1440 O.2   225  PHE225     -0.2718
     52  CB       -34.1530   37.1250   46.9290 C.3   225  PHE225      0.0547
     53  CG       -35.5360   36.5320   46.5120 C.ar  225  PHE225     -0.0202
     54  CD1      -36.6490   36.7850   47.2380 C.ar  225  PHE225     -0.0042
     55  CD2      -35.5690   35.8620   45.3670 C.ar  225  PHE225     -0.0042
     56  CE1      -37.9700   36.2630   46.8050 C.ar  225  PHE225     -0.0003
     57  CE2      -36.8270   35.3460   44.9190 C.ar  225  PHE225     -0.0003
     58  CZ       -37.9800   35.6000   45.6280 C.ar  225  PHE225     -0.0000
     59  N        -32.7540   34.4710   47.7440 N.am  226  LEU226     -0.1980
     60  CA       -32.7300   33.0230   47.7300 C.3   226  LEU226      0.1596
     61  C        -32.4870   32.4650   49.1140 C.2   226  LEU226      0.2287
     62  O        -33.0770   31.4650   49.5470 O.2   226  LEU226     -0.2864
     63  CB       -31.6100   32.4910   46.8150 C.3   226  LEU226      0.0297
     64  CG       -31.9170   32.8720   45.3290 C.3   226  LEU226      0.0022
     65  CD1      -30.5850   32.6060   44.5040 C.3   226  LEU226      0.0001
     66  CD2      -33.0270   32.0060   44.8170 C.3   226  LEU226      0.0001
     67  N        -35.7590   32.7590   51.0440 N.3   229  VAL229     -0.1231
     68  CA       -36.7470   31.7240   50.6720 C.3   229  VAL229      0.1692
     69  C        -36.3930   30.3940   51.2570 C.2   229  VAL229      0.2592
     70  O        -37.2650   29.6440   51.7170 O.2   229  VAL229     -0.2718
     71  CB       -36.8450   31.7470   49.1280 C.3   229  VAL229      0.0266
     72  CG1      -37.6930   30.4960   48.6740 C.3   229  VAL229      0.0020
     73  CG2      -37.4560   33.0170   48.5710 C.3   229  VAL229      0.0020
     74  N        -35.1130   30.0160   51.1750 N.am  230  THR230     -0.1953
     75  CA       -34.7440   28.6560   51.7120 C.3   230  THR230      0.1897
     76  C        -34.8680   28.6000   53.2670 C.2   230  THR230      0.2313
     77  O        -35.1780   27.5770   53.7820 O.2   230  THR230     -0.2863
     78  CB       -33.2830   28.2440   51.3060 C.3   230  THR230      0.1794
     79  OG1      -32.4050   29.2610   51.6820 O.3   230  THR230     -0.2208
     80  CG2      -33.2680   28.4200   49.7420 C.3   230  THR230      0.0378
     81  N        -38.6320   27.9700   54.0110 N.3   232  TYR232     -0.1241
     82  CA       -38.9350   26.5470   53.9840 C.3   232  TYR232      0.1605
     83  C        -38.2790   25.7310   55.0830 C.2   232  TYR232      0.2264
     84  O        -38.9380   24.9280   55.7610 O.2   232  TYR232     -0.2867
     85  CB       -38.6300   25.9230   52.6010 C.3   232  TYR232      0.0534
     86  CG       -39.4560   26.4970   51.4730 C.ar  232  TYR232     -0.0201
     87  CD1      -40.8440   26.3930   51.5420 C.ar  232  TYR232     -0.0009
     88  CD2      -38.8440   27.0330   50.4150 C.ar  232  TYR232     -0.0009
     89  CE1      -41.6050   26.9230   50.4370 C.ar  232  TYR232      0.0417
     90  CE2      -39.5800   27.5580   49.3090 C.ar  232  TYR232      0.0417
     91  CZ       -40.9590   27.4320   49.3900 C.ar  232  TYR232      0.1957
     92  OH       -41.7040   27.9680   48.2880 O.3   232  TYR232     -0.2866
     93  N        -34.1940   24.8850   53.3900 N.3   241  GLY241     -0.1210
     94  CA       -35.1420   23.8530   52.8860 C.3   241  GLY241      0.1956
     95  C        -35.6730   24.2520   51.4900 C.2   241  GLY241      0.2611
     96  O        -35.6110   25.3880   51.0850 O.2   241  GLY241     -0.2717
     97  N        -36.1010   23.2130   50.7670 N.am  242  GLU242     -0.1979
     98  CA       -36.9340   23.4620   49.5350 C.3   242  GLU242      0.1602
     99  C        -38.3030   22.8460   49.8000 C.2   242  GLU242      0.2287
    100  O        -38.4320   21.7490   50.2450 O.2   242  GLU242     -0.2864
    101  CB       -36.2650   22.7640   48.3380 C.3   242  GLU242      0.0415
    102  CG       -35.1110   23.6670   47.8390 C.3   242  GLU242      0.1163
    103  CD       -34.2670   22.9230   46.7610 C.2   242  GLU242      0.3649
    104  OE1      -34.5220   21.7730   46.4550 O.co2 242  GLU242     -0.2457
    105  OE2      -33.4090   23.6270   46.2110 O.co2 242  GLU242     -0.2457
@<TRIPOS>BOND
     1     8     6    1
     2    22    20   ar
     3    22    23   ar
     4    24    23    1
     5     6     5    1
     6     1     2    1
     7    20    18   ar
     8    23    21   ar
     9    45    47   ar
    10    45    43   ar
    11     5     2    1
    12     5     7    1
    13    47    46   ar
    14    42    43   ar
    15    42    40   ar
    16    43    41   ar
    17     2     3    1
    18    46    44   ar
    19     9     3   am
    20     9    10    1
    21    18    19   ar
    22    18    17    1
    23    41    44   ar
    24    41    39   ar
    25    40    39   ar
    26    21    19   ar
    27    39    38    1
    28     3     4    2
    29    17    14    1
    30    10    11    1
    31    28    27    1
    32    38    35    1
    33    11    12    2
    34    13    14    1
    35    14    15    1
    36    27    26    1
    37    16    15    2
    38    65    64    1
    39    35    34    1
    40    35    36    1
    41    26    25    1
    42    26    29    1
    43    66    64    1
    44    57    55   ar
    45    57    58   ar
    46    30    29    1
    47    30    31    1
    48    32    33    1
    49    32    31    1
    50    64    63    1
    51    55    53   ar
    52    36    37    2
    53    58    56   ar
    54   105   103   ar
    55   104   103   ar
    56    53    52    1
    57    53    54   ar
    58   103   102    1
    59    56    54   ar
    60    63    60    1
    61    52    49    1
    62    60    59    1
    63    60    61    1
    64    59    50   am
    65   102   101    1
    66    92    91    1
    67    49    50    1
    68    49    48    1
    69   101    98    1
    70    50    51    2
    71    73    71    1
    72    72    71    1
    73    61    62    2
    74    71    68    1
    75    90    91   ar
    76    90    88   ar
    77    91    89   ar
    78    98    99    1
    79    98    97    1
    80    80    78    1
    81    99   100    2
    82    88    86   ar
    83    89    87   ar
    84    68    67    1
    85    68    69    1
    86    97    95   am
    87    96    95    2
    88    74    69   am
    89    74    75    1
    90    69    70    2
    91    78    79    1
    92    78    75    1
    93    86    87   ar
    94    86    85    1
    95    95    94    1
    96    75    76    1
    97    85    82    1
    98    94    93    1
    99    76    77    2
   100    82    81    1
   101    82    83    1
   102    83    84    2
