@<TRIPOS>MOLECULE
tmp/3wl6B00.pdb
 103 101 0 0 0
SMALL
GASTEIGER

@<TRIPOS>ATOM
      1  N         -6.2420    9.1780  -24.5210 N.3    47  GLY47      -0.1210
      2  CA        -6.8350    9.8010  -25.6910 C.3    47  GLY47       0.1956
      3  C         -6.2280   11.1630  -26.0280 C.2    47  GLY47       0.2613
      4  O         -5.0100   11.3310  -25.9600 O.2    47  GLY47      -0.2717
      5  N         -7.0640   12.1470  -26.3510 N.am   48  SER48      -0.1938
      6  CA        -6.5620   13.4580  -26.7450 C.3    48  SER48       0.2055
      7  C         -6.3670   14.4500  -25.6220 C.2    48  SER48       0.2643
      8  O         -5.5040   15.3180  -25.6990 O.2    48  SER48      -0.2714
      9  CB        -7.5340   14.1020  -27.7410 C.3    48  SER48       0.2130
     10  OG        -7.9060   13.2020  -28.7850 O.3    48  SER48      -0.2179
     11  N         -7.1570   14.2840  -24.5690 N.am   49  VAL49      -0.1963
     12  CA        -7.1960   15.2150  -23.4630 C.3    49  VAL49       0.1727
     13  C         -6.6790   14.7710  -22.0940 C.2    49  VAL49       0.2616
     14  O         -6.2540   15.6010  -21.3060 O.2    49  VAL49      -0.2715
     15  CB        -8.6500   15.6990  -23.4230 C.3    49  VAL49       0.0290
     16  CG1       -9.1630   15.8380  -22.0240 C.3    49  VAL49       0.0023
     17  CG2       -8.7800   16.9360  -24.3070 C.3    49  VAL49       0.0023
     18  N         -6.6810   13.4780  -21.7950 N.am   50  GLU50      -0.1977
     19  CA        -6.1640   13.0160  -20.5110 C.3    50  GLU50       0.1602
     20  C         -4.7000   12.6540  -20.6800 C.2    50  GLU50       0.2287
     21  O         -4.3030   12.1890  -21.7460 O.2    50  GLU50      -0.2864
     22  CB        -6.9160   11.7740  -20.0470 C.3    50  GLU50       0.0415
     23  CG        -8.3980   12.0310  -19.8360 C.3    50  GLU50       0.1163
     24  CD        -9.2150   10.7380  -19.8270 C.2    50  GLU50       0.3649
     25  OE1       -9.1950   10.0240  -20.8540 O.co2  50  GLU50      -0.2457
     26  OE2       -9.8820   10.4380  -18.8130 O.co2  50  GLU50      -0.2457
     27  N        -11.2700    8.0330  -12.6260 N.3    60  ARG60      -0.1245
     28  CA       -12.2040    8.3420  -13.7030 C.3    60  ARG60       0.1563
     29  C        -11.6130    8.2440  -15.0780 C.2    60  ARG60       0.2260
     30  O        -12.3430    8.3000  -16.0490 O.2    60  ARG60      -0.2867
     31  CB       -12.8480    9.7340  -13.5490 C.3    60  ARG60       0.0307
     32  CG       -11.9010   10.8730  -13.4590 C.3    60  ARG60       0.0489
     33  CD       -12.6060   12.1310  -13.9820 C.3    60  ARG60       0.2205
     34  NE       -12.5490   12.1020  -15.4400 N.pl3  60  ARG60      -0.0865
     35  CZ       -13.5420   12.4210  -16.2610 C.cat  60  ARG60       0.5346
     36  NH1      -14.7220   12.8100  -15.7750 N.pl3  60  ARG60       0.1354
     37  NH2      -13.3540   12.3220  -17.5790 N.pl3  60  ARG60       0.1354
     38  N         -4.0640   17.8640  -28.3200 N.3    94  ASN94      -0.1240
     39  CA        -5.4520   17.8130  -28.7320 C.3    94  ASN94       0.1653
     40  C         -5.7740   18.7200  -29.9150 C.2    94  ASN94       0.2266
     41  O         -6.2280   19.8530  -29.7370 O.2    94  ASN94      -0.2867
     42  CB        -6.3420   18.1510  -27.5310 C.3    94  ASN94       0.1155
     43  CG        -7.8230   18.0970  -27.8600 C.2    94  ASN94       0.2627
     44  OD1       -8.2610   17.3540  -28.7420 O.2    94  ASN94      -0.2716
     45  ND2       -8.6080   18.8950  -27.1390 N.am   94  ASN94      -0.0877
     46  N         -8.7050    4.6340  -25.1170 N.3   153  ILE153     -0.1231
     47  CA        -9.9480    5.3770  -25.2070 C.3   153  ILE153      0.1692
     48  C         -9.8610    6.5020  -26.2380 C.2   153  ILE153      0.2592
     49  O         -8.8220    7.1460  -26.3730 O.2   153  ILE153     -0.2718
     50  CB       -10.2700    5.9840  -23.8020 C.3   153  ILE153      0.0266
     51  CG1      -11.5570    6.8250  -23.8360 C.3   153  ILE153      0.0019
     52  CG2       -9.1100    6.9060  -23.3670 C.3   153  ILE153      0.0020
     53  CD1      -12.8140    6.0460  -24.1280 C.3   153  ILE153      0.0001
     54  N        -10.9260    6.6630  -27.0280 N.am  154  SER154     -0.1952
     55  CA       -11.0040    7.7480  -27.9860 C.3   154  SER154      0.1924
     56  C         -9.8820    7.6570  -28.9950 C.2   154  SER154      0.2314
     57  O         -9.8040    6.6550  -29.6830 O.2   154  SER154     -0.2863
     58  CB       -10.9950    9.0770  -27.2310 C.3   154  SER154      0.2116
     59  OG       -11.3830   10.1250  -28.0980 O.3   154  SER154     -0.2180
     60  N        -19.3360    7.8170  -32.2880 N.3   241  TYR241     -0.1241
     61  CA       -18.6780    6.5180  -32.2270 C.3   241  TYR241      0.1605
     62  C        -19.5560    5.3170  -32.4970 C.2   241  TYR241      0.2264
     63  O        -19.0990    4.1970  -32.5140 O.2   241  TYR241     -0.2867
     64  CB       -17.8970    6.4230  -30.9140 C.3   241  TYR241      0.0534
     65  CG       -16.9090    7.5560  -30.8550 C.ar  241  TYR241     -0.0201
     66  CD1      -17.2450    8.7720  -30.2810 C.ar  241  TYR241     -0.0009
     67  CD2      -15.6500    7.4350  -31.4530 C.ar  241  TYR241     -0.0009
     68  CE1      -16.3680    9.8510  -30.3040 C.ar  241  TYR241      0.0417
     69  CE2      -14.7450    8.5280  -31.4730 C.ar  241  TYR241      0.0417
     70  CZ       -15.1140    9.7140  -30.8990 C.ar  241  TYR241      0.1957
     71  OH       -14.2190   10.7630  -30.8610 O.3   241  TYR241     -0.2866
     72  N        -18.6220    9.2270  -23.7930 N.3   269  HIS269     -0.1226
     73  CA       -17.3190    9.1790  -24.4380 C.3   269  HIS269      0.1752
     74  C        -16.2100    9.4840  -23.4540 C.2   269  HIS269      0.2596
     75  O        -15.7630   10.6180  -23.3300 O.2   269  HIS269     -0.2718
     76  CB       -17.2640   10.1690  -25.5990 C.3   269  HIS269      0.0759
     77  CG       -16.0620    9.9730  -26.4720 C.ar  269  HIS269      0.0818
     78  ND1      -15.8750    8.8270  -27.2150 N.ar  269  HIS269     -0.2268
     79  CD2      -14.9740   10.7450  -26.6800 C.ar  269  HIS269      0.1154
     80  CE1      -14.7150    8.9060  -27.8500 C.ar  269  HIS269      0.1986
     81  NE2      -14.1510   10.0600  -27.5410 N.ar  269  HIS269     -0.2212
     82  N        -15.7610    8.4480  -22.7670 N.am  270  MET270     -0.1965
     83  CA       -14.7210    8.5610  -21.7450 C.3   270  MET270      0.1736
     84  C        -14.4090    7.1330  -21.2960 C.2   270  MET270      0.2616
     85  O        -15.0330    6.1870  -21.7610 O.2   270  MET270     -0.2715
     86  CB       -15.2210    9.3970  -20.5540 C.3   270  MET270      0.0427
     87  CG       -16.4590    8.8620  -19.8710 C.3   270  MET270      0.0599
     88  SD       -17.2920   10.0970  -18.7890 S.3   270  MET270     -0.1393
     89  CE       -16.0910   10.7310  -17.9860 C.3   270  MET270      0.0692
     90  N        -13.4440    6.9580  -20.4050 N.am  271  TRP271     -0.1974
     91  CA       -13.1560    5.5950  -19.9780 C.3   271  TRP271      0.1640
     92  C        -14.3900    5.0380  -19.2900 C.2   271  TRP271      0.2290
     93  O        -15.0760    5.7690  -18.5860 O.2   271  TRP271     -0.2864
     94  CB       -12.0090    5.5780  -18.9750 C.3   271  TRP271      0.0576
     95  CG       -11.4290    4.1860  -18.8650 C.ar  271  TRP271      0.0006
     96  CD1      -11.8520    3.1780  -18.0430 C.ar  271  TRP271      0.0946
     97  CD2      -10.3850    3.6380  -19.6870 C.ar  271  TRP271      0.0152
     98  NE1      -11.1400    2.0330  -18.3090 N.ar  271  TRP271     -0.2442
     99  CE2      -10.2350    2.2920  -19.3160 C.ar  271  TRP271      0.0810
    100  CE3       -9.5670    4.1660  -20.7080 C.ar  271  TRP271      0.0012
    101  CZ2       -9.2990    1.4460  -19.9270 C.ar  271  TRP271      0.0191
    102  CZ3       -8.6320    3.3270  -21.3260 C.ar  271  TRP271      0.0001
    103  CH2       -8.5120    1.9710  -20.9260 C.ar  271  TRP271      0.0015
@<TRIPOS>BOND
     1    63    62    2
     2    62    61    1
     3    60    61    1
     4    61    64    1
     5    69    67   ar
     6    69    70   ar
     7    67    65   ar
     8    64    65    1
     9    70    71    1
    10    70    68   ar
    11    65    66   ar
    12    68    66   ar
    13    40    41    2
    14    40    39    1
    15    57    56    2
    16    56    55    1
    17    10     9    1
    18    44    43    2
    19    39    38    1
    20    39    42    1
    21    59    58    1
    22    55    58    1
    23    55    54    1
    24    43    42    1
    25    43    45   am
    26    80    81   ar
    27    80    78   ar
    28     9     6    1
    29    81    79   ar
    30    78    77   ar
    31    54    48   am
    32     6     5    1
    33     6     7    1
    34    79    77   ar
    35    77    76    1
    36    49    48    2
    37     5     3   am
    38    48    47    1
    39     3     4    2
    40     3     2    1
    41     8     7    2
    42     2     1    1
    43     7    11   am
    44    76    73    1
    45    47    46    1
    46    47    50    1
    47    11    12    1
    48    73    72    1
    49    73    74    1
    50    17    15    1
    51    53    51    1
    52    51    50    1
    53    50    52    1
    54    12    15    1
    55    12    13    1
    56    74    75    2
    57    74    82   am
    58    15    16    1
    59    82    83    1
    60    13    18   am
    61    13    14    2
    62    18    19    1
    63    85    84    2
    64    21    20    2
    65    83    84    1
    66    83    86    1
    67   102   103   ar
    68   102   100   ar
    69    84    90   am
    70   103   101   ar
    71    25    24   ar
    72   100    97   ar
    73    20    19    1
    74    86    87    1
    75    19    22    1
    76    90    91    1
    77    22    23    1
    78    91    92    1
    79    91    94    1
    80   101    99   ar
    81    87    88    1
    82    23    24    1
    83    24    26   ar
    84    97    99   ar
    85    97    95   ar
    86    99    98   ar
    87    92    93    2
    88    94    95    1
    89    95    96   ar
    90    88    89    1
    91    98    96   ar
    92    37    35    1
    93    35    36    1
    94    35    34    2
    95    30    29    2
    96    34    33    1
    97    29    28    1
    98    33    32    1
    99    28    31    1
   100    28    27    1
   101    31    32    1
