@<TRIPOS>MOLECULE
tmp/3wl7A00.pdb
 124 120 0 0 0
SMALL
GASTEIGER

@<TRIPOS>ATOM
      1  N         19.2130   36.8130   43.2310 N.3    49  SER49      -0.1217
      2  CA        17.8030   36.4220   43.0660 C.3    49  SER49       0.1889
      3  C         16.8000   37.4900   43.2730 C.2    49  SER49       0.2288
      4  O         15.7930   37.5400   42.5290 O.2    49  SER49      -0.2866
      5  CB        17.5100   35.2510   44.0250 C.3    49  SER49       0.2089
      6  OG        18.3050   34.1230   43.6740 O.3    49  SER49      -0.2183
      7  N         18.1300   24.9450   36.8150 N.3   103  ASN103     -0.1225
      8  CA        17.8050   24.8340   38.2180 C.3   103  ASN103      0.1785
      9  C         17.1200   26.0330   38.9110 C.2   103  ASN103      0.2597
     10  O         16.1720   25.8660   39.7400 O.2   103  ASN103     -0.2718
     11  CB        19.0610   24.5030   39.0280 C.3   103  ASN103      0.1169
     12  CG        18.7120   24.1890   40.4860 C.2   103  ASN103      0.2627
     13  OD1       18.1020   23.1590   40.7390 O.2   103  ASN103     -0.2716
     14  ND2       19.0610   25.0560   41.3960 N.am  103  ASN103     -0.0877
     15  N         17.5840   27.2240   38.5740 N.am  104  TRP104     -0.1976
     16  CA        17.1760   28.4400   39.3030 C.3   104  TRP104      0.1640
     17  C         16.9620   29.5380   38.2410 C.2   104  TRP104      0.2290
     18  O         17.8060   29.7150   37.3460 O.2   104  TRP104     -0.2864
     19  CB        18.3310   28.7610   40.2760 C.3   104  TRP104      0.0576
     20  CG        17.8920   29.6510   41.4050 C.ar  104  TRP104      0.0006
     21  CD1       18.3730   30.8780   41.7130 C.ar  104  TRP104      0.0946
     22  CD2       16.8140   29.3920   42.3090 C.ar  104  TRP104      0.0152
     23  NE1       17.6470   31.4300   42.7610 N.ar  104  TRP104     -0.2442
     24  CE2       16.6820   30.5310   43.1430 C.ar  104  TRP104      0.0810
     25  CE3       15.9520   28.3000   42.4980 C.ar  104  TRP104      0.0012
     26  CZ2       15.7080   30.6170   44.1610 C.ar  104  TRP104      0.0191
     27  CZ3       14.9810   28.3840   43.5120 C.ar  104  TRP104      0.0001
     28  CH2       14.8760   29.5340   44.3200 C.ar  104  TRP104      0.0015
     29  N         22.3290   29.1030   35.2180 N.3   109  GLU109     -0.1245
     30  CA        23.5440   28.8090   35.9510 C.3   109  GLU109      0.1567
     31  C         23.7400   27.3990   36.4840 C.2   109  GLU109      0.2260
     32  O         24.7410   27.1310   37.1750 O.2   109  GLU109     -0.2867
     33  CB        23.7130   29.8430   37.0940 C.3   109  GLU109      0.0388
     34  CG        22.4110   30.3410   37.8760 C.3   109  GLU109      0.1160
     35  CD        22.0260   29.4820   39.0750 C.2   109  GLU109      0.3649
     36  OE1       21.9320   28.2480   38.9180 O.co2 109  GLU109     -0.2457
     37  OE2       21.7640   30.0400   40.1920 O.co2 109  GLU109     -0.2457
     38  N         22.9100   33.8240   43.1710 N.3   155  SER155     -0.1217
     39  CA        22.7780   33.2080   41.8430 C.3   155  SER155      0.1889
     40  C         23.7780   33.7950   40.8410 C.2   155  SER155      0.2288
     41  O         24.1930   33.0830   39.9200 O.2   155  SER155     -0.2866
     42  CB        21.3100   33.3410   41.3560 C.3   155  SER155      0.2089
     43  OG        21.1000   32.6990   40.0980 O.3   155  SER155     -0.2183
     44  N         26.8170   31.8130   41.3500 N.3   158  THR158     -0.1218
     45  CA        26.6800   30.5000   40.7470 C.3   158  THR158      0.1862
     46  C         26.9380   30.6770   39.2440 C.2   158  THR158      0.2287
     47  O         27.6640   29.9010   38.6550 O.2   158  THR158     -0.2866
     48  CB        25.2890   29.9770   40.9380 C.3   158  THR158      0.1770
     49  OG1       25.0140   30.0630   42.3600 O.3   158  THR158     -0.2211
     50  CG2       25.1840   28.4750   40.5110 C.3   158  THR158      0.0375
     51  N         26.5580   28.8650   44.3320 N.3   180  GLU180     -0.1245
     52  CA        26.4170   27.4120   44.4740 C.3   180  GLU180      0.1567
     53  C         27.3570   26.6650   43.5320 C.2   180  GLU180      0.2260
     54  O         27.8760   27.2320   42.5190 O.2   180  GLU180     -0.2867
     55  CB        24.9740   27.0040   44.1410 C.3   180  GLU180      0.0388
     56  CG        24.0870   26.6790   45.4010 C.3   180  GLU180      0.1160
     57  CD        24.4480   25.3430   46.0660 C.2   180  GLU180      0.3649
     58  OE1       23.6330   24.9280   46.9530 O.co2 180  GLU180     -0.2457
     59  OE2       25.4990   24.6820   45.7700 O.co2 180  GLU180     -0.2457
     60  N         26.2210   23.0820   43.4370 N.3   182  TYR182     -0.1241
     61  CA        25.1920   22.0370   43.2260 C.3   182  TYR182      0.1605
     62  C         25.8860   20.6840   43.1660 C.2   182  TYR182      0.2264
     63  O         25.7530   19.9100   42.2030 O.2   182  TYR182     -0.2867
     64  CB        24.4160   22.2750   41.9460 C.3   182  TYR182      0.0534
     65  CG        23.6870   23.5910   41.8420 C.ar  182  TYR182     -0.0201
     66  CD1       22.7510   23.9800   42.8150 C.ar  182  TYR182     -0.0009
     67  CD2       23.8580   24.3990   40.6980 C.ar  182  TYR182     -0.0009
     68  CE1       21.9630   25.1660   42.6270 C.ar  182  TYR182      0.0417
     69  CE2       23.0770   25.5740   40.5020 C.ar  182  TYR182      0.0417
     70  CZ        22.1410   25.9290   41.4720 C.ar  182  TYR182      0.1957
     71  OH        21.3500   27.0480   41.2620 O.3   182  TYR182     -0.2866
     72  N         20.8910   30.3180   52.4690 N.3   237  TRP237     -0.1241
     73  CA        19.7320   30.9180   51.7880 C.3   237  TRP237      0.1605
     74  C         18.4940   30.1140   52.0910 C.2   237  TRP237      0.2264
     75  O         18.5330   28.8980   52.0830 O.2   237  TRP237     -0.2867
     76  CB        19.9390   30.9450   50.2340 C.3   237  TRP237      0.0550
     77  CG        18.7810   31.5800   49.4270 C.ar  237  TRP237      0.0003
     78  CD1       17.8890   30.9320   48.5970 C.ar  237  TRP237      0.0946
     79  CD2       18.4520   32.9780   49.3420 C.ar  237  TRP237      0.0152
     80  NE1       17.0420   31.8510   47.9940 N.ar  237  TRP237     -0.2442
     81  CE2       17.3650   33.1070   48.4400 C.ar  237  TRP237      0.0810
     82  CE3       18.9650   34.1250   49.9370 C.ar  237  TRP237      0.0012
     83  CZ2       16.7880   34.3550   48.1300 C.ar  237  TRP237      0.0191
     84  CZ3       18.3870   35.3730   49.6320 C.ar  237  TRP237      0.0001
     85  CH2       17.3170   35.4670   48.7420 C.ar  237  TRP237      0.0015
     86  N         14.7610   29.5320   50.8670 N.3   239  CYS239     -0.1235
     87  CA        13.8410   29.6280   49.7370 C.3   239  CYS239      0.1677
     88  C         12.4520   29.9840   50.2940 C.2   239  CYS239      0.2270
     89  O         12.2160   29.9730   51.5010 O.2   239  CYS239     -0.2867
     90  CB        13.7620   28.2710   49.0540 C.3   239  CYS239      0.0956
     91  SG        15.2050   27.9460   47.9320 S.3   239  CYS239     -0.0801
     92  N         17.5880   26.0880   51.8190 N.3   249  CYS249     -0.1221
     93  CA        17.7660   25.3590   50.5900 C.3   249  CYS249      0.1808
     94  C         19.1620   25.4700   50.0090 C.2   249  CYS249      0.2601
     95  O         19.4550   24.8430   48.9710 O.2   249  CYS249     -0.2717
     96  CB        16.7440   25.8020   49.5380 C.3   249  CYS249      0.0970
     97  SG        16.8270   27.5410   49.1730 S.3   249  CYS249     -0.0800
     98  N         20.0250   26.2730   50.6470 N.am  250  ALA250     -0.1979
     99  CA        21.4010   26.3610   50.1550 C.3   250  ALA250      0.1597
    100  C         22.3150   26.7540   51.3060 C.2   250  ALA250      0.2287
    101  O         21.9420   27.6080   52.1150 O.2   250  ALA250     -0.2864
    102  CB        21.5240   27.4010   49.0450 C.3   250  ALA250      0.0319
    103  N         26.3430   27.8880   51.7240 N.3   252  TYR252     -0.1241
    104  CA        27.5040   28.2190   50.8930 C.3   252  TYR252      0.1605
    105  C         28.8450   27.7600   51.3970 C.2   252  TYR252      0.2264
    106  O         29.8850   27.9520   50.7300 O.2   252  TYR252     -0.2867
    107  CB        27.4450   29.7240   50.5640 C.3   252  TYR252      0.0534
    108  CG        26.1700   29.9810   49.7970 C.ar  252  TYR252     -0.0201
    109  CD1       24.9680   30.2830   50.4640 C.ar  252  TYR252     -0.0009
    110  CD2       26.1300   29.8090   48.4230 C.ar  252  TYR252     -0.0009
    111  CE1       23.7610   30.3990   49.7790 C.ar  252  TYR252      0.0417
    112  CE2       24.9300   29.9120   47.7310 C.ar  252  TYR252      0.0417
    113  CZ        23.7580   30.2070   48.4080 C.ar  252  TYR252      0.1957
    114  OH        22.5460   30.3280   47.7560 O.3   252  TYR252     -0.2866
    115  N         24.9930   36.1380   53.7250 N.3   280  HIS280     -0.1241
    116  CA        24.6990   35.9150   52.3070 C.3   280  HIS280      0.1621
    117  C         24.1640   37.1850   51.6440 C.2   280  HIS280      0.2264
    118  O         22.9230   37.3940   51.4820 O.2   280  HIS280     -0.2867
    119  CB        23.6600   34.8110   52.1990 C.3   280  HIS280      0.0745
    120  CG        23.5470   34.2510   50.8230 C.ar  280  HIS280      0.0817
    121  ND1       24.6260   33.6950   50.1680 N.ar  280  HIS280     -0.2268
    122  CD2       22.5090   34.2210   49.9460 C.ar  280  HIS280      0.1154
    123  CE1       24.2590   33.3580   48.9350 C.ar  280  HIS280      0.1986
    124  NE2       22.9820   33.6690   48.7770 N.ar  280  HIS280     -0.2212
@<TRIPOS>BOND
     1    29    30    1
     2    30    31    1
     3    30    33    1
     4    31    32    2
     5     7     8    1
     6    33    34    1
     7    18    17    2
     8    34    35    1
     9     8     9    1
    10     8    11    1
    11    17    16    1
    12    15     9   am
    13    15    16    1
    14    47    46    2
    15     9    10    2
    16    36    35   ar
    17    11    12    1
    18    35    37   ar
    19    46    45    1
    20    16    19    1
    21    41    40    2
    22    43    42    1
    23    19    20    1
    24    12    13    2
    25    12    14   am
    26    69    67   ar
    27    69    70   ar
    28    50    48    1
    29    67    65   ar
    30    45    48    1
    31    45    44    1
    32    40    39    1
    33    48    49    1
    34    71    70    1
    35    42    39    1
    36    20    21   ar
    37    20    22   ar
    38    70    68   ar
    39    21    23   ar
    40    65    64    1
    41    65    66   ar
    42    39    38    1
    43    64    61    1
    44    63    62    2
    45    22    25   ar
    46    22    24   ar
    47    25    27   ar
    48    54    53    2
    49     4     3    2
    50    68    66   ar
    51    23    24   ar
    52     2     1    1
    53     2     3    1
    54     2     5    1
    55    24    26   ar
    56    62    61    1
    57    61    60    1
    58    27    28   ar
    59    53    52    1
    60     6     5    1
    61    55    52    1
    62    55    56    1
    63    26    28   ar
    64    51    52    1
    65    56    57    1
    66    59    57   ar
    67    57    58   ar
    68   112   113   ar
    69   112   110   ar
    70   114   113    1
    71    91    90    1
    72    91    97    1
    73    80    81   ar
    74    80    78   ar
    75    83    81   ar
    76    83    85   ar
    77   113   111   ar
    78   110   108   ar
    79    81    79   ar
    80    78    77   ar
    81    85    84   ar
    82   124   123   ar
    83   124   122   ar
    84   123   121   ar
    85    95    94    2
    86   102    99    1
    87    90    87    1
    88    97    96    1
    89    79    77   ar
    90    79    82   ar
    91    77    76    1
    92    96    93    1
    93    84    82   ar
    94    87    88    1
    95    87    86    1
    96   111   109   ar
    97   108   109   ar
    98   108   107    1
    99   122   120   ar
   100    94    93    1
   101    94    98   am
   102    99    98    1
   103    99   100    1
   104   121   120   ar
   105    76    73    1
   106    88    89    2
   107   107   104    1
   108    93    92    1
   109   106   105    2
   110   120   119    1
   111   104   105    1
   112   104   103    1
   113   100   101    2
   114   118   117    2
   115   117   116    1
   116    73    74    1
   117    73    72    1
   118    75    74    2
   119   119   116    1
   120   116   115    1
