@<TRIPOS>MOLECULE
tmp/3wl8A01.pdb
 147 142 0 0 0
SMALL
GASTEIGER

@<TRIPOS>ATOM
      1  N        -39.1790   -3.9560   -1.1170 N.3    49  SER49      -0.1217
      2  CA       -40.5900   -3.5830   -0.9150 C.3    49  SER49       0.1889
      3  C        -41.5890   -4.6730   -1.1500 C.2    49  SER49       0.2288
      4  O        -42.5850   -4.7330   -0.4460 O.2    49  SER49      -0.2866
      5  CB       -40.9260   -2.4080   -1.8480 C.3    49  SER49       0.2089
      6  OG       -40.1320   -1.2730   -1.5200 O.3    49  SER49      -0.2183
      7  N        -45.9750    4.0120    0.9770 N.3    97  PRO97      -0.2116
      8  CA       -45.4580    5.1180    1.7870 C.3    97  PRO97       0.1372
      9  C        -45.4170    4.8060    3.2840 C.2    97  PRO97       0.2244
     10  O        -46.2710    4.0820    3.8180 O.2    97  PRO97      -0.2868
     11  CB       -46.4100    6.2760    1.4510 C.3    97  PRO97       0.0268
     12  CG       -46.9430    5.9020    0.0700 C.3    97  PRO97       0.0207
     13  CD       -47.1050    4.4150    0.1180 C.3    97  PRO97       0.0892
     14  N        -40.3590    7.7740    5.3780 N.3   103  ASN103     -0.1225
     15  CA       -40.6740    7.9000    3.9790 C.3   103  ASN103      0.1785
     16  C        -41.3470    6.7060    3.2960 C.2   103  ASN103      0.2597
     17  O        -42.2910    6.8780    2.5010 O.2   103  ASN103     -0.2718
     18  CB       -39.4060    8.2400    3.1770 C.3   103  ASN103      0.1169
     19  CG       -39.7460    8.7030    1.7760 C.2   103  ASN103      0.2627
     20  OD1      -40.3870    9.7100    1.6410 O.2   103  ASN103     -0.2716
     21  ND2      -39.3430    7.9640    0.7590 N.am  103  ASN103     -0.0877
     22  N        -40.8760    5.5040    3.6160 N.am  104  TRP104     -0.1976
     23  CA       -41.3010    4.3170    2.9050 C.3   104  TRP104      0.1640
     24  C        -41.4830    3.2180    3.9550 C.2   104  TRP104      0.2290
     25  O        -40.6320    3.0320    4.8020 O.2   104  TRP104     -0.2864
     26  CB       -40.1680    4.0160    1.8840 C.3   104  TRP104      0.0576
     27  CG       -40.6240    3.1280    0.7930 C.ar  104  TRP104      0.0006
     28  CD1      -40.1460    1.8960    0.5130 C.ar  104  TRP104      0.0946
     29  CD2      -41.7040    3.3680   -0.1170 C.ar  104  TRP104      0.0152
     30  NE1      -40.8700    1.3250   -0.4980 N.ar  104  TRP104     -0.2442
     31  CE2      -41.8310    2.2140   -0.9120 C.ar  104  TRP104      0.0810
     32  CE3      -42.5700    4.4590   -0.3390 C.ar  104  TRP104      0.0012
     33  CZ2      -42.7920    2.0960   -1.9370 C.ar  104  TRP104      0.0191
     34  CZ3      -43.5340    4.3390   -1.3630 C.ar  104  TRP104      0.0001
     35  CH2      -43.6240    3.1550   -2.1490 C.ar  104  TRP104      0.0015
     36  N        -36.1320    3.6470    6.9080 N.3   109  GLU109     -0.1245
     37  CA       -34.9150    3.9330    6.1540 C.3   109  GLU109      0.1567
     38  C        -34.7150    5.3530    5.6300 C.2   109  GLU109      0.2260
     39  O        -33.7200    5.6190    4.9680 O.2   109  GLU109     -0.2867
     40  CB       -34.7370    2.8830    5.0030 C.3   109  GLU109      0.0388
     41  CG       -36.0100    2.3950    4.1980 C.3   109  GLU109      0.1160
     42  CD       -36.4430    3.2880    3.0260 C.2   109  GLU109      0.3649
     43  OE1      -36.5660    4.5070    3.2020 O.co2 109  GLU109     -0.2457
     44  OE2      -36.7070    2.7350    1.9280 O.co2 109  GLU109     -0.2457
     45  N        -32.9610   -2.5600   -2.9000 N.3   155  ALA155     -0.1231
     46  CA       -34.0370   -1.5700   -2.9920 C.3   155  ALA155      0.1694
     47  C        -34.2760   -0.9270   -1.6600 C.2   155  ALA155      0.2592
     48  O        -33.3320   -0.3590   -1.1400 O.2   155  ALA155     -0.2718
     49  CB       -35.3050   -2.2920   -3.5600 C.3   155  ALA155      0.0304
     50  N        -35.4740   -0.9940   -1.0920 N.am  156  SER156     -0.1952
     51  CA       -35.6740   -0.3600    0.2300 C.3   156  SER156      0.1924
     52  C        -34.6920   -0.9560    1.2410 C.2   156  SER156      0.2314
     53  O        -34.2720   -0.2580    2.1800 O.2   156  SER156     -0.2863
     54  CB       -37.1320   -0.5560    0.6740 C.3   156  SER156      0.2116
     55  OG       -37.4120    0.0710    1.9350 O.3   156  SER156     -0.2180
     56  N        -31.6540    0.9360    0.7950 N.3   159  THR159     -0.1218
     57  CA       -31.7630    2.2440    1.4410 C.3   159  THR159      0.1862
     58  C        -31.5150    2.0710    2.9040 C.2   159  THR159      0.2287
     59  O        -30.8000    2.8560    3.5180 O.2   159  THR159     -0.2866
     60  CB       -33.1730    2.8070    1.2220 C.3   159  THR159      0.1770
     61  OG1      -33.4720    2.6950   -0.1640 O.3   159  THR159     -0.2211
     62  CG2      -33.2820    4.2770    1.6800 C.3   159  THR159      0.0375
     63  N        -31.8470    3.9250   -2.1330 N.3   181  GLU181     -0.1245
     64  CA       -32.0230    5.3590   -2.2980 C.3   181  GLU181      0.1567
     65  C        -31.0950    6.1090   -1.3180 C.2   181  GLU181      0.2260
     66  O        -30.5520    5.5370   -0.3250 O.2   181  GLU181     -0.2867
     67  CB       -33.4650    5.7480   -1.9630 C.3   181  GLU181      0.0388
     68  CG       -34.3600    6.1040   -3.2020 C.3   181  GLU181      0.1160
     69  CD       -33.9560    7.4040   -3.8840 C.2   181  GLU181      0.3649
     70  OE1      -34.7610    7.8180   -4.7640 O.co2 181  GLU181     -0.2457
     71  OE2      -32.8970    8.0340   -3.5870 O.co2 181  GLU181     -0.2457
     72  N        -32.2590    9.6440   -1.2520 N.3   183  TYR183     -0.1241
     73  CA       -33.2800   10.6970   -1.0570 C.3   183  TYR183      0.1605
     74  C        -32.5810   12.0390   -0.9880 C.2   183  TYR183      0.2264
     75  O        -32.6990   12.8020   -0.0120 O.2   183  TYR183     -0.2867
     76  CB       -34.0770   10.4610    0.2200 C.3   183  TYR183      0.0534
     77  CG       -34.8260    9.1450    0.3080 C.ar  183  TYR183     -0.0201
     78  CD1      -35.7490    8.7410   -0.6880 C.ar  183  TYR183     -0.0009
     79  CD2      -34.6760    8.3450    1.4430 C.ar  183  TYR183     -0.0009
     80  CE1      -36.5300    7.5640   -0.5170 C.ar  183  TYR183      0.0417
     81  CE2      -35.4480    7.1770    1.6140 C.ar  183  TYR183      0.0417
     82  CZ       -36.3710    6.8040    0.6380 C.ar  183  TYR183      0.1957
     83  OH       -37.1910    5.6880    0.8540 O.3   183  TYR183     -0.2866
     84  N        -32.1470   12.3660    2.7250 N.3   212  ARG212     -0.1245
     85  CA       -33.0620   11.9470    3.7880 C.3   212  ARG212      0.1563
     86  C        -32.7910   10.5500    4.3040 C.2   212  ARG212      0.2260
     87  O        -33.3520   10.1380    5.3330 O.2   212  ARG212     -0.2867
     88  CB       -34.5260   12.0670    3.3120 C.3   212  ARG212      0.0307
     89  CG       -34.8960   13.5330    3.0140 C.3   212  ARG212      0.0489
     90  CD       -36.3450   13.6510    2.5630 C.3   212  ARG212      0.2205
     91  NE       -36.5660   13.1620    1.2030 N.pl3 212  ARG212     -0.0865
     92  CZ       -37.4770   12.2650    0.8540 C.cat 212  ARG212      0.5346
     93  NH1      -38.2570   11.7010    1.7620 N.pl3 212  ARG212      0.1354
     94  NH2      -37.6920   12.0120   -0.4280 N.pl3 212  ARG212      0.1354
     95  N        -37.6050    2.4310  -10.2310 N.3   238  TRP238     -0.1241
     96  CA       -38.7680    1.8030   -9.5880 C.3   238  TRP238      0.1605
     97  C        -40.0230    2.6010   -9.8950 C.2   238  TRP238      0.2264
     98  O        -40.0240    3.8340   -9.8470 O.2   238  TRP238     -0.2867
     99  CB       -38.5980    1.6860   -8.0580 C.3   238  TRP238      0.0550
    100  CG       -39.7810    1.0360   -7.3240 C.ar  238  TRP238      0.0003
    101  CD1      -40.6400    1.6530   -6.4430 C.ar  238  TRP238      0.0946
    102  CD2      -40.1720   -0.3470   -7.3610 C.ar  238  TRP238      0.0152
    103  NE1      -41.5210    0.7360   -5.9220 N.ar  238  TRP238     -0.2442
    104  CE2      -41.2570   -0.4970   -6.4730 C.ar  238  TRP238      0.0810
    105  CE3      -39.7090   -1.4720   -8.0660 C.ar  238  TRP238      0.0012
    106  CZ2      -41.8920   -1.7320   -6.2590 C.ar  238  TRP238      0.0191
    107  CZ3      -40.3450   -2.7100   -7.8570 C.ar  238  TRP238      0.0001
    108  CH2      -41.4170   -2.8190   -6.9620 C.ar  238  TRP238      0.0015
    109  N        -43.7610    3.2000   -8.7030 N.3   240  CYS240     -0.1235
    110  CA       -44.6700    3.0950   -7.5900 C.3   240  CYS240      0.1677
    111  C        -46.0670    2.7740   -8.1270 C.2   240  CYS240      0.2270
    112  O        -46.3210    2.8140   -9.3220 O.2   240  CYS240     -0.2867
    113  CB       -44.6870    4.4230   -6.8400 C.3   240  CYS240      0.0956
    114  SG       -43.2420    4.6630   -5.7180 S.3   240  CYS240     -0.0801
    115  N        -40.9970    6.5970   -9.5440 N.3   250  CYS250     -0.1221
    116  CA       -40.8010    7.3110   -8.2960 C.3   250  CYS250      0.1808
    117  C        -39.3790    7.1770   -7.7680 C.2   250  CYS250      0.2601
    118  O        -39.0510    7.7420   -6.7130 O.2   250  CYS250     -0.2717
    119  CB       -41.7970    6.8230   -7.2510 C.3   250  CYS250      0.0970
    120  SG       -41.6530    5.0570   -6.9440 S.3   250  CYS250     -0.0800
    121  N        -38.5310    6.4050   -8.4630 N.am  251  ALA251     -0.1979
    122  CA       -37.1370    6.3560   -8.0070 C.3   251  ALA251      0.1597
    123  C        -36.1950    5.9540   -9.1340 C.2   251  ALA251      0.2287
    124  O        -36.5620    5.1240   -9.9650 O.2   251  ALA251     -0.2864
    125  CB       -36.9790    5.3840   -6.8270 C.3   251  ALA251      0.0319
    126  N        -32.1740    4.8120   -9.5270 N.3   253  TYR253     -0.1241
    127  CA       -31.0170    4.4940   -8.6890 C.3   253  TYR253      0.1605
    128  C        -29.6750    4.9300   -9.1920 C.2   253  TYR253      0.2264
    129  O        -28.6540    4.7770   -8.5210 O.2   253  TYR253     -0.2867
    130  CB       -31.0890    2.9930   -8.3220 C.3   253  TYR253      0.0534
    131  CG       -32.3540    2.7630   -7.5500 C.ar  253  TYR253     -0.0201
    132  CD1      -33.5740    2.4990   -8.2050 C.ar  253  TYR253     -0.0009
    133  CD2      -32.3750    2.9340   -6.1720 C.ar  253  TYR253     -0.0009
    134  CE1      -34.7610    2.4300   -7.4930 C.ar  253  TYR253      0.0417
    135  CE2      -33.5600    2.8630   -5.4590 C.ar  253  TYR253      0.0417
    136  CZ       -34.7240    2.6160   -6.1070 C.ar  253  TYR253      0.1957
    137  OH       -35.8880    2.5190   -5.3780 O.3   253  TYR253     -0.2866
    138  N        -33.5530   -3.3340  -11.5040 N.3   281  HIS281     -0.1241
    139  CA       -33.8390   -3.0970  -10.0950 C.3   281  HIS281      0.1621
    140  C        -34.3660   -4.3710   -9.4370 C.2   281  HIS281      0.2264
    141  O        -35.5910   -4.5650   -9.3010 O.2   281  HIS281     -0.2867
    142  CB       -34.9110   -2.0010   -9.9670 C.3   281  HIS281      0.0745
    143  CG       -35.0360   -1.4570   -8.5810 C.ar  281  HIS281      0.0817
    144  ND1      -33.9790   -0.8660   -7.9270 N.ar  281  HIS281     -0.2268
    145  CD2      -36.0850   -1.4230   -7.7150 C.ar  281  HIS281      0.1154
    146  CE1      -34.3640   -0.4910   -6.7170 C.ar  281  HIS281      0.1986
    147  NE2      -35.6380   -0.8150   -6.5650 N.ar  281  HIS281     -0.2212
@<TRIPOS>BOND
     1   138   139    1
     2    95    96    1
     3   139   142    1
     4   139   140    1
     5   142   143    1
     6   124   123    2
     7    97    98    2
     8    97    96    1
     9    96    99    1
    10   115   116    1
    11   126   127    1
    12   140   141    2
    13   112   111    2
    14   128   127    1
    15   128   129    2
    16   123   122    1
    17   109   110    1
    18   127   130    1
    19   143   144   ar
    20   143   145   ar
    21   121   122    1
    22   121   117   am
    23   130   131    1
    24   116   117    1
    25   116   119    1
    26   132   131   ar
    27   132   134   ar
    28   111   110    1
    29   105   107   ar
    30   105   102   ar
    31    99   100    1
    32   122   125    1
    33   144   146   ar
    34   107   108   ar
    35   117   118    2
    36   145   147   ar
    37   110   113    1
    38   131   133   ar
    39   134   136   ar
    40   102   100   ar
    41   102   104   ar
    42   100   101   ar
    43   119   120    1
    44   108   106   ar
    45   120   114    1
    46   113   114    1
    47   146   147   ar
    48   104   106   ar
    49   104   103   ar
    50   101   103   ar
    51   133   135   ar
    52   136   135   ar
    53   136   137    1
    54    70    69   ar
    55    69    71   ar
    56    69    68    1
    57    49    46    1
    58    68    67    1
    59    46    45    1
    60    46    47    1
    61    64    63    1
    62    64    67    1
    63    64    65    1
    64    35    33   ar
    65    35    34   ar
    66    33    31   ar
    67     5     6    1
    68     5     2    1
    69    47    48    2
    70    47    50   am
    71    34    32   ar
    72    65    66    2
    73    72    73    1
    74     3     2    1
    75     3     4    2
    76     1     2    1
    77    50    51    1
    78    73    74    1
    79    73    76    1
    80    74    75    2
    81    31    30   ar
    82    31    29   ar
    83    78    80   ar
    84    78    77   ar
    85    80    82   ar
    86    30    28   ar
    87    94    92    1
    88    32    29   ar
    89    61    60    1
    90    29    27   ar
    91    12    13    1
    92    12    11    1
    93    13     7    1
    94    76    77    1
    95    51    54    1
    96    51    52    1
    97    77    79   ar
    98    28    27   ar
    99    82    83    1
   100    82    81   ar
   101    54    55    1
   102    21    19   am
   103    27    26    1
   104    56    57    1
   105    92    91    2
   106    92    93    1
   107     7     8    1
   108    91    90    1
   109    60    57    1
   110    60    62    1
   111    52    53    2
   112    57    58    1
   113    79    81   ar
   114    11     8    1
   115    20    19    2
   116    19    18    1
   117     8     9    1
   118    26    23    1
   119    44    42   ar
   120    17    16    2
   121    90    89    1
   122    84    85    1
   123    58    59    2
   124    23    22    1
   125    23    24    1
   126    89    88    1
   127    42    43   ar
   128    42    41    1
   129    18    15    1
   130     9    10    2
   131    16    22   am
   132    16    15    1
   133    88    85    1
   134    85    86    1
   135    24    25    2
   136    15    14    1
   137    41    40    1
   138    86    87    2
   139    39    38    2
   140    40    37    1
   141    38    37    1
   142    37    36    1
