@<TRIPOS>MOLECULE
tmp/3wlhA04.pdb
 113 110 0 0 0
SMALL
GASTEIGER

@<TRIPOS>ATOM
      1  N         28.6410   28.4010   24.3120 N.3    36  GLU36      -0.1245
      2  CA        27.5300   29.3240   24.4960 C.3    36  GLU36       0.1567
      3  C         27.0650   29.8160   23.1110 C.2    36  GLU36       0.2260
      4  O         27.9140   30.1250   22.2320 O.2    36  GLU36      -0.2867
      5  CB        28.0130   30.5330   25.3190 C.3    36  GLU36       0.0388
      6  CG        27.1960   30.7350   26.6250 C.3    36  GLU36       0.1160
      7  CD        25.7790   31.2880   26.4550 C.2    36  GLU36       0.3649
      8  OE1       25.4170   31.7450   25.3470 O.co2  36  GLU36      -0.2457
      9  OE2       24.9770   31.2970   27.4440 O.co2  36  GLU36      -0.2457
     10  N         23.0860   29.5480   28.5430 N.3    56  GLY56      -0.1210
     11  CA        23.1460   29.7130   30.0190 C.3    56  GLY56       0.1956
     12  C         21.9310   30.5090   30.4890 C.2    56  GLY56       0.2612
     13  O         21.1120   31.0130   29.6630 O.2    56  GLY56      -0.2717
     14  N         21.7720   30.6720   31.8100 N.am   57  GLY57      -0.1956
     15  CA        20.6410   31.4630   32.2800 C.3    57  GLY57       0.1869
     16  C         20.6170   32.8710   31.6690 C.2    57  GLY57       0.2309
     17  O         21.6250   33.5780   31.6960 O.2    57  GLY57      -0.2863
     18  N         20.4690   33.6540   28.5820 N.3    59  SER59      -0.1217
     19  CA        21.1300   33.7770   27.2500 C.3    59  SER59       0.1889
     20  C         20.0470   33.5430   26.1990 C.2    59  SER59       0.2288
     21  O         19.7310   32.4050   25.8740 O.2    59  SER59      -0.2866
     22  CB        22.2900   32.7860   27.0870 C.3    59  SER59       0.2089
     23  OG        22.9390   32.9810   25.8000 O.3    59  SER59      -0.2183
     24  N         18.8020   25.2320   30.5540 N.3    95  ASP95      -0.1239
     25  CA        18.2020   24.9630   31.9000 C.3    95  ASP95       0.1674
     26  C         16.6920   25.1720   31.8300 C.2    95  ASP95       0.2266
     27  O         16.2020   26.2680   32.1350 O.2    95  ASP95      -0.2867
     28  CB        18.8220   25.8690   32.9550 C.3    95  ASP95       0.1410
     29  CG        20.2910   25.5820   33.1050 C.2    95  ASP95       0.3668
     30  OD1       20.5890   24.5260   33.7330 O.co2  95  ASP95      -0.2456
     31  OD2       21.1240   26.3360   32.5330 O.co2  95  ASP95      -0.2456
     32  N         30.0740   20.9250   40.7350 N.3   253  TYR253     -0.1241
     33  CA        31.2120   21.7460   41.1100 C.3   253  TYR253      0.1605
     34  C         31.8040   21.2810   42.4480 C.2   253  TYR253      0.2264
     35  O         32.9500   21.5750   42.7480 O.2   253  TYR253     -0.2867
     36  CB        30.7660   23.1630   41.3460 C.3   253  TYR253      0.0534
     37  CG        30.3700   23.9410   40.0980 C.ar  253  TYR253     -0.0201
     38  CD1       31.2970   24.1810   39.0530 C.ar  253  TYR253     -0.0009
     39  CD2       29.1150   24.5080   40.0210 C.ar  253  TYR253     -0.0009
     40  CE1       30.9330   24.9870   37.9330 C.ar  253  TYR253      0.0417
     41  CE2       28.7380   25.3140   38.9290 C.ar  253  TYR253      0.0417
     42  CZ        29.6430   25.5120   37.8800 C.ar  253  TYR253      0.1957
     43  OH        29.2380   26.3100   36.8570 O.3   253  TYR253     -0.2866
     44  N         29.8650   20.8620   34.3570 N.3   285  ASP285     -0.1225
     45  CA        29.0820   22.0550   34.6170 C.3   285  ASP285      0.1805
     46  C         29.8150   23.2500   33.9660 C.2   285  ASP285      0.2597
     47  O         30.9050   23.0760   33.3570 O.2   285  ASP285     -0.2718
     48  CB        28.8280   22.2500   36.1320 C.3   285  ASP285      0.1424
     49  CG        27.5530   23.0320   36.4200 C.2   285  ASP285      0.3668
     50  OD1       27.1130   23.8690   35.5500 O.co2 285  ASP285     -0.2456
     51  OD2       26.9580   22.8050   37.5240 O.co2 285  ASP285     -0.2456
     52  N         29.2200   24.4320   34.0710 N.am  286  TRP286     -0.1976
     53  CA        29.6760   25.6430   33.3760 C.3   286  TRP286      0.1640
     54  C         31.0220   26.0850   33.9550 C.2   286  TRP286      0.2290
     55  O         31.1210   26.4780   35.1440 O.2   286  TRP286     -0.2864
     56  CB        28.6050   26.7130   33.5700 C.3   286  TRP286      0.0576
     57  CG        28.8730   28.0740   33.1370 C.ar  286  TRP286      0.0006
     58  CD1       29.6910   29.0000   33.7320 C.ar  286  TRP286      0.0946
     59  CD2       28.2300   28.7480   32.0480 C.ar  286  TRP286      0.0152
     60  NE1       29.6130   30.2070   33.0700 N.ar  286  TRP286     -0.2442
     61  CE2       28.7220   30.0800   32.0300 C.ar  286  TRP286      0.0810
     62  CE3       27.2680   28.3550   31.0950 C.ar  286  TRP286      0.0012
     63  CZ2       28.3180   31.0370   31.0600 C.ar  286  TRP286      0.0191
     64  CZ3       26.8420   29.3110   30.1340 C.ar  286  TRP286      0.0001
     65  CH2       27.3650   30.6330   30.1290 C.ar  286  TRP286      0.0015
     66  N         37.2510   25.3030   37.4680 N.3   291  ARG291     -0.1245
     67  CA        37.1340   25.4230   38.9240 C.3   291  ARG291      0.1563
     68  C         37.7580   24.2620   39.7170 C.2   291  ARG291      0.2260
     69  O         37.7020   24.2540   40.9770 O.2   291  ARG291     -0.2867
     70  CB        35.6670   25.6570   39.2800 C.3   291  ARG291      0.0307
     71  CG        35.1380   26.9680   38.6690 C.3   291  ARG291      0.0489
     72  CD        33.6970   27.1960   38.9820 C.3   291  ARG291      0.2205
     73  NE        33.1620   28.2820   38.1330 N.pl3 291  ARG291     -0.0865
     74  CZ        31.9030   28.7020   38.1280 C.cat 291  ARG291      0.5346
     75  NH1       30.9880   28.1710   38.9710 N.pl3 291  ARG291      0.1354
     76  NH2       31.5490   29.6680   37.2700 N.pl3 291  ARG291      0.1354
     77  N         16.0620   31.2940   38.1570 N.3   430  TRP430     -0.1241
     78  CA        15.9570   30.5620   36.8820 C.3   430  TRP430      0.1605
     79  C         14.5940   30.9020   36.2650 C.2   430  TRP430      0.2264
     80  O         13.8260   29.9950   35.8780 O.2   430  TRP430     -0.2867
     81  CB        16.0140   29.0500   37.0890 C.3   430  TRP430      0.0550
     82  CG        17.3180   28.4920   37.4820 C.ar  430  TRP430      0.0003
     83  CD1       17.6380   27.8970   38.6870 C.ar  430  TRP430      0.0946
     84  CD2       18.5050   28.4090   36.6640 C.ar  430  TRP430      0.0152
     85  NE1       18.9500   27.4760   38.6730 N.ar  430  TRP430     -0.2442
     86  CE2       19.5040   27.7620   37.4440 C.ar  430  TRP430      0.0810
     87  CE3       18.8260   28.8330   35.3500 C.ar  430  TRP430      0.0012
     88  CZ2       20.7940   27.5330   36.9670 C.ar  430  TRP430      0.0191
     89  CZ3       20.1060   28.5940   34.8650 C.ar  430  TRP430      0.0001
     90  CH2       21.0900   27.9610   35.6680 C.ar  430  TRP430      0.0015
     91  N         18.9060   34.5160   34.7820 N.3   434  TRP434     -0.1241
     92  CA        19.5570   33.4780   35.5930 C.3   434  TRP434      0.1605
     93  C         19.1040   33.5590   37.0630 C.2   434  TRP434      0.2264
     94  O         18.7470   32.5320   37.6670 O.2   434  TRP434     -0.2867
     95  CB        21.0560   33.7030   35.5070 C.3   434  TRP434      0.0550
     96  CG        21.8960   32.7600   36.3250 C.ar  434  TRP434      0.0003
     97  CD1       21.6920   31.4390   36.5350 C.ar  434  TRP434      0.0946
     98  CD2       23.0520   33.1280   37.0830 C.ar  434  TRP434      0.0152
     99  NE1       22.6910   30.9330   37.3720 N.ar  434  TRP434     -0.2442
    100  CE2       23.5380   31.9510   37.7070 C.ar  434  TRP434      0.0810
    101  CE3       23.7520   34.3350   37.2480 C.ar  434  TRP434      0.0012
    102  CZ2       24.6900   31.9470   38.5310 C.ar  434  TRP434      0.0191
    103  CZ3       24.8910   34.3500   38.0900 C.ar  434  TRP434      0.0001
    104  CH2       25.3520   33.1320   38.6900 C.ar  434  TRP434      0.0015
    105  N         21.9970   29.7410   42.7980 N.3   491  GLU491     -0.1245
    106  CA        23.3630   29.2910   43.0160 C.3   491  GLU491      0.1567
    107  C         23.9570   30.0810   44.1920 C.2   491  GLU491      0.2260
    108  O         23.2500   30.2640   45.2140 O.2   491  GLU491     -0.2867
    109  CB        24.1940   29.3080   41.6940 C.3   491  GLU491      0.0388
    110  CG        23.7340   28.2030   40.7360 C.3   491  GLU491      0.1160
    111  CD        24.4620   28.2400   39.3900 C.2   491  GLU491      0.3649
    112  OE1       25.6790   27.9530   39.3790 O.co2 491  GLU491     -0.2457
    113  OE2       23.8020   28.5390   38.3490 O.co2 491  GLU491     -0.2457
@<TRIPOS>BOND
     1     4     3    2
     2     3     2    1
     3     1     2    1
     4     2     5    1
     5     5     6    1
     6     8     7   ar
     7    23    22    1
     8    21    20    2
     9    20    19    1
    10     7     6    1
    11     7     9   ar
    12    22    19    1
    13    19    18    1
    14    10    11    1
    15    13    12    2
    16    11    12    1
    17    65    64   ar
    18    65    63   ar
    19    64    62   ar
    20    12    14   am
    21    24    25    1
    22    63    61   ar
    23    62    59   ar
    24    16    17    2
    25    16    15    1
    26    14    15    1
    27    26    25    1
    28    26    27    2
    29    25    28    1
    30    61    59   ar
    31    61    60   ar
    32    59    57   ar
    33    31    29   ar
    34    28    29    1
    35    60    58   ar
    36    29    30   ar
    37    57    56    1
    38    57    58   ar
    39    47    46    2
    40    53    56    1
    41    53    54    1
    42    53    52    1
    43    54    55    2
    44    46    52   am
    45    46    45    1
    46    44    45    1
    47    45    48    1
    48    91    92    1
    49    89    87   ar
    50    89    90   ar
    51    87    84   ar
    52    95    92    1
    53    95    96    1
    54    50    49   ar
    55    92    93    1
    56    90    88   ar
    57    80    79    2
    58    48    49    1
    59    79    78    1
    60    96    97   ar
    61    96    98   ar
    62    49    51   ar
    63    97    99   ar
    64    84    86   ar
    65    84    82   ar
    66    43    42    1
    67    78    81    1
    68    78    77    1
    69    88    86   ar
    70    93    94    2
    71    98   101   ar
    72    98   100   ar
    73    81    82    1
    74   101   103   ar
    75    76    74    1
    76    99   100   ar
    77    86    85   ar
    78    66    67    1
    79    82    83   ar
    80   100   102   ar
    81    42    40   ar
    82    42    41   ar
    83    40    38   ar
    84   103   104   ar
    85    74    73    2
    86    74    75    1
    87    73    72    1
    88   113   111   ar
    89   102   104   ar
    90    71    72    1
    91    71    70    1
    92    85    83   ar
    93    67    70    1
    94    67    68    1
    95    41    39   ar
    96    38    37   ar
    97   112   111   ar
    98   111   110    1
    99    68    69    2
   100    39    37   ar
   101    37    36    1
   102    32    33    1
   103   110   109    1
   104    33    36    1
   105    33    34    1
   106   109   106    1
   107    34    35    2
   108   105   106    1
   109   106   107    1
   110   107   108    2
