@<TRIPOS>MOLECULE
tmp/3wljA03.pdb
 163 158 0 0 0
SMALL
GASTEIGER

@<TRIPOS>ATOM
      1  N         24.9390   25.6650   24.0120 N.3    54  LEU54      -0.1245
      2  CA        23.9700   25.9040   25.0750 C.3    54  LEU54       0.1561
      3  C         23.6550   27.3820   25.2140 C.2    54  LEU54       0.2260
      4  O         24.4230   28.2500   24.7760 O.2    54  LEU54      -0.2867
      5  CB        24.4550   25.3590   26.4360 C.3    54  LEU54       0.0270
      6  CG        25.3820   26.2660   27.2560 C.3    54  LEU54       0.0019
      7  CD1       25.2710   25.8990   28.7580 C.3    54  LEU54       0.0001
      8  CD2       26.8260   26.2010   26.7740 C.3    54  LEU54       0.0001
      9  N         23.3310   29.5030   28.5420 N.3    56  GLY56      -0.1210
     10  CA        23.3860   29.6010   30.0100 C.3    56  GLY56       0.1956
     11  C         22.1720   30.4090   30.4790 C.2    56  GLY56       0.2612
     12  O         21.4010   30.9260   29.6470 O.2    56  GLY56      -0.2717
     13  N         21.9820   30.5210   31.7950 N.am   57  GLY57      -0.1956
     14  CA        20.8590   31.3040   32.3330 C.3    57  GLY57       0.1869
     15  C         20.8630   32.7170   31.7380 C.2    57  GLY57       0.2309
     16  O         21.9050   33.4040   31.7440 O.2    57  GLY57      -0.2863
     17  N         18.9760   25.1620   30.4880 N.3    95  ASP95      -0.1239
     18  CA        18.3900   24.8750   31.8180 C.3    95  ASP95       0.1674
     19  C         16.8800   25.0930   31.7550 C.2    95  ASP95       0.2266
     20  O         16.3820   26.1920   32.0190 O.2    95  ASP95      -0.2867
     21  CB        19.0130   25.7520   32.8870 C.3    95  ASP95       0.1410
     22  CG        20.4680   25.4460   33.0560 C.2    95  ASP95       0.3668
     23  OD1       20.7500   24.3790   33.6680 O.co2  95  ASP95      -0.2456
     24  OD2       21.2990   26.2220   32.5200 O.co2  95  ASP95      -0.2456
     25  N         18.8350   20.4610   30.8210 N.3   144  PHE144     -0.1241
     26  CA        19.7530   20.1270   31.9280 C.3   144  PHE144      0.1605
     27  C         18.9360   19.8650   33.2030 C.2   144  PHE144      0.2264
     28  O         18.9930   20.6360   34.1730 O.2   144  PHE144     -0.2867
     29  CB        20.7620   21.2440   32.1830 C.3   144  PHE144      0.0534
     30  CG        21.6590   21.5540   31.0000 C.ar  144  PHE144     -0.0203
     31  CD1       22.3460   20.5470   30.3300 C.ar  144  PHE144     -0.0042
     32  CD2       21.8220   22.8790   30.5910 C.ar  144  PHE144     -0.0042
     33  CE1       23.1990   20.8500   29.2270 C.ar  144  PHE144     -0.0003
     34  CE2       22.6610   23.2000   29.4930 C.ar  144  PHE144     -0.0003
     35  CZ        23.3450   22.1750   28.8150 C.ar  144  PHE144     -0.0000
     36  N         21.0240   26.3400   46.4180 N.3   158  ARG158     -0.1245
     37  CA        20.2990   25.4840   45.4710 C.3   158  ARG158      0.1563
     38  C         19.3400   24.5480   46.1680 C.2   158  ARG158      0.2260
     39  O         18.8250   23.6270   45.5400 O.2   158  ARG158     -0.2867
     40  CB        21.2680   24.6800   44.5890 C.3   158  ARG158      0.0307
     41  CG        22.4000   25.5380   44.0680 C.3   158  ARG158      0.0489
     42  CD        23.1320   24.8880   42.9230 C.3   158  ARG158      0.2205
     43  NE        22.3400   24.8860   41.6840 N.pl3 158  ARG158     -0.0865
     44  CZ        22.8520   24.6260   40.4800 C.cat 158  ARG158      0.5346
     45  NH1       24.1580   24.3450   40.3610 N.pl3 158  ARG158      0.1354
     46  NH2       22.0610   24.6420   39.4000 N.pl3 158  ARG158      0.1354
     47  N         21.6590   15.5190   37.3750 N.3   206  LYS206     -0.1231
     48  CA        22.7320   16.3640   37.8930 C.3   206  LYS206      0.1693
     49  C         22.5630   16.6630   39.3950 C.2   206  LYS206      0.2592
     50  O         21.4460   16.5550   39.9200 O.2   206  LYS206     -0.2718
     51  CB        22.7910   17.6760   37.0770 C.3   206  LYS206      0.0285
     52  CG        21.6130   18.6420   37.3270 C.3   206  LYS206      0.0035
     53  CD        21.6260   19.8380   36.3480 C.3   206  LYS206      0.0206
     54  CE        20.6330   20.9190   36.8120 C.3   206  LYS206      0.1093
     55  NZ        20.6860   22.0970   35.8690 N.3   206  LYS206     -0.1314
     56  N         23.6290   17.0570   40.0970 N.am  207  HIS207     -0.1976
     57  CA        25.0190   17.1080   39.5920 C.3   207  HIS207      0.1656
     58  C         25.7820   16.0080   40.3240 C.2   207  HIS207      0.2291
     59  O         25.7390   15.9160   41.5620 O.2   207  HIS207     -0.2864
     60  CB        25.6740   18.4790   39.8960 C.3   207  HIS207      0.0771
     61  CG        24.8240   19.6630   39.5250 C.ar  207  HIS207      0.0820
     62  ND1       23.8360   20.1640   40.3540 N.ar  207  HIS207     -0.2267
     63  CD2       24.8250   20.4560   38.4220 C.ar  207  HIS207      0.1154
     64  CE1       23.2580   21.2040   39.7710 C.ar  207  HIS207      0.1986
     65  NE2       23.8360   21.3990   38.5980 N.ar  207  HIS207     -0.2212
     66  N         25.4700   15.2600   34.3370 N.3   250  MET250     -0.1245
     67  CA        26.3750   16.3900   34.5430 C.3   250  MET250      0.1570
     68  C         27.1230   16.2670   35.8580 C.2   250  MET250      0.2261
     69  O         26.5280   15.9660   36.9030 O.2   250  MET250     -0.2867
     70  CB        25.6050   17.7050   34.5340 C.3   250  MET250      0.0387
     71  CG        26.5030   18.9420   34.5840 C.3   250  MET250      0.0595
     72  SD        25.5560   20.4860   34.6530 S.3   250  MET250     -0.1393
     73  CE        24.6910   20.4540   33.0720 C.3   250  MET250      0.0692
     74  N         30.3020   20.6580   40.6250 N.3   253  TYR253     -0.1241
     75  CA        31.4440   21.4950   41.0220 C.3   253  TYR253      0.1605
     76  C         32.0410   21.0120   42.3510 C.2   253  TYR253      0.2264
     77  O         33.2140   21.2660   42.6680 O.2   253  TYR253     -0.2867
     78  CB        30.9870   22.9190   41.2500 C.3   253  TYR253      0.0534
     79  CG        30.5830   23.7130   40.0370 C.ar  253  TYR253     -0.0201
     80  CD1       31.4610   23.8920   38.9630 C.ar  253  TYR253     -0.0009
     81  CD2       29.3460   24.3580   40.0040 C.ar  253  TYR253     -0.0009
     82  CE1       31.0940   24.6810   37.8600 C.ar  253  TYR253      0.0417
     83  CE2       28.9730   25.1500   38.9200 C.ar  253  TYR253      0.0417
     84  CZ        29.8440   25.3000   37.8530 C.ar  253  TYR253      0.1957
     85  OH        29.4610   26.0990   36.8010 O.3   253  TYR253     -0.2866
     86  N         30.0910   20.6490   34.2380 N.3   285  ASP285     -0.1225
     87  CA        29.3340   21.8530   34.5360 C.3   285  ASP285      0.1805
     88  C         30.0830   23.0430   33.9020 C.2   285  ASP285      0.2597
     89  O         31.1510   22.8620   33.2890 O.2   285  ASP285     -0.2718
     90  CB        29.0970   22.0070   36.0550 C.3   285  ASP285      0.1424
     91  CG        27.8380   22.8150   36.3800 C.2   285  ASP285      0.3668
     92  OD1       27.3590   23.6020   35.5170 O.co2 285  ASP285     -0.2456
     93  OD2       27.3020   22.6570   37.5050 O.co2 285  ASP285     -0.2456
     94  N         29.4990   24.2300   34.0160 N.am  286  TRP286     -0.1976
     95  CA        29.9410   25.4530   33.3380 C.3   286  TRP286      0.1640
     96  C         31.2850   25.8980   33.9150 C.2   286  TRP286      0.2290
     97  O         31.3640   26.3270   35.0830 O.2   286  TRP286     -0.2864
     98  CB        28.8710   26.5170   33.5960 C.3   286  TRP286      0.0576
     99  CG        29.1280   27.9380   33.1590 C.ar  286  TRP286      0.0006
    100  CD1       29.9350   28.8620   33.7630 C.ar  286  TRP286      0.0946
    101  CD2       28.4800   28.6150   32.0770 C.ar  286  TRP286      0.0152
    102  NE1       29.8610   30.0650   33.1010 N.ar  286  TRP286     -0.2442
    103  CE2       28.9700   29.9440   32.0600 C.ar  286  TRP286      0.0810
    104  CE3       27.5420   28.2160   31.1050 C.ar  286  TRP286      0.0012
    105  CZ2       28.5480   30.8910   31.1040 C.ar  286  TRP286      0.0191
    106  CZ3       27.1110   29.1590   30.1520 C.ar  286  TRP286      0.0001
    107  CH2       27.6210   30.4800   30.1600 C.ar  286  TRP286      0.0015
    108  N         37.5120   24.9900   37.4290 N.3   291  ARG291     -0.1245
    109  CA        37.3740   25.1290   38.8820 C.3   291  ARG291      0.1563
    110  C         37.9940   23.9740   39.6580 C.2   291  ARG291      0.2260
    111  O         37.9170   23.9310   40.9040 O.2   291  ARG291     -0.2867
    112  CB        35.9060   25.3700   39.2470 C.3   291  ARG291      0.0307
    113  CG        35.4140   26.6940   38.6620 C.3   291  ARG291      0.0489
    114  CD        33.9610   27.0020   39.0120 C.3   291  ARG291      0.2205
    115  NE        33.4420   28.0280   38.1050 N.pl3 291  ARG291     -0.0865
    116  CZ        32.1900   28.4750   38.1070 C.cat 291  ARG291      0.5346
    117  NH1       31.3110   28.0080   39.0010 N.pl3 291  ARG291      0.1354
    118  NH2       31.8160   29.3890   37.2050 N.pl3 291  ARG291      0.1354
    119  N         31.4720   21.5490   28.8260 N.3   316  MET316     -0.1245
    120  CA        30.7640   22.8240   28.7410 C.3   316  MET316      0.1570
    121  C         31.8080   23.9130   28.9860 C.2   316  MET316      0.2261
    122  O         32.0830   24.2810   30.1420 O.2   316  MET316     -0.2867
    123  CB        29.6440   22.8480   29.8040 C.3   316  MET316      0.0387
    124  CG        28.7750   24.1040   29.7800 C.3   316  MET316      0.0595
    125  SD        27.5250   24.1220   31.1120 S.3   316  MET316     -0.1393
    126  CE        26.6430   22.5860   30.8380 C.3   316  MET316      0.0692
    127  N         16.3020   31.1570   38.1760 N.3   430  TRP430     -0.1241
    128  CA        16.1660   30.4370   36.9090 C.3   430  TRP430      0.1605
    129  C         14.8180   30.7770   36.2680 C.2   430  TRP430      0.2264
    130  O         14.0700   29.8830   35.8740 O.2   430  TRP430     -0.2867
    131  CB        16.2380   28.9070   37.0940 C.3   430  TRP430      0.0550
    132  CG        17.5510   28.3560   37.4850 C.ar  430  TRP430      0.0003
    133  CD1       17.8770   27.7560   38.6780 C.ar  430  TRP430      0.0946
    134  CD2       18.7280   28.2780   36.6630 C.ar  430  TRP430      0.0152
    135  NE1       19.1980   27.3380   38.6560 N.ar  430  TRP430     -0.2442
    136  CE2       19.7450   27.6480   37.4380 C.ar  430  TRP430      0.0810
    137  CE3       19.0370   28.7110   35.3620 C.ar  430  TRP430      0.0012
    138  CZ2       21.0450   27.4340   36.9430 C.ar  430  TRP430      0.0191
    139  CZ3       20.3280   28.4920   34.8680 C.ar  430  TRP430      0.0001
    140  CH2       21.3150   27.8560   35.6590 C.ar  430  TRP430      0.0015
    141  N         19.1330   34.3850   34.8490 N.3   434  TRP434     -0.1241
    142  CA        19.7780   33.3440   35.6440 C.3   434  TRP434      0.1605
    143  C         19.3230   33.4250   37.1120 C.2   434  TRP434      0.2264
    144  O         18.9210   32.4150   37.7020 O.2   434  TRP434     -0.2867
    145  CB        21.2890   33.5320   35.5300 C.3   434  TRP434      0.0550
    146  CG        22.1050   32.6210   36.3690 C.ar  434  TRP434      0.0003
    147  CD1       21.9190   31.2800   36.5630 C.ar  434  TRP434      0.0946
    148  CD2       23.2740   32.9890   37.1220 C.ar  434  TRP434      0.0152
    149  NE1       22.9130   30.7870   37.4000 N.ar  434  TRP434     -0.2442
    150  CE2       23.7560   31.8100   37.7470 C.ar  434  TRP434      0.0810
    151  CE3       23.9630   34.2010   37.3170 C.ar  434  TRP434      0.0012
    152  CZ2       24.9000   31.8060   38.5730 C.ar  434  TRP434      0.0191
    153  CZ3       25.0990   34.2050   38.1250 C.ar  434  TRP434      0.0001
    154  CH2       25.5630   33.0080   38.7370 C.ar  434  TRP434      0.0015
    155  N         22.2180   29.5110   42.7730 N.3   491  GLU491     -0.1245
    156  CA        23.6010   29.0750   43.0410 C.3   491  GLU491      0.1567
    157  C         24.1860   29.8810   44.2250 C.2   491  GLU491      0.2260
    158  O         23.4820   30.0800   45.2280 O.2   491  GLU491     -0.2867
    159  CB        24.4410   29.1020   41.7460 C.3   491  GLU491      0.0388
    160  CG        23.9510   28.0420   40.7370 C.3   491  GLU491      0.1160
    161  CD        24.6700   28.0720   39.3980 C.2   491  GLU491      0.3649
    162  OE1       25.8770   27.7440   39.3720 O.co2 491  GLU491     -0.2457
    163  OE2       24.0280   28.3770   38.3640 O.co2 491  GLU491     -0.2457
@<TRIPOS>BOND
     1     1     2    1
     2     4     3    2
     3     2     3    1
     4     2     5    1
     5     5     6    1
     6     8     6    1
     7     6     7    1
     8     9    10    1
     9   120   119    1
    10   120   121    1
    11   120   123    1
    12    35    33   ar
    13    35    34   ar
    14   121   122    2
    15    33    31   ar
    16    34    32   ar
    17    12    11    2
    18   124   123    1
    19   124   125    1
    20    10    11    1
    21   106   107   ar
    22   106   104   ar
    23   107   105   ar
    24    31    30   ar
    25    11    13   am
    26    17    18    1
    27    32    30   ar
    28    25    26    1
    29   126   125    1
    30    30    29    1
    31   105   103   ar
    32   104   101   ar
    33    15    16    2
    34    15    14    1
    35    19    18    1
    36    19    20    2
    37    13    14    1
    38    18    21    1
    39    26    29    1
    40    26    27    1
    41   103   101   ar
    42   103   102   ar
    43   101    99   ar
    44    24    22   ar
    45    21    22    1
    46    22    23   ar
    47    73    72    1
    48   102   100   ar
    49    99    98    1
    50    99   100   ar
    51    27    28    2
    52    89    88    2
    53    95    98    1
    54    95    96    1
    55    95    94    1
    56    88    94   am
    57    88    87    1
    58    96    97    2
    59    86    87    1
    60    66    67    1
    61    70    67    1
    62    70    71    1
    63    87    90    1
    64    67    68    1
    65    71    72    1
    66   141   142    1
    67   139   137   ar
    68   139   140   ar
    69   137   134   ar
    70    92    91   ar
    71   145   142    1
    72   145   146    1
    73   142   143    1
    74   140   138   ar
    75    68    69    2
    76    55    54    1
    77   130   129    2
    78    90    91    1
    79   129   128    1
    80    53    54    1
    81    53    52    1
    82   146   147   ar
    83   146   148   ar
    84    91    93   ar
    85   147   149   ar
    86   134   136   ar
    87   134   132   ar
    88    85    84    1
    89   128   131    1
    90   128   127    1
    91   138   136   ar
    92    51    52    1
    93    51    48    1
    94   131   132    1
    95   143   144    2
    96   148   151   ar
    97   148   150   ar
    98   118   116    1
    99   151   153   ar
   100    47    48    1
   101   149   150   ar
   102   108   109    1
   103   136   135   ar
   104   132   133   ar
   105   150   152   ar
   106    84    82   ar
   107    84    83   ar
   108    82    80   ar
   109    48    49    1
   110   115   116    2
   111   115   114    1
   112   116   117    1
   113   153   154   ar
   114   163   161   ar
   115    63    65   ar
   116    63    61   ar
   117   152   154   ar
   118    65    64   ar
   119   135   133   ar
   120   113   114    1
   121   113   112    1
   122   109   112    1
   123   109   110    1
   124    83    81   ar
   125    80    79   ar
   126   162   161   ar
   127    49    50    2
   128    49    56   am
   129   161   160    1
   130    46    44    1
   131    61    60    1
   132    61    62   ar
   133    57    60    1
   134    57    56    1
   135    57    58    1
   136   110   111    2
   137    64    62   ar
   138    81    79   ar
   139    79    78    1
   140    58    59    2
   141    45    44    1
   142    44    43    2
   143    74    75    1
   144   160   159    1
   145    75    78    1
   146    75    76    1
   147    43    42    1
   148   159   156    1
   149    76    77    2
   150   155   156    1
   151    42    41    1
   152   156   157    1
   153    41    40    1
   154   157   158    2
   155    40    37    1
   156    37    38    1
   157    37    36    1
   158    39    38    2
