@<TRIPOS>MOLECULE
tmp/3wljA01.pdb
 142 141 0 0 0
SMALL
GASTEIGER

@<TRIPOS>ATOM
      1  N          9.0220   37.4110   41.8310 N.3   425  TYR425     -0.1241
      2  CA         9.2720   36.8690   43.1750 C.3   425  TYR425      0.1605
      3  C          8.6300   35.5000   43.3360 C.2   425  TYR425      0.2264
      4  O          9.1980   34.6180   43.9860 O.2   425  TYR425     -0.2867
      5  CB         8.7230   37.8120   44.2410 C.3   425  TYR425      0.0534
      6  CG         9.5880   39.0020   44.5590 C.ar  425  TYR425     -0.0201
      7  CD1       10.7390   39.3230   43.8010 C.ar  425  TYR425     -0.0009
      8  CD2        9.2490   39.8300   45.6330 C.ar  425  TYR425     -0.0009
      9  CE1       11.5340   40.4360   44.1240 C.ar  425  TYR425      0.0417
     10  CE2       10.0110   40.9570   45.9430 C.ar  425  TYR425      0.0417
     11  CZ        11.1540   41.2430   45.1960 C.ar  425  TYR425      0.1957
     12  OH        11.9180   42.3340   45.5340 O.3   425  TYR425     -0.2866
     13  N         14.2930   37.5420   38.7200 N.3   437  ASP437     -0.1225
     14  CA        14.1580   38.9840   38.6510 C.3   437  ASP437      0.1805
     15  C         12.8770   39.4190   39.3680 C.2   437  ASP437      0.2598
     16  O         12.1040   38.5820   39.8610 O.2   437  ASP437     -0.2718
     17  CB        14.1550   39.4130   37.1610 C.3   437  ASP437      0.1424
     18  CG        14.5010   40.8920   36.9380 C.2   437  ASP437      0.3668
     19  OD1       14.8180   41.6840   37.8870 O.co2 437  ASP437     -0.2456
     20  OD2       14.4210   41.2760   35.7470 O.co2 437  ASP437     -0.2456
     21  N         12.6770   40.7280   39.4350 N.am  438  THR438     -0.1953
     22  CA        11.5160   41.3210   40.0920 C.3   438  THR438      0.1897
     23  C         10.4780   41.8180   39.0780 C.2   438  THR438      0.2313
     24  O         10.8200   42.2740   37.9690 O.2   438  THR438     -0.2863
     25  CB        11.9510   42.4790   41.0380 C.3   438  THR438      0.1794
     26  OG1       10.8120   42.9830   41.7360 O.3   438  THR438     -0.2208
     27  CG2       12.6210   43.6170   40.2320 C.3   438  THR438      0.0378
     28  N         13.6780   36.8470   48.1590 N.3   487  HIS487     -0.1227
     29  CA        13.8760   37.3710   46.8020 C.3   487  HIS487      0.1737
     30  C         14.5000   36.2660   45.9380 C.2   487  HIS487      0.2438
     31  O         15.0370   35.2950   46.4770 O.2   487  HIS487     -0.2733
     32  CB        14.7290   38.6410   46.8460 C.3   487  HIS487      0.0758
     33  CG        14.0720   39.7610   47.5990 C.ar  487  HIS487      0.0818
     34  ND1       14.7540   40.8650   48.0620 N.ar  487  HIS487     -0.2268
     35  CD2       12.7890   39.9150   48.0080 C.ar  487  HIS487      0.1154
     36  CE1       13.9140   41.6640   48.6990 C.ar  487  HIS487      0.1986
     37  NE2       12.7150   41.1100   48.6820 N.ar  487  HIS487     -0.2212
     38  N         14.3680   36.3660   44.6020 N.am  488  PRO488     -0.2718
     39  CA        14.9550   35.3300   43.7280 C.3   488  PRO488      0.1535
     40  C         16.4780   35.2220   43.8590 C.2   488  PRO488      0.2598
     41  O         17.1740   36.2290   44.0440 O.2   488  PRO488     -0.2715
     42  CB        14.5730   35.8020   42.3080 C.3   488  PRO488      0.0310
     43  CG        13.2950   36.6080   42.5320 C.3   488  PRO488      0.0237
     44  CD        13.5900   37.3620   43.8330 C.3   488  PRO488      0.0939
     45  N         16.9810   34.0000   43.7520 N.am  489  TYR489     -0.1974
     46  CA        18.4310   33.7610   43.8050 C.3   489  TYR489      0.1639
     47  C         18.7260   32.4320   43.1560 C.2   489  TYR489      0.2290
     48  O         17.8410   31.5630   43.0470 O.2   489  TYR489     -0.2864
     49  CB        18.9480   33.7670   45.2610 C.3   489  TYR489      0.0560
     50  CG        18.2200   32.7750   46.1560 C.ar  489  TYR489     -0.0198
     51  CD1       18.5160   31.4090   46.1140 C.ar  489  TYR489     -0.0009
     52  CD2       17.2020   33.2090   47.0290 C.ar  489  TYR489     -0.0009
     53  CE1       17.8280   30.4820   46.9220 C.ar  489  TYR489      0.0417
     54  CE2       16.4990   32.3000   47.8260 C.ar  489  TYR489      0.0417
     55  CZ        16.8240   30.9500   47.7790 C.ar  489  TYR489      0.1957
     56  OH        16.1210   30.0700   48.5720 O.3   489  TYR489     -0.2866
     57  N         24.7690   32.9660   45.0400 N.3   493  LYS493     -0.1231
     58  CA        24.0140   34.1240   45.5190 C.3   493  LYS493      0.1693
     59  C         22.9300   33.7570   46.5350 C.2   493  LYS493      0.2593
     60  O         22.5100   34.6090   47.3190 O.2   493  LYS493     -0.2718
     61  CB        23.4010   34.9100   44.3570 C.3   493  LYS493      0.0285
     62  CG        24.4240   35.6840   43.5320 C.3   493  LYS493      0.0035
     63  CD        24.7820   37.0140   44.1700 C.3   493  LYS493      0.0206
     64  CE        25.2760   38.0160   43.1220 C.3   493  LYS493      0.1093
     65  NZ        25.7170   39.2850   43.7970 N.3   493  LYS493     -0.1314
     66  N         22.4910   32.5000   46.5290 N.am  494  GLY494     -0.1942
     67  CA        21.4670   32.0350   47.4690 C.3   494  GLY494      0.2014
     68  C         21.9870   31.4420   48.7710 C.2   494  GLY494      0.2639
     69  O         21.1910   31.1440   49.6860 O.2   494  GLY494     -0.2714
     70  N         23.2990   31.1980   48.8520 N.am  495  ASP495     -0.1957
     71  CA        23.8990   30.6940   50.1030 C.3   495  ASP495      0.1840
     72  C         23.5940   31.7060   51.2090 C.2   495  ASP495      0.2622
     73  O         23.7910   32.9020   51.0330 O.2   495  ASP495     -0.2715
     74  CB        25.4280   30.5260   49.9700 C.3   495  ASP495      0.1450
     75  CG        25.8340   29.3260   49.1070 C.2   495  ASP495      0.3671
     76  OD1       24.9580   28.5580   48.6430 O.co2 495  ASP495     -0.2456
     77  OD2       27.0730   29.1380   48.9070 O.co2 495  ASP495     -0.2456
     78  N         23.0940   31.2260   52.3410 N.am  496  ASN496     -0.1958
     79  CA        22.5430   32.1270   53.3510 C.3   496  ASN496      0.1819
     80  C         22.6260   31.4580   54.7170 C.2   496  ASN496      0.2621
     81  O         22.0000   30.4230   54.9420 O.2   496  ASN496     -0.2715
     82  CB        21.0810   32.4190   52.9800 C.3   496  ASN496      0.1195
     83  CG        20.4340   33.4700   53.8520 C.2   496  ASN496      0.2630
     84  OD1       20.7810   33.6520   55.0290 O.2   496  ASN496     -0.2716
     85  ND2       19.4610   34.1760   53.2700 N.am  496  ASN496     -0.0877
     86  N         23.4170   32.0510   55.6160 N.am  497  LEU497     -0.1963
     87  CA        23.6420   31.4490   56.9300 C.3   497  LEU497      0.1728
     88  C         22.5910   31.8250   57.9790 C.2   497  LEU497      0.2616
     89  O         22.5370   31.1930   59.0430 O.2   497  LEU497     -0.2715
     90  CB        25.0390   31.8110   57.4560 C.3   497  LEU497      0.0311
     91  CG        26.2490   31.3070   56.6660 C.3   497  LEU497      0.0022
     92  CD1       27.5110   31.8240   57.3670 C.3   497  LEU497      0.0001
     93  CD2       26.2560   29.7830   56.5350 C.3   497  LEU497      0.0001
     94  N         21.7660   32.8340   57.6930 N.am  498  ASN498     -0.1972
     95  CA        20.7910   33.3180   58.6830 C.3   498  ASN498      0.1688
     96  C         19.3430   32.9210   58.3810 C.2   498  ASN498      0.2292
     97  O         18.5130   32.8020   59.2980 O.2   498  ASN498     -0.2864
     98  CB        20.9050   34.8340   58.8620 C.3   498  ASN498      0.1181
     99  CG        20.5380   35.6100   57.6080 C.2   498  ASN498      0.2629
    100  OD1       19.3480   35.7120   57.2460 O.2   498  ASN498     -0.2716
    101  ND2       21.5580   36.2060   56.9570 N.am  498  ASN498     -0.0877
    102  N         16.6980   34.3340   57.3160 N.3   500  THR500     -0.1218
    103  CA        15.6180   35.2230   57.7420 C.3   500  THR500      0.1862
    104  C         15.1190   35.9610   56.5070 C.2   500  THR500      0.2287
    105  O         15.9160   36.3540   55.6440 O.2   500  THR500     -0.2866
    106  CB        16.0990   36.2170   58.8220 C.3   500  THR500      0.1770
    107  OG1       17.1780   37.0070   58.3020 O.3   500  THR500     -0.2211
    108  CG2       16.5920   35.4410   60.0170 C.3   500  THR500      0.0375
    109  N         13.8220   38.8860   53.9730 N.3   502  PRO502     -0.2102
    110  CA        14.0540   40.3280   53.9580 C.3   502  PRO502      0.1504
    111  C         12.8590   41.1440   54.4680 C.2   502  PRO502      0.2576
    112  O         11.7040   40.6980   54.4150 O.2   502  PRO502     -0.2718
    113  CB        14.3190   40.6410   52.4740 C.3   502  PRO502      0.0282
    114  CG        13.7100   39.5120   51.7090 C.3   502  PRO502      0.0208
    115  CD        13.8400   38.3050   52.6120 C.3   502  PRO502      0.0893
    116  N         13.1660   42.3280   54.9750 N.am  503  GLU503     -0.1967
    117  CA        12.1510   43.2900   55.3770 C.3   503  GLU503      0.1718
    118  C         11.9770   44.3570   54.3040 C.2   503  GLU503      0.2458
    119  O         12.9200   44.6270   53.5480 O.2   503  GLU503     -0.2730
    120  CB        12.5140   43.8970   56.7300 C.3   503  GLU503      0.0428
    121  CG        12.4210   42.8800   57.8520 C.3   503  GLU503      0.1163
    122  CD        11.0150   42.3090   58.0060 C.2   503  GLU503      0.3649
    123  OE1       10.0890   43.1320   58.2320 O.co2 503  GLU503     -0.2457
    124  OE2       10.8530   41.0490   57.8950 O.co2 503  GLU503     -0.2457
    125  N         10.7600   44.9440   54.2020 N.am  504  PRO504     -0.2727
    126  CA         9.6050   44.5950   55.0290 C.3   504  PRO504      0.1402
    127  C          8.9880   43.2440   54.6150 C.2   504  PRO504      0.2269
    128  O          8.7810   42.9500   53.4100 O.2   504  PRO504     -0.2865
    129  CB         8.6410   45.7640   54.8030 C.3   504  PRO504      0.0296
    130  CG         8.9630   46.2530   53.4400 C.3   504  PRO504      0.0237
    131  CD        10.4500   46.0270   53.2510 C.3   504  PRO504      0.0939
    132  N         12.8980   27.3570   50.5340 N.3   526  ARG526     -0.1245
    133  CA        13.4120   26.5380   51.6360 C.3   526  ARG526      0.1563
    134  C         12.7550   26.9830   52.9470 C.2   526  ARG526      0.2260
    135  O         12.2160   28.0970   53.0360 O.2   526  ARG526     -0.2867
    136  CB        14.9210   26.7610   51.7860 C.3   526  ARG526      0.0307
    137  CG        15.2970   28.2120   51.9460 C.3   526  ARG526      0.0489
    138  CD        16.8180   28.4210   51.9350 C.3   526  ARG526      0.2205
    139  NE        17.1470   29.7830   51.5470 N.pl3 526  ARG526     -0.0865
    140  CZ        18.3580   30.1770   51.1420 C.cat 526  ARG526      0.5346
    141  NH1       19.3620   29.3080   51.0830 N.pl3 526  ARG526      0.1354
    142  NH2       18.5540   31.4300   50.7690 N.pl3 526  ARG526      0.1354
@<TRIPOS>BOND
     1    20    18   ar
     2    18    17    1
     3    18    19   ar
     4    17    14    1
     5    24    23    2
     6    14    13    1
     7    14    15    1
     8    23    22    1
     9    15    21   am
    10    15    16    2
    11    21    22    1
    12    22    25    1
    13    27    25    1
    14    25    26    1
    15     1     2    1
    16    42    43    1
    17    42    39    1
    18    43    44    1
    19    48    47    2
    20    64    65    1
    21    64    63    1
    22    47    46    1
    23     2     3    1
    24     2     5    1
    25     3     4    2
    26    62    63    1
    27    62    61    1
    28    39    40    1
    29    39    38    1
    30    45    46    1
    31    45    40   am
    32     7     9   ar
    33     7     6   ar
    34    46    49    1
    35    44    38    1
    36    40    41    2
    37     9    11   ar
    38     5     6    1
    39    61    58    1
    40     6     8   ar
    41    38    30   am
    42    57    58    1
    43    11    12    1
    44    11    10   ar
    45    49    50    1
    46    58    59    1
    47     8    10   ar
    48    30    31    2
    49    30    29    1
    50    51    50   ar
    51    51    53   ar
    52    50    52   ar
    53    66    59   am
    54    66    67    1
    55    59    60    2
    56    29    32    1
    57    29    28    1
    58    32    33    1
    59    53    55   ar
    60    52    54   ar
    61    67    68    1
    62    33    35   ar
    63    33    34   ar
    64    55    54   ar
    65    55    56    1
    66    35    37   ar
    67    34    36   ar
    68    76    75   ar
    69    37    36   ar
    70    68    70   am
    71    68    69    2
    72    70    71    1
    73    77    75   ar
    74    75    74    1
    75    74    71    1
    76    71    72    1
    77   132   133    1
    78   142   140    1
    79    73    72    2
    80   141   140    1
    81   140   139    2
    82    72    78   am
    83   139   138    1
    84   133   136    1
    85   133   134    1
    86   114   113    1
    87   114   115    1
    88   136   137    1
    89   138   137    1
    90    78    79    1
    91   113   110    1
    92   115   109    1
    93   134   135    2
    94    82    79    1
    95    82    83    1
    96   131   130    1
    97   131   125    1
    98    85    83   am
    99    79    80    1
   100   128   127    2
   101   130   129    1
   102   119   118    2
   103    83    84    2
   104   110   109    1
   105   110   111    1
   106   125   118   am
   107   125   126    1
   108   118   117    1
   109   112   111    2
   110   111   116   am
   111   127   126    1
   112    80    81    2
   113    80    86   am
   114   129   126    1
   115   116   117    1
   116   117   120    1
   117    86    87    1
   118   105   104    2
   119   104   103    1
   120    93    91    1
   121    91    92    1
   122    91    90    1
   123   120   121    1
   124    87    90    1
   125    87    88    1
   126   101    99   am
   127   100    99    2
   128   102   103    1
   129    99    98    1
   130    94    88   am
   131    94    95    1
   132   103   106    1
   133   121   122    1
   134   124   122   ar
   135    88    89    2
   136   122   123   ar
   137   107   106    1
   138    96    95    1
   139    96    97    2
   140    95    98    1
   141   106   108    1
