@<TRIPOS>MOLECULE
tmp/3wlkA01.pdb
 151 149 0 0 0
SMALL
GASTEIGER

@<TRIPOS>ATOM
      1  N          9.0270   37.2910   41.8090 N.3   425  TYR425     -0.1241
      2  CA         9.2590   36.7360   43.1610 C.3   425  TYR425      0.1605
      3  C          8.6130   35.3620   43.3540 C.2   425  TYR425      0.2264
      4  O          9.1830   34.4960   44.0040 O.2   425  TYR425     -0.2867
      5  CB         8.7100   37.6860   44.2260 C.3   425  TYR425      0.0534
      6  CG         9.5940   38.8760   44.5540 C.ar  425  TYR425     -0.0201
      7  CD1       10.7380   39.1810   43.8020 C.ar  425  TYR425     -0.0009
      8  CD2        9.2620   39.7110   45.6190 C.ar  425  TYR425     -0.0009
      9  CE1       11.5430   40.2940   44.1260 C.ar  425  TYR425      0.0417
     10  CE2       10.0390   40.8200   45.9490 C.ar  425  TYR425      0.0417
     11  CZ        11.1750   41.1070   45.2040 C.ar  425  TYR425      0.1957
     12  OH        11.9420   42.1940   45.5520 O.3   425  TYR425     -0.2866
     13  N         19.3550   34.5270   37.6510 N.3   435  GLN435     -0.1245
     14  CA        19.0600   34.7710   39.0780 C.3   435  GLN435      0.1566
     15  C         17.5690   34.9920   39.3560 C.2   435  GLN435      0.2260
     16  O         17.1780   35.2980   40.4920 O.2   435  GLN435     -0.2867
     17  CB        19.8660   35.9860   39.5770 C.3   435  GLN435      0.0367
     18  CG        21.3740   35.7000   39.7240 C.3   435  GLN435      0.0905
     19  CD        21.6820   34.6760   40.8260 C.2   435  GLN435      0.2608
     20  OE1       21.0450   34.6720   41.9000 O.2   435  GLN435     -0.2717
     21  NE2       22.6630   33.8130   40.5700 N.am  435  GLN435     -0.0878
     22  N         14.2100   37.4280   38.7560 N.3   437  ASP437     -0.1225
     23  CA        14.0730   38.8670   38.6620 C.3   437  ASP437      0.1805
     24  C         12.8060   39.3010   39.3890 C.2   437  ASP437      0.2598
     25  O         12.0320   38.4700   39.8770 O.2   437  ASP437     -0.2718
     26  CB        14.0490   39.2850   37.1700 C.3   437  ASP437      0.1424
     27  CG        14.4580   40.7480   36.9380 C.2   437  ASP437      0.3668
     28  OD1       14.7960   41.5000   37.8970 O.co2 437  ASP437     -0.2456
     29  OD2       14.4440   41.1350   35.7550 O.co2 437  ASP437     -0.2456
     30  N         12.6080   40.6080   39.4620 N.am  438  THR438     -0.1953
     31  CA        11.4700   41.1690   40.1610 C.3   438  THR438      0.1897
     32  C         10.4450   41.6470   39.1350 C.2   438  THR438      0.2313
     33  O         10.8080   42.1180   38.0410 O.2   438  THR438     -0.2863
     34  CB        11.9030   42.3430   41.0710 C.3   438  THR438      0.1794
     35  OG1       10.7610   42.8320   41.7830 O.3   438  THR438     -0.2208
     36  CG2       12.5690   43.4740   40.2530 C.3   438  THR438      0.0378
     37  N         13.6790   36.6460   48.1690 N.3   487  HIS487     -0.1227
     38  CA        13.8490   37.1520   46.8060 C.3   487  HIS487      0.1737
     39  C         14.4630   36.0680   45.9280 C.2   487  HIS487      0.2438
     40  O         14.9950   35.0780   46.4460 O.2   487  HIS487     -0.2733
     41  CB        14.7040   38.4040   46.8240 C.3   487  HIS487      0.0758
     42  CG        14.0730   39.5270   47.5820 C.ar  487  HIS487      0.0818
     43  ND1       14.7760   40.6320   48.0020 N.ar  487  HIS487     -0.2268
     44  CD2       12.8020   39.6960   48.0210 C.ar  487  HIS487      0.1154
     45  CE1       13.9610   41.4460   48.6550 C.ar  487  HIS487      0.1986
     46  NE2       12.7590   40.8990   48.6840 N.ar  487  HIS487     -0.2212
     47  N         14.3340   36.2040   44.5990 N.am  488  PRO488     -0.2718
     48  CA        14.9140   35.1770   43.7010 C.3   488  PRO488      0.1535
     49  C         16.4280   35.0580   43.8290 C.2   488  PRO488      0.2598
     50  O         17.1320   36.0580   43.9980 O.2   488  PRO488     -0.2715
     51  CB        14.5350   35.6790   42.3010 C.3   488  PRO488      0.0310
     52  CG        13.3200   36.5280   42.5330 C.3   488  PRO488      0.0237
     53  CD        13.5810   37.2290   43.8470 C.3   488  PRO488      0.0939
     54  N         16.9310   33.8350   43.7620 N.am  489  TYR489     -0.1974
     55  CA        18.3820   33.6160   43.8230 C.3   489  TYR489      0.1639
     56  C         18.6800   32.3050   43.1310 C.2   489  TYR489      0.2290
     57  O         17.7950   31.4530   42.9930 O.2   489  TYR489     -0.2864
     58  CB        18.9230   33.5620   45.2700 C.3   489  TYR489      0.0560
     59  CG        18.1860   32.5710   46.1490 C.ar  489  TYR489     -0.0198
     60  CD1       18.4790   31.1960   46.1090 C.ar  489  TYR489     -0.0009
     61  CD2       17.1710   33.0080   47.0000 C.ar  489  TYR489     -0.0009
     62  CE1       17.7790   30.2870   46.9170 C.ar  489  TYR489      0.0417
     63  CE2       16.4590   32.1110   47.8030 C.ar  489  TYR489      0.0417
     64  CZ        16.7650   30.7580   47.7530 C.ar  489  TYR489      0.1957
     65  OH        16.0420   29.8870   48.5400 O.3   489  TYR489     -0.2866
     66  N         24.7160   32.7250   44.9980 N.3   493  LYS493     -0.1231
     67  CA        23.9360   33.8680   45.4880 C.3   493  LYS493      0.1693
     68  C         22.8620   33.4710   46.4960 C.2   493  LYS493      0.2593
     69  O         22.4460   34.2950   47.3060 O.2   493  LYS493     -0.2718
     70  CB        23.3000   34.6450   44.3270 C.3   493  LYS493      0.0285
     71  CG        24.2970   35.4770   43.5250 C.3   493  LYS493      0.0035
     72  CD        24.4800   36.8510   44.1710 C.3   493  LYS493      0.0206
     73  CE        25.5970   37.6650   43.5110 C.3   493  LYS493      0.1093
     74  NZ        25.2380   38.0630   42.1120 N.3   493  LYS493     -0.1314
     75  N         22.4100   32.2200   46.4440 N.am  494  GLY494     -0.1942
     76  CA        21.3810   31.7490   47.3700 C.3   494  GLY494      0.2014
     77  C         21.9040   31.2220   48.7000 C.2   494  GLY494      0.2639
     78  O         21.1130   30.9950   49.6260 O.2   494  GLY494     -0.2714
     79  N         23.2160   30.9820   48.7910 N.am  495  ASP495     -0.1957
     80  CA        23.8150   30.4680   50.0420 C.3   495  ASP495      0.1840
     81  C         23.5120   31.4870   51.1600 C.2   495  ASP495      0.2622
     82  O         23.7390   32.6900   50.9940 O.2   495  ASP495     -0.2715
     83  CB        25.3440   30.2730   49.9290 C.3   495  ASP495      0.1450
     84  CG        25.7440   29.0630   49.0750 C.2   495  ASP495      0.3671
     85  OD1       24.8590   28.3370   48.5650 O.co2 495  ASP495     -0.2456
     86  OD2       26.9670   28.8580   48.9030 O.co2 495  ASP495     -0.2456
     87  N         22.9990   31.0070   52.2920 N.am  496  ASN496     -0.1958
     88  CA        22.4610   31.9030   53.3160 C.3   496  ASN496      0.1819
     89  C         22.5770   31.2230   54.6770 C.2   496  ASN496      0.2621
     90  O         21.9210   30.2000   54.9200 O.2   496  ASN496     -0.2715
     91  CB        21.0050   32.2210   52.9590 C.3   496  ASN496      0.1195
     92  CG        20.3830   33.2930   53.8410 C.2   496  ASN496      0.2630
     93  OD1       20.7420   33.4720   55.0070 O.2   496  ASN496     -0.2716
     94  ND2       19.4230   34.0090   53.2730 N.am  496  ASN496     -0.0877
     95  N         23.4180   31.7860   55.5510 N.am  497  LEU497     -0.1963
     96  CA        23.6510   31.2030   56.8790 C.3   497  LEU497      0.1728
     97  C         22.5920   31.5740   57.9180 C.2   497  LEU497      0.2616
     98  O         22.5620   30.9610   58.9850 O.2   497  LEU497     -0.2715
     99  CB        25.0420   31.5720   57.4170 C.3   497  LEU497      0.0311
    100  CG        26.2600   31.0700   56.6310 C.3   497  LEU497      0.0022
    101  CD1       27.5600   31.5320   57.3080 C.3   497  LEU497      0.0001
    102  CD2       26.2520   29.5350   56.4300 C.3   497  LEU497      0.0001
    103  N         21.7540   32.5740   57.6280 N.am  498  ASN498     -0.1972
    104  CA        20.7820   33.0680   58.6210 C.3   498  ASN498      0.1688
    105  C         19.3240   32.6940   58.3590 C.2   498  ASN498      0.2292
    106  O         18.5160   32.6410   59.3000 O.2   498  ASN498     -0.2864
    107  CB        20.9100   34.5850   58.8360 C.3   498  ASN498      0.1181
    108  CG        20.5270   35.3990   57.5970 C.2   498  ASN498      0.2629
    109  OD1       19.3410   35.4630   57.2120 O.2   498  ASN498     -0.2716
    110  ND2       21.5420   36.0440   56.9700 N.am  498  ASN498     -0.0877
    111  N         16.6920   34.1270   57.2900 N.3   500  THR500     -0.1218
    112  CA        15.6750   35.0670   57.7440 C.3   500  THR500      0.1862
    113  C         15.1350   35.7890   56.5150 C.2   500  THR500      0.2287
    114  O         15.9150   36.2090   55.6520 O.2   500  THR500     -0.2866
    115  CB        16.3090   36.0770   58.7330 C.3   500  THR500      0.1770
    116  OG1       16.6670   35.3750   59.9330 O.3   500  THR500     -0.2211
    117  CG2       15.3490   37.1880   59.0750 C.3   500  THR500      0.0375
    118  N         13.8340   38.7170   54.0150 N.3   502  PRO502     -0.2102
    119  CA        14.0780   40.1580   53.9580 C.3   502  PRO502      0.1504
    120  C         12.8950   40.9780   54.4790 C.2   502  PRO502      0.2576
    121  O         11.7390   40.5540   54.3940 O.2   502  PRO502     -0.2718
    122  CB        14.3030   40.4360   52.4520 C.3   502  PRO502      0.0282
    123  CG        13.7060   39.2700   51.7350 C.3   502  PRO502      0.0208
    124  CD        13.8470   38.0950   52.6710 C.3   502  PRO502      0.0893
    125  N         13.2090   42.1420   55.0260 N.am  503  GLU503     -0.1967
    126  CA        12.2030   43.1050   55.4200 C.3   503  GLU503      0.1718
    127  C         11.9980   44.1260   54.2960 C.2   503  GLU503      0.2458
    128  O         12.9280   44.3720   53.5200 O.2   503  GLU503     -0.2730
    129  CB        12.5990   43.7580   56.7430 C.3   503  GLU503      0.0428
    130  CG        12.5020   42.7710   57.9030 C.3   503  GLU503      0.1163
    131  CD        11.0980   42.1670   58.0300 C.2   503  GLU503      0.3649
    132  OE1       10.1600   42.9680   58.2810 O.co2 503  GLU503     -0.2457
    133  OE2       10.9350   40.9100   57.8490 O.co2 503  GLU503     -0.2457
    134  N         10.7650   44.6830   54.1740 N.am  504  PRO504     -0.2727
    135  CA         9.6250   44.3830   55.0460 C.3   504  PRO504      0.1402
    136  C          8.9740   43.0490   54.6470 C.2   504  PRO504      0.2269
    137  O          8.7620   42.7450   53.4470 O.2   504  PRO504     -0.2865
    138  CB         8.6840   45.5650   54.8070 C.3   504  PRO504      0.0296
    139  CG         8.9240   45.9200   53.3740 C.3   504  PRO504      0.0237
    140  CD        10.4070   45.6640   53.1310 C.3   504  PRO504      0.0939
    141  N         12.8310   27.1630   50.5060 N.3   526  ARG526     -0.1245
    142  CA        13.3400   26.3310   51.6120 C.3   526  ARG526      0.1563
    143  C         12.6710   26.7750   52.9110 C.2   526  ARG526      0.2260
    144  O         12.1210   27.8760   52.9700 O.2   526  ARG526     -0.2867
    145  CB        14.8460   26.5640   51.7780 C.3   526  ARG526      0.0307
    146  CG        15.2180   28.0680   51.8370 C.3   526  ARG526      0.0489
    147  CD        16.7130   28.2580   51.9430 C.3   526  ARG526      0.2205
    148  NE        17.0860   29.6070   51.5310 N.pl3 526  ARG526     -0.0865
    149  CZ        18.3040   29.9620   51.1310 C.cat 526  ARG526      0.5346
    150  NH1       19.2880   29.0680   51.0950 N.pl3 526  ARG526      0.1354
    151  NH2       18.5180   31.2150   50.7470 N.pl3 526  ARG526      0.1354
@<TRIPOS>BOND
     1    29    27   ar
     2    27    26    1
     3    27    28   ar
     4    26    23    1
     5    13    14    1
     6    33    32    2
     7    23    22    1
     8    23    24    1
     9    14    15    1
    10    14    17    1
    11    32    31    1
    12    15    16    2
    13    24    30   am
    14    24    25    2
    15    30    31    1
    16    17    18    1
    17    18    19    1
    18    31    34    1
    19    36    34    1
    20    21    19   am
    21    19    20    2
    22    34    35    1
    23     1     2    1
    24    74    73    1
    25    51    52    1
    26    51    48    1
    27    52    53    1
    28    57    56    2
    29    56    55    1
    30     2     3    1
    31     2     5    1
    32     3     4    2
    33    73    72    1
    34    71    72    1
    35    71    70    1
    36    48    49    1
    37    48    47    1
    38    54    55    1
    39    54    49   am
    40     7     9   ar
    41     7     6   ar
    42    55    58    1
    43    49    50    2
    44    53    47    1
    45     9    11   ar
    46     5     6    1
    47    70    67    1
    48     6     8   ar
    49    47    39   am
    50    66    67    1
    51    11    12    1
    52    11    10   ar
    53    58    59    1
    54    67    68    1
    55     8    10   ar
    56    39    40    2
    57    39    38    1
    58    60    59   ar
    59    60    62   ar
    60    59    61   ar
    61    75    68   am
    62    75    76    1
    63    68    69    2
    64    38    41    1
    65    38    37    1
    66    41    42    1
    67    62    64   ar
    68    61    63   ar
    69    76    77    1
    70    42    43   ar
    71    42    44   ar
    72    64    63   ar
    73    64    65    1
    74    43    45   ar
    75    44    46   ar
    76    85    84   ar
    77    45    46   ar
    78    77    79   am
    79    77    78    2
    80    79    80    1
    81    86    84   ar
    82    84    83    1
    83    83    80    1
    84    80    81    1
    85   141   142    1
    86   151   149    1
    87    82    81    2
    88   150   149    1
    89   149   148    2
    90    81    87   am
    91   148   147    1
    92   142   145    1
    93   142   143    1
    94   123   122    1
    95   123   124    1
    96   145   146    1
    97   146   147    1
    98    87    88    1
    99   122   119    1
   100   124   118    1
   101   143   144    2
   102    91    88    1
   103    91    92    1
   104   140   139    1
   105   140   134    1
   106    94    92   am
   107    88    89    1
   108   139   138    1
   109   137   136    2
   110   128   127    2
   111    92    93    2
   112   119   118    1
   113   119   120    1
   114   134   127   am
   115   134   135    1
   116   127   126    1
   117   121   120    2
   118   120   125   am
   119   136   135    1
   120    89    90    2
   121    89    95   am
   122   138   135    1
   123   125   126    1
   124   126   129    1
   125    95    96    1
   126   114   113    2
   127   102   100    1
   128   113   112    1
   129   100   101    1
   130   100    99    1
   131   129   130    1
   132    96    99    1
   133    96    97    1
   134   110   108   am
   135   109   108    2
   136   111   112    1
   137   108   107    1
   138   103    97   am
   139   103   104    1
   140   112   115    1
   141   133   131   ar
   142   130   131    1
   143    97    98    2
   144   131   132   ar
   145   105   104    1
   146   105   106    2
   147   104   107    1
   148   115   117    1
   149   115   116    1
