@<TRIPOS>MOLECULE
tmp/3wlmA02.pdb
 82 79 0 0 0
SMALL
GASTEIGER

@<TRIPOS>ATOM
      1  N          4.6090   17.8170   46.7970 N.3   118  THR118     -0.1203
      2  CA         3.4240   17.1960   46.2060 C.3   118  THR118      0.1994
      3  C          3.3800   15.6910   46.4400 C.2   118  THR118      0.2618
      4  O          2.3070   15.0970   46.3920 O.2   118  THR118     -0.2717
      5  CB         3.3120   17.4540   44.6750 C.3   118  THR118      0.1784
      6  OG1        4.3040   16.6770   43.9870 O.3   118  THR118     -0.2211
      7  CG2        3.4850   18.9360   44.3480 C.3   118  THR118      0.0376
      8  N          4.5460   15.0780   46.6690 N.am  119  ARG119     -0.1965
      9  CA         4.6730   13.6110   46.7300 C.3   119  ARG119      0.1729
     10  C          3.9780   12.9220   45.5460 C.2   119  ARG119      0.2616
     11  O          3.4180   11.8280   45.6920 O.2   119  ARG119     -0.2715
     12  CB         4.0960   13.0590   48.0420 C.3   119  ARG119      0.0348
     13  CG         4.6930   13.6350   49.3030 C.3   119  ARG119      0.0492
     14  CD         6.1590   13.2410   49.4810 C.3   119  ARG119      0.2205
     15  NE         6.5480   13.3710   50.8840 N.pl3 119  ARG119     -0.0865
     16  CZ         6.8480   14.5170   51.4900 C.cat 119  ARG119      0.5346
     17  NH1        6.8210   15.6670   50.8130 N.pl3 119  ARG119      0.1354
     18  NH2        7.1850   14.5080   52.7770 N.pl3 119  ARG119      0.1354
     19  N          3.9920   13.5730   44.3870 N.am  120  ASP120     -0.1971
     20  CA         3.2250   13.1140   43.2390 C.3   120  ASP120      0.1709
     21  C          4.1650   12.9630   42.0290 C.2   120  ASP120      0.2293
     22  O          4.2950   13.8770   41.2210 O.2   120  ASP120     -0.2864
     23  CB         2.0780   14.0940   42.9670 C.3   120  ASP120      0.1436
     24  CG         1.0960   13.5960   41.9130 C.2   120  ASP120      0.3671
     25  OD1        1.3800   12.5930   41.2210 O.co2 120  ASP120     -0.2456
     26  OD2        0.0300   14.2360   41.7710 O.co2 120  ASP120     -0.2456
     27  N         -5.8950   21.6490   50.8410 N.3   563  PHE563     -0.1227
     28  CA        -4.4360   21.5910   50.9770 C.3   563  PHE563      0.1736
     29  C         -4.0070   20.1410   51.1640 C.2   563  PHE563      0.2596
     30  O         -4.6080   19.4160   51.9640 O.2   563  PHE563     -0.2718
     31  CB        -3.9730   22.4120   52.1780 C.3   563  PHE563      0.0547
     32  CG        -4.0150   23.8990   51.9610 C.ar  563  PHE563     -0.0202
     33  CD1       -5.1700   24.6290   52.2510 C.ar  563  PHE563     -0.0042
     34  CD2       -2.8920   24.5740   51.4750 C.ar  563  PHE563     -0.0042
     35  CE1       -5.2050   26.0230   52.0530 C.ar  563  PHE563     -0.0003
     36  CE2       -2.9140   25.9560   51.2780 C.ar  563  PHE563     -0.0003
     37  CZ        -4.0740   26.6870   51.5770 C.ar  563  PHE563     -0.0000
     38  N         -2.9810   19.7150   50.4240 N.am  564  THR564     -0.1953
     39  CA        -2.5060   18.3320   50.4990 C.3   564  THR564      0.1897
     40  C         -0.9760   18.2020   50.6080 C.2   564  THR564      0.2313
     41  O         -0.4810   17.1340   50.9610 O.2   564  THR564     -0.2863
     42  CB        -2.9960   17.4640   49.2960 C.3   564  THR564      0.1794
     43  OG1       -2.6460   18.1100   48.0730 O.3   564  THR564     -0.2208
     44  CG2       -4.5180   17.2260   49.3390 C.3   564  THR564      0.0378
     45  N          2.9000   18.2180   51.7530 N.3   566  ARG566     -0.1245
     46  CA         3.5800   17.8970   53.0100 C.3   566  ARG566      0.1563
     47  C          5.0620   18.2840   52.9180 C.2   566  ARG566      0.2260
     48  O          5.6810   18.1270   51.8590 O.2   566  ARG566     -0.2867
     49  CB         3.4110   16.4120   53.3570 C.3   566  ARG566      0.0307
     50  CG         1.9550   16.0060   53.6200 C.3   566  ARG566      0.0489
     51  CD         1.8260   14.6090   54.2310 C.3   566  ARG566      0.2205
     52  NE         2.4240   13.5710   53.3890 N.pl3 566  ARG566     -0.0865
     53  CZ         1.8260   13.0160   52.3340 C.cat 566  ARG566      0.5346
     54  NH1        2.4600   12.0790   51.6280 N.pl3 566  ARG566      0.1354
     55  NH2        0.5940   13.3940   51.9810 N.pl3 566  ARG566      0.1354
     56  N         -4.2610   19.9150   56.5920 N.3   598  THR598     -0.1203
     57  CA        -5.1000   19.7950   55.4040 C.3   598  THR598      0.1994
     58  C         -6.3760   20.6120   55.5390 C.2   598  THR598      0.2619
     59  O         -6.7640   20.9960   56.6380 O.2   598  THR598     -0.2717
     60  CB        -5.4460   18.3220   55.1070 C.3   598  THR598      0.1784
     61  OG1       -6.1570   17.7760   56.2210 O.3   598  THR598     -0.2211
     62  CG2       -4.1660   17.4980   54.8600 C.3   598  THR598      0.0376
     63  N         -7.0010   20.9000   54.4070 N.am  599  THR599     -0.1938
     64  CA        -8.3670   21.4040   54.3930 C.3   599  THR599      0.2028
     65  C         -9.1600   20.5260   53.4370 C.2   599  THR599      0.2642
     66  O         -8.5840   19.7240   52.6930 O.2   599  THR599     -0.2714
     67  CB        -8.4660   22.8610   53.9090 C.3   599  THR599      0.1808
     68  OG1       -7.9070   22.9620   52.5950 O.3   599  THR599     -0.2208
     69  CG2       -7.7420   23.8160   54.8540 C.3   599  THR599      0.0379
     70  N        -10.4810   20.6720   53.4730 N.am  600  ASN600     -0.1957
     71  CA       -11.3510   20.0630   52.4710 C.3   600  ASN600      0.1819
     72  C        -11.9360   21.1160   51.5320 C.2   600  ASN600      0.2621
     73  O        -12.2150   22.2430   51.9510 O.2   600  ASN600     -0.2715
     74  CB       -12.4600   19.2520   53.1480 C.3   600  ASN600      0.1195
     75  CG       -11.9520   17.9340   53.7170 C.2   600  ASN600      0.2630
     76  OD1      -12.0620   17.6830   54.9210 O.2   600  ASN600     -0.2716
     77  ND2      -11.4000   17.0810   52.8400 N.am  600  ASN600     -0.0877
     78  N        -12.1010   20.7500   50.2610 N.am  601  ALA601     -0.1977
     79  CA       -12.7370   21.6300   49.2820 C.3   601  ALA601      0.1597
     80  C        -14.1390   22.0570   49.7490 C.2   601  ALA601      0.2287
     81  O        -14.9080   21.2230   50.2360 O.2   601  ALA601     -0.2864
     82  CB       -12.8040   20.9460   47.9230 C.3   601  ALA601      0.0319
@<TRIPOS>BOND
     1    22    21    2
     2    25    24   ar
     3    26    24   ar
     4    24    23    1
     5    21    20    1
     6    23    20    1
     7    20    19    1
     8     6     5    1
     9     7     5    1
    10    19    10   am
    11     5     2    1
    12    10    11    2
    13    10     9    1
    14     2     3    1
    15     2     1    1
    16     4     3    2
    17     3     8   am
    18     8     9    1
    19     9    12    1
    20    82    79    1
    21    12    13    1
    22    43    42    1
    23    79    80    1
    24    79    78    1
    25    42    44    1
    26    42    39    1
    27    13    14    1
    28    14    15    1
    29    80    81    2
    30    78    72   am
    31    38    39    1
    32    38    29   am
    33    39    40    1
    34    40    41    2
    35    17    16    1
    36    27    28    1
    37    15    16    2
    38    28    29    1
    39    28    31    1
    40    29    30    2
    41    36    34   ar
    42    36    37   ar
    43    34    32   ar
    44    16    18    1
    45    72    73    2
    46    72    71    1
    47    37    35   ar
    48    54    53    1
    49    45    46    1
    50    48    47    2
    51    32    31    1
    52    32    33   ar
    53    55    53    1
    54    35    33   ar
    55    53    52    2
    56    71    74    1
    57    71    70    1
    58    68    67    1
    59    66    65    2
    60    77    75   am
    61    47    46    1
    62    46    49    1
    63    74    75    1
    64    49    50    1
    65    52    51    1
    66    65    70   am
    67    65    64    1
    68    50    51    1
    69    75    76    2
    70    67    64    1
    71    67    69    1
    72    64    63    1
    73    63    58   am
    74    62    60    1
    75    60    57    1
    76    60    61    1
    77    57    58    1
    78    57    56    1
    79    58    59    2
