@<TRIPOS>MOLECULE
tmp/3wlmA03.pdb
 179 173 0 0 0
SMALL
GASTEIGER

@<TRIPOS>ATOM
      1  N         25.1580   25.8490   23.9890 N.3    54  LEU54      -0.1245
      2  CA        24.1880   26.1070   25.0390 C.3    54  LEU54       0.1561
      3  C         23.8500   27.5830   25.1580 C.2    54  LEU54       0.2260
      4  O         24.6000   28.4630   24.6910 O.2    54  LEU54      -0.2867
      5  CB        24.6810   25.5630   26.4040 C.3    54  LEU54       0.0270
      6  CG        25.5500   26.4860   27.2600 C.3    54  LEU54       0.0019
      7  CD1       25.4200   26.1700   28.7650 C.3    54  LEU54       0.0001
      8  CD2       27.0300   26.4400   26.8010 C.3    54  LEU54       0.0001
      9  N         23.5120   29.7430   28.3960 N.3    56  GLY56      -0.1210
     10  CA        23.5880   29.9200   29.8440 C.3    56  GLY56       0.1956
     11  C         22.3600   30.6700   30.3460 C.2    56  GLY56       0.2612
     12  O         21.5480   31.1710   29.5490 O.2    56  GLY56      -0.2717
     13  N         22.1940   30.7320   31.6650 N.am   57  GLY57      -0.1956
     14  CA        21.1060   31.5330   32.2390 C.3    57  GLY57       0.1869
     15  C         21.0280   32.9360   31.6370 C.2    57  GLY57       0.2309
     16  O         22.0190   33.6940   31.6410 O.2    57  GLY57      -0.2863
     17  N         19.1580   25.3220   30.4020 N.3    95  ASP95      -0.1239
     18  CA        18.5700   25.0610   31.7120 C.3    95  ASP95       0.1674
     19  C         17.0620   25.2800   31.6570 C.2    95  ASP95       0.2266
     20  O         16.5780   26.3690   31.9620 O.2    95  ASP95      -0.2867
     21  CB        19.2100   25.9480   32.7820 C.3    95  ASP95       0.1410
     22  CG        20.6900   25.6550   32.9510 C.2    95  ASP95       0.3668
     23  OD1       21.5080   26.4270   32.4310 O.co2  95  ASP95      -0.2456
     24  OD2       21.0200   24.6280   33.5760 O.co2  95  ASP95      -0.2456
     25  N         19.0910   20.6440   30.6860 N.3   144  PHE144     -0.1241
     26  CA        19.9530   20.3290   31.8390 C.3   144  PHE144      0.1605
     27  C         19.1370   20.0540   33.1090 C.2   144  PHE144      0.2264
     28  O         19.2160   20.7990   34.0900 O.2   144  PHE144     -0.2867
     29  CB        20.9950   21.4340   32.1050 C.3   144  PHE144      0.0534
     30  CG        21.8680   21.7740   30.9130 C.ar  144  PHE144     -0.0203
     31  CD1       21.9580   23.0900   30.4650 C.ar  144  PHE144     -0.0042
     32  CD2       22.6160   20.7910   30.2540 C.ar  144  PHE144     -0.0042
     33  CE1       22.7660   23.4300   29.3630 C.ar  144  PHE144     -0.0003
     34  CE2       23.4260   21.1180   29.1530 C.ar  144  PHE144     -0.0003
     35  CZ        23.4990   22.4410   28.7010 C.ar  144  PHE144     -0.0000
     36  N         21.1560   26.5100   46.3670 N.3   158  ARG158     -0.1245
     37  CA        20.4510   25.6780   45.3780 C.3   158  ARG158      0.1563
     38  C         19.4830   24.7100   46.0380 C.2   158  ARG158      0.2260
     39  O         18.9650   23.8040   45.3810 O.2   158  ARG158     -0.2867
     40  CB        21.4270   24.9190   44.4800 C.3   158  ARG158      0.0307
     41  CG        22.5850   25.7530   43.9660 C.3   158  ARG158      0.0489
     42  CD        23.3220   25.0300   42.8490 C.3   158  ARG158      0.2205
     43  NE        22.5650   25.0150   41.5890 N.pl3 158  ARG158     -0.0865
     44  CZ        23.0960   24.7410   40.3950 C.cat 158  ARG158      0.5346
     45  NH1       22.3310   24.7510   39.3000 N.pl3 158  ARG158      0.1354
     46  NH2       24.3970   24.4690   40.2940 N.pl3 158  ARG158      0.1354
     47  N         21.8330   15.7360   37.2970 N.3   206  LYS206     -0.1231
     48  CA        22.8920   16.6120   37.8160 C.3   206  LYS206      0.1693
     49  C         22.7260   16.8920   39.3260 C.2   206  LYS206      0.2592
     50  O         21.6280   16.7860   39.8460 O.2   206  LYS206     -0.2718
     51  CB        22.9370   17.9280   37.0150 C.3   206  LYS206      0.0285
     52  CG        21.7400   18.8400   37.2130 C.3   206  LYS206      0.0035
     53  CD        21.8010   20.0310   36.2740 C.3   206  LYS206      0.0206
     54  CE        20.8180   21.0880   36.6940 C.3   206  LYS206      0.1093
     55  NZ        20.8290   22.2570   35.7460 N.3   206  LYS206     -0.1314
     56  N         23.8050   17.2440   40.0330 N.am  207  HIS207     -0.1976
     57  CA        25.1710   17.3220   39.4990 C.3   207  HIS207      0.1656
     58  C         25.9530   16.2500   40.2480 C.2   207  HIS207      0.2291
     59  O         25.9570   16.2300   41.4820 O.2   207  HIS207     -0.2864
     60  CB        25.8170   18.6920   39.7730 C.3   207  HIS207      0.0771
     61  CG        24.9450   19.8680   39.4370 C.ar  207  HIS207      0.0820
     62  ND1       23.9850   20.3510   40.2990 N.ar  207  HIS207     -0.2267
     63  CD2       24.9040   20.6660   38.3420 C.ar  207  HIS207      0.1154
     64  CE1       23.3700   21.3810   39.7410 C.ar  207  HIS207      0.1986
     65  NE2       23.9040   21.5910   38.5500 N.ar  207  HIS207     -0.2212
     66  N         29.2340   24.6530   45.7390 N.3   220  GLU220     -0.1245
     67  CA        30.4510   24.2060   45.0420 C.3   220  GLU220      0.1567
     68  C         31.5570   23.7300   45.9900 C.2   220  GLU220      0.2260
     69  O         32.7040   23.5240   45.5670 O.2   220  GLU220     -0.2867
     70  CB        30.9910   25.3260   44.1410 C.3   220  GLU220      0.0388
     71  CG        29.9460   25.9420   43.2090 C.3   220  GLU220      0.1160
     72  CD        30.5240   26.9240   42.1920 C.2   220  GLU220      0.3649
     73  OE1       31.7660   26.9560   42.0030 O.co2 220  GLU220     -0.2457
     74  OE2       29.7160   27.6560   41.5720 O.co2 220  GLU220     -0.2457
     75  N         25.6130   15.5070   34.2510 N.3   250  MET250     -0.1245
     76  CA        26.5300   16.6220   34.4630 C.3   250  MET250      0.1570
     77  C         27.2890   16.4650   35.7740 C.2   250  MET250      0.2261
     78  O         26.6830   16.1420   36.8130 O.2   250  MET250     -0.2867
     79  CB        25.7970   17.9560   34.4420 C.3   250  MET250      0.0387
     80  CG        26.7040   19.1810   34.5410 C.3   250  MET250      0.0595
     81  SD        25.7260   20.6850   34.6360 S.3   250  MET250     -0.1393
     82  CE        24.8540   20.6260   33.0850 C.3   250  MET250      0.0692
     83  N         30.4790   20.8480   40.4890 N.3   253  TYR253     -0.1241
     84  CA        31.5990   21.6930   40.9170 C.3   253  TYR253      0.1605
     85  C         32.1520   21.2230   42.2600 C.2   253  TYR253      0.2264
     86  O         33.3240   21.4660   42.5750 O.2   253  TYR253     -0.2867
     87  CB        31.1460   23.1320   41.1320 C.3   253  TYR253      0.0534
     88  CG        30.7890   23.9580   39.9290 C.ar  253  TYR253     -0.0201
     89  CD1       29.5420   24.5900   39.8600 C.ar  253  TYR253     -0.0009
     90  CD2       31.6950   24.1600   38.8780 C.ar  253  TYR253     -0.0009
     91  CE1       29.1920   25.3860   38.7850 C.ar  253  TYR253      0.0417
     92  CE2       31.3450   24.9670   37.7780 C.ar  253  TYR253      0.0417
     93  CZ        30.0960   25.5700   37.7470 C.ar  253  TYR253      0.1957
     94  OH        29.7300   26.3730   36.6950 O.3   253  TYR253     -0.2866
     95  N         30.2190   20.8290   34.2070 N.3   285  ASP285     -0.1225
     96  CA        29.4980   22.0550   34.4870 C.3   285  ASP285      0.1805
     97  C         30.2770   23.2380   33.8840 C.2   285  ASP285      0.2597
     98  O         31.3940   23.0720   33.3740 O.2   285  ASP285     -0.2718
     99  CB        29.2690   22.2200   35.9920 C.3   285  ASP285      0.1424
    100  CG        28.0180   23.0410   36.3250 C.2   285  ASP285      0.3668
    101  OD1       27.5640   23.8530   35.4810 O.co2 285  ASP285     -0.2456
    102  OD2       27.4830   22.8720   37.4420 O.co2 285  ASP285     -0.2456
    103  N         29.6580   24.4170   33.9140 N.am  286  TRP286     -0.1976
    104  CA        30.1600   25.6380   33.2520 C.3   286  TRP286      0.1640
    105  C         31.5050   26.0700   33.8510 C.2   286  TRP286      0.2290
    106  O         31.5710   26.4410   35.0280 O.2   286  TRP286     -0.2864
    107  CB        29.0950   26.7150   33.4630 C.3   286  TRP286      0.0576
    108  CG        29.3750   28.1280   33.0190 C.ar  286  TRP286      0.0006
    109  CD1       30.2460   29.0050   33.5780 C.ar  286  TRP286      0.0946
    110  CD2       28.6940   28.8410   31.9770 C.ar  286  TRP286      0.0152
    111  NE1       30.1820   30.2190   32.9280 N.ar  286  TRP286     -0.2442
    112  CE2       29.2310   30.1450   31.9440 C.ar  286  TRP286      0.0810
    113  CE3       27.6820   28.5000   31.0630 C.ar  286  TRP286      0.0012
    114  CZ2       28.7990   31.1130   31.0290 C.ar  286  TRP286      0.0191
    115  CZ3       27.2540   29.4680   30.1450 C.ar  286  TRP286      0.0001
    116  CH2       27.8110   30.7540   30.1440 C.ar  286  TRP286      0.0015
    117  N         37.7520   25.0960   37.3880 N.3   291  ARG291     -0.1245
    118  CA        37.5770   25.2170   38.8360 C.3   291  ARG291      0.1563
    119  C         38.1760   24.0580   39.6350 C.2   291  ARG291      0.2260
    120  O         38.1560   24.0690   40.8700 O.2   291  ARG291     -0.2867
    121  CB        36.0950   25.4650   39.1650 C.3   291  ARG291      0.0307
    122  CG        35.6040   26.8090   38.6120 C.3   291  ARG291      0.0489
    123  CD        34.1910   27.1790   39.0540 C.3   291  ARG291      0.2205
    124  NE        33.6280   28.1860   38.1510 N.pl3 291  ARG291     -0.0865
    125  CZ        32.3710   28.6340   38.1830 C.cat 291  ARG291      0.5346
    126  NH1       31.5170   28.1900   39.1030 N.pl3 291  ARG291      0.1354
    127  NH2       31.9700   29.5420   37.2910 N.pl3 291  ARG291      0.1354
    128  N         31.6340   21.7060   28.8030 N.3   316  MET316     -0.1245
    129  CA        30.9510   22.9990   28.7310 C.3   316  MET316      0.1570
    130  C         32.0120   24.0680   28.9600 C.2   316  MET316      0.2261
    131  O         32.3060   24.4340   30.1070 O.2   316  MET316     -0.2867
    132  CB        29.8390   23.0720   29.7900 C.3   316  MET316      0.0387
    133  CG        28.9360   24.3080   29.7240 C.3   316  MET316      0.0595
    134  SD        27.7570   24.3220   31.1040 S.3   316  MET316     -0.1393
    135  CE        26.7780   22.8630   30.7360 C.3   316  MET316      0.0692
    136  N         16.4160   31.2750   38.0840 N.3   430  TRP430     -0.1241
    137  CA        16.2790   30.5800   36.8000 C.3   430  TRP430      0.1605
    138  C         14.9510   30.9280   36.1310 C.2   430  TRP430      0.2264
    139  O         14.1830   30.0430   35.7480 O.2   430  TRP430     -0.2867
    140  CB        16.3690   29.0590   36.9810 C.3   430  TRP430      0.0550
    141  CG        17.7270   28.5010   37.3500 C.ar  430  TRP430      0.0003
    142  CD1       18.0680   27.9080   38.5360 C.ar  430  TRP430      0.0946
    143  CD2       18.9020   28.4530   36.5240 C.ar  430  TRP430      0.0152
    144  NE1       19.3810   27.4840   38.4970 N.ar  430  TRP430     -0.2442
    145  CE2       19.9220   27.8250   37.2860 C.ar  430  TRP430      0.0810
    146  CE3       19.2040   28.8990   35.2260 C.ar  430  TRP430      0.0012
    147  CZ2       21.2190   27.6160   36.7870 C.ar  430  TRP430      0.0191
    148  CZ3       20.5040   28.6970   34.7260 C.ar  430  TRP430      0.0001
    149  CH2       21.4900   28.0540   35.5060 C.ar  430  TRP430      0.0015
    150  N         19.2570   34.5420   34.7230 N.3   434  TRP434     -0.1241
    151  CA        19.9080   33.5120   35.5300 C.3   434  TRP434      0.1605
    152  C         19.4730   33.5780   37.0100 C.2   434  TRP434      0.2264
    153  O         19.0310   32.5750   37.6000 O.2   434  TRP434     -0.2867
    154  CB        21.4300   33.6610   35.3790 C.3   434  TRP434      0.0550
    155  CG        22.2460   32.7380   36.2240 C.ar  434  TRP434      0.0003
    156  CD1       22.0470   31.3890   36.4090 C.ar  434  TRP434      0.0946
    157  CD2       23.4140   33.0790   36.9840 C.ar  434  TRP434      0.0152
    158  NE1       23.0220   30.8830   37.2340 N.ar  434  TRP434     -0.2442
    159  CE2       23.8640   31.8950   37.6130 C.ar  434  TRP434      0.0810
    160  CE3       24.1170   34.2730   37.2030 C.ar  434  TRP434      0.0012
    161  CZ2       24.9950   31.8650   38.4420 C.ar  434  TRP434      0.0191
    162  CZ3       25.2350   34.2490   38.0300 C.ar  434  TRP434      0.0001
    163  CH2       25.6660   33.0480   38.6400 C.ar  434  TRP434      0.0015
    164  N         22.3220   29.6710   42.6560 N.3   491  GLU491     -0.1231
    165  CA        23.6790   29.2250   42.9540 C.3   491  GLU491      0.1699
    166  C         24.2540   30.0190   44.1400 C.2   491  GLU491      0.2592
    167  O         23.5650   30.1800   45.1480 O.2   491  GLU491     -0.2718
    168  CB        24.5630   29.2540   41.6880 C.3   491  GLU491      0.0402
    169  CG        24.1700   28.1760   40.6810 C.3   491  GLU491      0.1161
    170  CD        24.8440   28.3110   39.3330 C.2   491  GLU491      0.3649
    171  OE1       26.0760   28.1050   39.2480 O.co2 491  GLU491     -0.2457
    172  OE2       24.1230   28.5900   38.3450 O.co2 491  GLU491     -0.2457
    173  N         25.4740   30.5420   44.0200 N.am  492  THR492     -0.1953
    174  CA        26.1730   31.1010   45.1930 C.3   492  THR492      0.1897
    175  C         25.4660   32.3310   45.7610 C.2   492  THR492      0.2313
    176  O         25.4510   32.5350   46.9770 O.2   492  THR492     -0.2863
    177  CB        27.6780   31.3310   44.9120 C.3   492  THR492      0.1794
    178  OG1       28.2780   30.0760   44.5670 O.3   492  THR492     -0.2208
    179  CG2       28.4080   31.9040   46.1330 C.3   492  THR492      0.0378
@<TRIPOS>BOND
     1     1     2    1
     2     4     3    2
     3     2     3    1
     4     2     5    1
     5     5     6    1
     6     8     6    1
     7     6     7    1
     8     9    10    1
     9    35    34   ar
    10    35    33   ar
    11   129   128    1
    12   129   130    1
    13   129   132    1
    14   130   131    2
    15    34    32   ar
    16    33    31   ar
    17    12    11    2
    18   133   132    1
    19   133   134    1
    20    10    11    1
    21   116   115   ar
    22   116   114   ar
    23   115   113   ar
    24    32    30   ar
    25    11    13   am
    26    17    18    1
    27    31    30   ar
    28    25    26    1
    29   135   134    1
    30    30    29    1
    31   114   112   ar
    32   113   110   ar
    33    15    16    2
    34    15    14    1
    35    19    18    1
    36    19    20    2
    37    13    14    1
    38    18    21    1
    39    26    29    1
    40    26    27    1
    41   112   110   ar
    42   112   111   ar
    43   110   108   ar
    44    23    22   ar
    45    21    22    1
    46   111   109   ar
    47    22    24   ar
    48   108   107    1
    49   108   109   ar
    50    82    81    1
    51    27    28    2
    52   104   107    1
    53   104   105    1
    54   104   103    1
    55    98    97    2
    56   105   106    2
    57    97   103   am
    58    97    96    1
    59    95    96    1
    60    75    76    1
    61    79    76    1
    62    79    80    1
    63    76    77    1
    64    96    99    1
    65    80    81    1
    66   150   151    1
    67   148   146   ar
    68   148   149   ar
    69   146   143   ar
    70   154   151    1
    71   154   155    1
    72   101   100   ar
    73   149   147   ar
    74   151   152    1
    75    55    54    1
    76   139   138    2
    77    77    78    2
    78    99   100    1
    79   138   137    1
    80   155   156   ar
    81   155   157   ar
    82    53    54    1
    83    53    52    1
    84   100   102   ar
    85   156   158   ar
    86   143   145   ar
    87   143   141   ar
    88    94    93    1
    89   147   145   ar
    90   137   140    1
    91   137   136    1
    92   140   141    1
    93   157   160   ar
    94   157   159   ar
    95   152   153    2
    96    51    52    1
    97    51    48    1
    98   160   162   ar
    99   158   159   ar
   100   145   144   ar
   101   127   125    1
   102    47    48    1
   103   141   142   ar
   104   117   118    1
   105   159   161   ar
   106    93    92   ar
   107    93    91   ar
   108    92    90   ar
   109    48    49    1
   110   162   163   ar
   111   124   125    2
   112   124   123    1
   113   125   126    1
   114    63    65   ar
   115    63    61   ar
   116   172   170   ar
   117   161   163   ar
   118   144   142   ar
   119    65    64   ar
   120   122   123    1
   121   122   121    1
   122    91    89   ar
   123   118   121    1
   124   118   119    1
   125    90    88   ar
   126   171   170   ar
   127    45    44    1
   128    49    50    2
   129    49    56   am
   130   170   169    1
   131    61    60    1
   132    61    62   ar
   133    57    60    1
   134    57    56    1
   135    57    58    1
   136   119   120    2
   137    64    62   ar
   138    89    88   ar
   139    88    87    1
   140    58    59    2
   141    46    44    1
   142    44    43    2
   143    83    84    1
   144   169   168    1
   145    84    87    1
   146    84    85    1
   147    74    72   ar
   148    43    42    1
   149   168   165    1
   150    73    72   ar
   151    72    71    1
   152    85    86    2
   153   164   165    1
   154    42    41    1
   155   165   166    1
   156    71    70    1
   157    41    40    1
   158   173   166   am
   159   173   174    1
   160   166   167    2
   161    70    67    1
   162    40    37    1
   163   178   177    1
   164   177   174    1
   165   177   179    1
   166    67    66    1
   167    67    68    1
   168   174   175    1
   169    37    38    1
   170    37    36    1
   171    39    38    2
   172    69    68    2
   173   175   176    2
