@<TRIPOS>MOLECULE
tmp/3wlnA03.pdb
 181 175 0 0 0
SMALL
GASTEIGER

@<TRIPOS>ATOM
      1  N         24.7180   25.6150   23.9670 N.3    54  LEU54      -0.1245
      2  CA        23.7590   25.8310   25.0370 C.3    54  LEU54       0.1561
      3  C         23.4550   27.3200   25.1770 C.2    54  LEU54       0.2260
      4  O         24.2040   28.1660   24.7000 O.2    54  LEU54      -0.2867
      5  CB        24.2980   25.2970   26.3930 C.3    54  LEU54       0.0270
      6  CG        25.1940   26.1970   27.2620 C.3    54  LEU54       0.0019
      7  CD1       25.0830   25.8330   28.7670 C.3    54  LEU54       0.0001
      8  CD2       26.6690   26.2300   26.7970 C.3    54  LEU54       0.0001
      9  N         23.1750   29.4500   28.5290 N.3    56  GLY56      -0.1210
     10  CA        23.1840   29.6060   29.9700 C.3    56  GLY56       0.1956
     11  C         21.9750   30.4200   30.4320 C.2    56  GLY56       0.2612
     12  O         21.2250   30.9440   29.6090 O.2    56  GLY56      -0.2717
     13  N         21.7810   30.5240   31.7500 N.am   57  GLY57      -0.1956
     14  CA        20.7200   31.3620   32.3010 C.3    57  GLY57       0.1869
     15  C         20.6870   32.7420   31.6600 C.2    57  GLY57       0.2309
     16  O         21.6980   33.4580   31.6540 O.2    57  GLY57      -0.2863
     17  N         18.8480   25.0770   30.4610 N.3    95  ASP95      -0.1239
     18  CA        18.2460   24.8360   31.7800 C.3    95  ASP95       0.1674
     19  C         16.7480   25.0690   31.7290 C.2    95  ASP95       0.2266
     20  O         16.2730   26.1700   32.0040 O.2    95  ASP95      -0.2867
     21  CB        18.8790   25.7360   32.8210 C.3    95  ASP95       0.1410
     22  CG        20.3370   25.4160   33.0210 C.2    95  ASP95       0.3668
     23  OD1       21.1850   26.1520   32.4740 O.co2  95  ASP95      -0.2456
     24  OD2       20.6210   24.3880   33.6800 O.co2  95  ASP95      -0.2456
     25  N         18.7440   20.4480   30.8050 N.3   144  PHE144     -0.1241
     26  CA        19.5820   20.1190   31.9610 C.3   144  PHE144      0.1605
     27  C         18.7460   19.8830   33.2240 C.2   144  PHE144      0.2264
     28  O         18.7820   20.6840   34.1480 O.2   144  PHE144     -0.2867
     29  CB        20.6060   21.2290   32.2230 C.3   144  PHE144      0.0534
     30  CG        21.4750   21.5600   31.0360 C.ar  144  PHE144     -0.0203
     31  CD1       21.6390   22.8790   30.6390 C.ar  144  PHE144     -0.0042
     32  CD2       22.1440   20.5550   30.3320 C.ar  144  PHE144     -0.0042
     33  CE1       22.4430   23.2080   29.5320 C.ar  144  PHE144     -0.0003
     34  CE2       22.9550   20.8680   29.2250 C.ar  144  PHE144     -0.0003
     35  CZ        23.0990   22.2040   28.8220 C.ar  144  PHE144     -0.0000
     36  N         20.8270   26.3600   46.3290 N.3   158  ARG158     -0.1245
     37  CA        20.1260   25.5070   45.3690 C.3   158  ARG158      0.1563
     38  C         19.2080   24.5080   46.0550 C.2   158  ARG158      0.2260
     39  O         18.7460   23.5510   45.4370 O.2   158  ARG158     -0.2867
     40  CB        21.1240   24.7740   44.4670 C.3   158  ARG158      0.0307
     41  CG        22.2820   25.6280   43.9660 C.3   158  ARG158      0.0489
     42  CD        23.0420   24.9130   42.8490 C.3   158  ARG158      0.2205
     43  NE        22.2810   24.9060   41.6020 N.pl3 158  ARG158     -0.0865
     44  CZ        22.7850   24.6190   40.3990 C.cat 158  ARG158      0.5346
     45  NH1       21.9930   24.6570   39.3280 N.pl3 158  ARG158      0.1354
     46  NH2       24.0750   24.3050   40.2650 N.pl3 158  ARG158      0.1354
     47  N         21.4760   15.5540   37.3510 N.3   206  LYS206     -0.1231
     48  CA        22.5370   16.4090   37.8840 C.3   206  LYS206      0.1693
     49  C         22.3910   16.6820   39.4040 C.2   206  LYS206      0.2592
     50  O         21.3110   16.4690   39.9660 O.2   206  LYS206     -0.2718
     51  CB        22.5920   17.7110   37.0760 C.3   206  LYS206      0.0285
     52  CG        21.3790   18.6230   37.2440 C.3   206  LYS206      0.0035
     53  CD        21.4830   19.8650   36.3660 C.3   206  LYS206      0.0206
     54  CE        20.4100   20.8740   36.7760 C.3   206  LYS206      0.1093
     55  NZ        20.4010   22.1180   35.9150 N.3   206  LYS206     -0.1314
     56  N         23.4520   17.1130   40.1020 N.am  207  HIS207     -0.1976
     57  CA        24.8420   17.1730   39.6350 C.3   207  HIS207      0.1656
     58  C         25.6310   16.1000   40.3870 C.2   207  HIS207      0.2291
     59  O         25.6690   16.0980   41.6240 O.2   207  HIS207     -0.2864
     60  CB        25.4630   18.5560   39.9010 C.3   207  HIS207      0.0771
     61  CG        24.5570   19.7110   39.5820 C.ar  207  HIS207      0.0820
     62  ND1       23.5920   20.1690   40.4590 N.ar  207  HIS207     -0.2267
     63  CD2       24.4740   20.5030   38.4840 C.ar  207  HIS207      0.1154
     64  CE1       22.9510   21.1860   39.9120 C.ar  207  HIS207      0.1986
     65  NE2       23.4750   21.4170   38.7210 N.ar  207  HIS207     -0.2212
     66  N         28.9810   24.5610   45.7010 N.3   220  GLU220     -0.1245
     67  CA        30.1930   24.1350   45.0030 C.3   220  GLU220      0.1567
     68  C         31.3050   23.6750   45.9490 C.2   220  GLU220      0.2260
     69  O         32.4520   23.5250   45.5270 O.2   220  GLU220     -0.2867
     70  CB        30.7130   25.2570   44.0850 C.3   220  GLU220      0.0388
     71  CG        29.6590   25.7870   43.0910 C.3   220  GLU220      0.1160
     72  CD        30.2250   26.7560   42.0660 C.2   220  GLU220      0.3649
     73  OE1       31.4740   26.8440   41.9200 O.co2 220  GLU220     -0.2457
     74  OE2       29.4020   27.4160   41.3860 O.co2 220  GLU220     -0.2457
     75  N         25.2820   15.3430   34.3190 N.3   250  MET250     -0.1245
     76  CA        26.2110   16.4510   34.5380 C.3   250  MET250      0.1570
     77  C         26.9570   16.2770   35.8510 C.2   250  MET250      0.2261
     78  O         26.3660   15.9570   36.8780 O.2   250  MET250     -0.2867
     79  CB        25.4850   17.8010   34.5000 C.3   250  MET250      0.0387
     80  CG        26.3620   19.0240   34.6800 C.3   250  MET250      0.0595
     81  SD        25.3940   20.5470   34.7560 S.3   250  MET250     -0.1393
     82  CE        24.5660   20.5020   33.1900 C.3   250  MET250      0.0692
     83  N         30.1650   20.7130   40.5030 N.3   253  TYR253     -0.1241
     84  CA        31.2650   21.5740   40.9470 C.3   253  TYR253      0.1605
     85  C         31.8450   21.1380   42.2910 C.2   253  TYR253      0.2264
     86  O         33.0360   21.3890   42.5740 O.2   253  TYR253     -0.2867
     87  CB        30.7800   22.9970   41.1680 C.3   253  TYR253      0.0534
     88  CG        30.4090   23.8140   39.9570 C.ar  253  TYR253     -0.0201
     89  CD1       29.1330   24.3660   39.8510 C.ar  253  TYR253     -0.0009
     90  CD2       31.3390   24.0890   38.9480 C.ar  253  TYR253     -0.0009
     91  CE1       28.7750   25.1520   38.7690 C.ar  253  TYR253      0.0417
     92  CE2       30.9840   24.8790   37.8490 C.ar  253  TYR253      0.0417
     93  CZ        29.7060   25.4080   37.7800 C.ar  253  TYR253      0.1957
     94  OH        29.3290   26.1910   36.7200 O.3   253  TYR253     -0.2866
     95  N         29.8820   20.7190   34.1950 N.3   285  ASP285     -0.1225
     96  CA        29.1510   21.9320   34.4550 C.3   285  ASP285      0.1805
     97  C         29.9160   23.1080   33.8340 C.2   285  ASP285      0.2598
     98  O         31.0230   22.9420   33.2880 O.2   285  ASP285     -0.2718
     99  CB        28.9360   22.1190   35.9600 C.3   285  ASP285      0.1424
    100  CG        27.6580   22.8790   36.2730 C.2   285  ASP285      0.3668
    101  OD1       27.1900   23.6540   35.3950 O.co2 285  ASP285     -0.2456
    102  OD2       27.1150   22.6810   37.3830 O.co2 285  ASP285     -0.2456
    103  N         29.3170   24.2870   33.9370 N.am  286  TRP286     -0.1962
    104  CA        29.7730   25.5130   33.2900 C.3   286  TRP286      0.1771
    105  C         31.0930   25.9490   33.8860 C.2   286  TRP286      0.2619
    106  O         31.1390   26.3550   35.0400 O.2   286  TRP286     -0.2715
    107  CB        28.6900   26.5730   33.5120 C.3   286  TRP286      0.0590
    108  CG        28.9440   27.9840   33.0770 C.ar  286  TRP286      0.0006
    109  CD1       29.7680   28.9030   33.6630 C.ar  286  TRP286      0.0946
    110  CD2       28.2680   28.6640   32.0150 C.ar  286  TRP286      0.0152
    111  NE1       29.6670   30.1160   33.0020 N.ar  286  TRP286     -0.2442
    112  CE2       28.7460   29.9930   31.9940 C.ar  286  TRP286      0.0810
    113  CE3       27.2910   28.2770   31.0820 C.ar  286  TRP286      0.0012
    114  CZ2       28.3020   30.9350   31.0530 C.ar  286  TRP286      0.0191
    115  CZ3       26.8600   29.2140   30.1380 C.ar  286  TRP286      0.0001
    116  CH2       27.3580   30.5200   30.1390 C.ar  286  TRP286      0.0015
    117  N         32.1650   25.8560   33.0960 N.am  287  GLU287     -0.1977
    118  CA        33.5320   26.1040   33.5960 C.3   287  GLU287      0.1602
    119  C         33.9060   25.1640   34.7450 C.2   287  GLU287      0.2287
    120  O         34.7780   25.4840   35.5540 O.2   287  GLU287     -0.2864
    121  CB        33.7260   27.5530   34.0370 C.3   287  GLU287      0.0415
    122  CG        33.5500   28.5870   32.9540 C.3   287  GLU287      0.1163
    123  CD        33.4910   30.0050   33.5130 C.2   287  GLU287      0.3649
    124  OE1       33.3020   30.1890   34.7430 O.co2 287  GLU287     -0.2457
    125  OE2       33.6310   30.9410   32.7160 O.co2 287  GLU287     -0.2457
    126  N         37.3720   25.0380   37.4170 N.3   291  ARG291     -0.1245
    127  CA        37.2410   25.1670   38.8630 C.3   291  ARG291      0.1563
    128  C         37.8360   24.0080   39.6480 C.2   291  ARG291      0.2260
    129  O         37.7770   24.0080   40.8790 O.2   291  ARG291     -0.2867
    130  CB        35.7760   25.4130   39.2390 C.3   291  ARG291      0.0307
    131  CG        35.2610   26.7250   38.6750 C.3   291  ARG291      0.0489
    132  CD        33.7990   26.9680   38.9370 C.3   291  ARG291      0.2205
    133  NE        33.2950   27.9490   37.9780 N.pl3 291  ARG291     -0.0865
    134  CZ        32.0860   28.5050   38.0070 C.cat 291  ARG291      0.5346
    135  NH1       31.2310   28.1990   38.9770 N.pl3 291  ARG291      0.1354
    136  NH2       31.7340   29.3710   37.0540 N.pl3 291  ARG291      0.1354
    137  N         31.2140   21.5310   28.7900 N.3   316  MET316     -0.1245
    138  CA        30.5290   22.8000   28.7360 C.3   316  MET316      0.1570
    139  C         31.5910   23.8780   28.9520 C.2   316  MET316      0.2261
    140  O         31.8510   24.2960   30.0820 O.2   316  MET316     -0.2867
    141  CB        29.4220   22.8410   29.8080 C.3   316  MET316      0.0387
    142  CG        28.6030   24.1360   29.8260 C.3   316  MET316      0.0595
    143  SD        27.3410   24.1350   31.1260 S.3   316  MET316     -0.1393
    144  CE        26.5290   22.5520   30.8420 C.3   316  MET316      0.0692
    145  N         16.1300   31.1210   38.1090 N.3   430  TRP430     -0.1241
    146  CA        15.9810   30.4350   36.8210 C.3   430  TRP430      0.1605
    147  C         14.6310   30.7560   36.1870 C.2   430  TRP430      0.2264
    148  O         13.8740   29.8430   35.8250 O.2   430  TRP430     -0.2867
    149  CB        16.0730   28.9260   36.9970 C.3   430  TRP430      0.0550
    150  CG        17.4180   28.3790   37.3860 C.ar  430  TRP430      0.0003
    151  CD1       17.7470   27.8220   38.5830 C.ar  430  TRP430      0.0946
    152  CD2       18.5950   28.2910   36.5630 C.ar  430  TRP430      0.0152
    153  NE1       19.0540   27.4020   38.5720 N.ar  430  TRP430     -0.2442
    154  CE2       19.6050   27.6850   37.3490 C.ar  430  TRP430      0.0810
    155  CE3       18.9020   28.6830   35.2510 C.ar  430  TRP430      0.0012
    156  CZ2       20.9010   27.4430   36.8600 C.ar  430  TRP430      0.0191
    157  CZ3       20.1990   28.4520   34.7670 C.ar  430  TRP430      0.0001
    158  CH2       21.1790   27.8380   35.5700 C.ar  430  TRP430      0.0015
    159  N         18.9670   34.3280   34.7130 N.3   434  TRP434     -0.1241
    160  CA        19.6250   33.3220   35.5420 C.3   434  TRP434      0.1605
    161  C         19.1930   33.4170   37.0190 C.2   434  TRP434      0.2264
    162  O         18.7870   32.4170   37.6340 O.2   434  TRP434     -0.2867
    163  CB        21.1460   33.4970   35.4050 C.3   434  TRP434      0.0550
    164  CG        21.9960   32.5970   36.2580 C.ar  434  TRP434      0.0003
    165  CD1       21.8320   31.2520   36.4590 C.ar  434  TRP434      0.0946
    166  CD2       23.1700   32.9760   36.9930 C.ar  434  TRP434      0.0152
    167  NE1       22.8270   30.7770   37.2780 N.ar  434  TRP434     -0.2442
    168  CE2       23.6600   31.8090   37.6250 C.ar  434  TRP434      0.0810
    169  CE3       23.8540   34.1950   37.1860 C.ar  434  TRP434      0.0012
    170  CZ2       24.8030   31.8170   38.4400 C.ar  434  TRP434      0.0191
    171  CZ3       24.9890   34.2110   37.9990 C.ar  434  TRP434      0.0001
    172  CH2       25.4620   33.0210   38.6090 C.ar  434  TRP434      0.0015
    173  N         22.0470   29.5310   42.6970 N.3   491  GLU491     -0.1245
    174  CA        23.4170   29.0920   42.9730 C.3   491  GLU491      0.1567
    175  C         24.0010   29.8530   44.1760 C.2   491  GLU491      0.2260
    176  O         23.3080   30.0170   45.1850 O.2   491  GLU491     -0.2867
    177  CB        24.2760   29.1430   41.6910 C.3   491  GLU491      0.0388
    178  CG        23.7610   28.1500   40.6470 C.3   491  GLU491      0.1160
    179  CD        24.4840   28.1760   39.3140 C.2   491  GLU491      0.3649
    180  OE1       25.6750   27.8300   39.2990 O.co2 491  GLU491     -0.2457
    181  OE2       23.8410   28.4710   38.2720 O.co2 491  GLU491     -0.2457
@<TRIPOS>BOND
     1     1     2    1
     2     4     3    2
     3     2     3    1
     4     2     5    1
     5     5     6    1
     6     8     6    1
     7     6     7    1
     8     9    10    1
     9   138   137    1
    10   138   139    1
    11   138   141    1
    12    35    34   ar
    13    35    33   ar
    14   139   140    2
    15    34    32   ar
    16    33    31   ar
    17    12    11    2
    18   141   142    1
    19   142   143    1
    20    10    11    1
    21   115   116   ar
    22   115   113   ar
    23   116   114   ar
    24    32    30   ar
    25    11    13   am
    26    17    18    1
    27    31    30   ar
    28    25    26    1
    29   144   143    1
    30    30    29    1
    31   114   112   ar
    32   113   110   ar
    33    16    15    2
    34    15    14    1
    35    19    18    1
    36    19    20    2
    37    13    14    1
    38    18    21    1
    39    26    29    1
    40    26    27    1
    41   112   110   ar
    42   112   111   ar
    43   110   108   ar
    44    23    22   ar
    45   125   123   ar
    46    21    22    1
    47   122   123    1
    48   122   121    1
    49   111   109   ar
    50    22    24   ar
    51   108   107    1
    52   108   109   ar
    53   117   118    1
    54   117   105   am
    55    82    81    1
    56    27    28    2
    57    98    97    2
    58   104   107    1
    59   104   105    1
    60   104   103    1
    61   123   124   ar
    62   118   121    1
    63   118   119    1
    64    97   103   am
    65    97    96    1
    66   105   106    2
    67    95    96    1
    68    75    76    1
    69    96    99    1
    70    79    76    1
    71    79    80    1
    72    76    77    1
    73    80    81    1
    74   159   160    1
    75   119   120    2
    76   157   155   ar
    77   157   158   ar
    78   155   152   ar
    79   101   100   ar
    80   163   160    1
    81   163   164    1
    82   160   161    1
    83   158   156   ar
    84   148   147    2
    85    77    78    2
    86    55    54    1
    87    99   100    1
    88   147   146    1
    89   164   165   ar
    90   164   166   ar
    91   100   102   ar
    92    53    54    1
    93    53    52    1
    94   165   167   ar
    95   152   154   ar
    96   152   150   ar
    97    94    93    1
    98   146   149    1
    99   146   145    1
   100   156   154   ar
   101   166   169   ar
   102   166   168   ar
   103   149   150    1
   104   161   162    2
   105   136   134    1
   106    51    52    1
   107    51    48    1
   108   169   171   ar
   109   167   168   ar
   110   154   153   ar
   111    47    48    1
   112   150   151   ar
   113   126   127    1
   114   168   170   ar
   115    93    92   ar
   116    93    91   ar
   117    92    90   ar
   118    48    49    1
   119   133   134    2
   120   133   132    1
   121   171   172   ar
   122   134   135    1
   123   181   179   ar
   124   170   172   ar
   125    63    65   ar
   126    63    61   ar
   127   153   151   ar
   128   131   132    1
   129   131   130    1
   130    65    64   ar
   131    91    89   ar
   132   127   130    1
   133   127   128    1
   134    90    88   ar
   135   180   179   ar
   136   179   178    1
   137    45    44    1
   138    49    50    2
   139    49    56   am
   140    61    60    1
   141    61    62   ar
   142    57    60    1
   143    57    56    1
   144    57    58    1
   145   128   129    2
   146    89    88   ar
   147    64    62   ar
   148    88    87    1
   149    46    44    1
   150    58    59    2
   151    44    43    2
   152    83    84    1
   153   178   177    1
   154    84    87    1
   155    84    85    1
   156    74    72   ar
   157    43    42    1
   158   177   174    1
   159    73    72   ar
   160    72    71    1
   161    85    86    2
   162   173   174    1
   163    42    41    1
   164   174   175    1
   165    71    70    1
   166    41    40    1
   167    70    67    1
   168   175   176    2
   169    40    37    1
   170    67    66    1
   171    67    68    1
   172    37    38    1
   173    37    36    1
   174    39    38    2
   175    69    68    2
