@<TRIPOS>MOLECULE
tmp/3wlpA00.pdb
 163 158 0 0 0
SMALL
GASTEIGER

@<TRIPOS>ATOM
      1  N         24.5730   25.2000   24.1870 N.3    54  LEU54      -0.1245
      2  CA        23.5840   25.4220   25.2690 C.3    54  LEU54       0.1561
      3  C         23.2520   26.8770   25.4200 C.2    54  LEU54       0.2260
      4  O         24.0090   27.7710   25.0180 O.2    54  LEU54      -0.2867
      5  CB        24.0800   24.9000   26.6590 C.3    54  LEU54       0.0270
      6  CG        25.0290   25.7910   27.4570 C.3    54  LEU54       0.0019
      7  CD1       24.9660   25.4460   28.9380 C.3    54  LEU54       0.0001
      8  CD2       26.4960   25.6180   26.9550 C.3    54  LEU54       0.0001
      9  N         23.0170   28.7900   28.8260 N.3    56  GLY56      -0.1210
     10  CA        23.0900   28.8370   30.3090 C.3    56  GLY56       0.1956
     11  C         21.9340   29.6780   30.8300 C.2    56  GLY56       0.2612
     12  O         21.1210   30.2470   30.0730 O.2    56  GLY56      -0.2717
     13  N         21.8710   29.8130   32.1480 N.am   57  GLY57      -0.1956
     14  CA        20.7590   30.6000   32.7420 C.3    57  GLY57       0.1869
     15  C         20.7320   32.0260   32.2100 C.2    57  GLY57       0.2309
     16  O         21.7640   32.7320   32.2310 O.2    57  GLY57      -0.2863
     17  N         18.5180   24.6460   30.6620 N.3    95  ASP95      -0.1239
     18  CA        17.8930   24.3030   31.9740 C.3    95  ASP95       0.1674
     19  C         16.3940   24.5660   31.9210 C.2    95  ASP95       0.2266
     20  O         15.9340   25.6580   32.2550 O.2    95  ASP95      -0.2867
     21  CB        18.5360   25.1180   33.0930 C.3    95  ASP95       0.1410
     22  CG        20.0070   24.8070   33.2360 C.2    95  ASP95       0.3668
     23  OD1       20.3190   23.7540   33.8060 O.co2  95  ASP95      -0.2456
     24  OD2       20.8210   25.5900   32.6760 O.co2  95  ASP95      -0.2456
     25  N         18.4450   19.9800   30.8930 N.3   144  PHE144     -0.1241
     26  CA        19.3680   19.6040   31.9940 C.3   144  PHE144      0.1605
     27  C         18.5490   19.3810   33.2770 C.2   144  PHE144      0.2264
     28  O         18.6980   20.1030   34.2900 O.2   144  PHE144     -0.2867
     29  CB        20.3940   20.7370   32.2220 C.3   144  PHE144      0.0534
     30  CG        21.2620   21.0510   31.0340 C.ar  144  PHE144     -0.0203
     31  CD1       21.9370   20.0300   30.3380 C.ar  144  PHE144     -0.0042
     32  CD2       21.4220   22.3780   30.6510 C.ar  144  PHE144     -0.0042
     33  CE1       22.8260   20.3760   29.2790 C.ar  144  PHE144     -0.0003
     34  CE2       22.2640   22.7300   29.5630 C.ar  144  PHE144     -0.0003
     35  CZ        22.9560   21.7260   28.8870 C.ar  144  PHE144     -0.0000
     36  N         20.7150   25.8690   46.5200 N.3   158  ARG158     -0.1245
     37  CA        19.9280   25.1520   45.5120 C.3   158  ARG158      0.1563
     38  C         18.9650   24.1600   46.1350 C.2   158  ARG158      0.2260
     39  O         18.4700   23.2770   45.4500 O.2   158  ARG158     -0.2867
     40  CB        20.8400   24.4400   44.5040 C.3   158  ARG158      0.0307
     41  CG        21.9190   25.3720   43.9700 C.3   158  ARG158      0.0489
     42  CD        22.7270   24.6810   42.8720 C.3   158  ARG158      0.2205
     43  NE        21.9530   24.4550   41.6530 N.pl3 158  ARG158     -0.0865
     44  CZ        22.4890   24.1080   40.4920 C.cat 158  ARG158      0.5346
     45  NH1       23.8250   23.9780   40.3470 N.pl3 158  ARG158      0.1354
     46  NH2       21.6780   23.9150   39.4670 N.pl3 158  ARG158      0.1354
     47  N         21.1890   14.9900   37.3790 N.3   206  LYS206     -0.1231
     48  CA        22.3090   15.8410   37.8470 C.3   206  LYS206      0.1693
     49  C         22.1910   16.1020   39.3520 C.2   206  LYS206      0.2592
     50  O         21.0830   15.9720   39.9030 O.2   206  LYS206     -0.2718
     51  CB        22.3860   17.1600   37.0070 C.3   206  LYS206      0.0285
     52  CG        21.3110   18.2180   37.3400 C.3   206  LYS206      0.0035
     53  CD        21.3710   19.4030   36.3600 C.3   206  LYS206      0.0206
     54  CE        20.4380   20.5110   36.8430 C.3   206  LYS206      0.1093
     55  NZ        20.4370   21.6550   35.8550 N.3   206  LYS206     -0.1314
     56  N         23.2520   16.4810   40.0560 N.am  207  HIS207     -0.1976
     57  CA        24.6410   16.5090   39.5790 C.3   207  HIS207      0.1656
     58  C         25.3840   15.3850   40.3030 C.2   207  HIS207      0.2291
     59  O         25.3230   15.2700   41.5350 O.2   207  HIS207     -0.2864
     60  CB        25.3220   17.8630   39.8930 C.3   207  HIS207      0.0771
     61  CG        24.5000   19.0740   39.5460 C.ar  207  HIS207      0.0820
     62  ND1       23.5420   19.5670   40.4110 N.ar  207  HIS207     -0.2267
     63  CD2       24.4900   19.8830   38.4500 C.ar  207  HIS207      0.1154
     64  CE1       22.9810   20.6490   39.8660 C.ar  207  HIS207      0.1986
     65  NE2       23.5280   20.8530   38.6780 N.ar  207  HIS207     -0.2212
     66  N         25.0050   14.7000   34.3250 N.3   250  MET250     -0.1245
     67  CA        25.9250   15.8370   34.4760 C.3   250  MET250      0.1570
     68  C         26.6790   15.6820   35.8080 C.2   250  MET250      0.2261
     69  O         26.0650   15.3720   36.8340 O.2   250  MET250     -0.2867
     70  CB        25.1640   17.1820   34.4950 C.3   250  MET250      0.0387
     71  CG        26.0820   18.3880   34.6070 C.3   250  MET250      0.0595
     72  SD        25.1570   19.9560   34.6650 S.3   250  MET250     -0.1393
     73  CE        24.2600   19.9720   33.1150 C.3   250  MET250      0.0692
     74  N         30.1000   19.9610   40.5410 N.3   253  TYR253     -0.1241
     75  CA        31.2590   20.7300   41.0440 C.3   253  TYR253      0.1605
     76  C         31.7970   20.2010   42.3630 C.2   253  TYR253      0.2264
     77  O         32.9510   20.4580   42.6880 O.2   253  TYR253     -0.2867
     78  CB        30.8970   22.1730   41.3150 C.3   253  TYR253      0.0534
     79  CG        30.5050   23.0490   40.1540 C.ar  253  TYR253     -0.0201
     80  CD1       31.2750   23.1520   39.0190 C.ar  253  TYR253     -0.0009
     81  CD2       29.3480   23.8120   40.2270 C.ar  253  TYR253     -0.0009
     82  CE1       30.9260   24.0180   37.9890 C.ar  253  TYR253      0.0417
     83  CE2       28.9820   24.6770   39.1980 C.ar  253  TYR253      0.0417
     84  CZ        29.7870   24.7710   38.0930 C.ar  253  TYR253      0.1957
     85  OH        29.4670   25.6280   37.0630 O.3   253  TYR253     -0.2866
     86  N         29.7240   19.9170   34.3020 N.3   285  ASP285     -0.1225
     87  CA        29.0520   21.1610   34.6040 C.3   285  ASP285      0.1805
     88  C         29.7780   22.3700   33.9860 C.2   285  ASP285      0.2597
     89  O         30.8130   22.2280   33.3130 O.2   285  ASP285     -0.2718
     90  CB        28.8390   21.3160   36.1190 C.3   285  ASP285      0.1424
     91  CG        27.6010   22.1800   36.4310 C.2   285  ASP285      0.3668
     92  OD1       27.0900   22.8990   35.5430 O.co2 285  ASP285     -0.2456
     93  OD2       27.1620   22.1200   37.5550 O.co2 285  ASP285     -0.2456
     94  N         29.2370   23.5630   34.1970 N.am  286  TRP286     -0.1976
     95  CA        29.7050   24.7780   33.5170 C.3   286  TRP286      0.1640
     96  C         31.0650   25.1670   34.0490 C.2   286  TRP286      0.2290
     97  O         31.2280   25.5070   35.2330 O.2   286  TRP286     -0.2864
     98  CB        28.6570   25.8710   33.8170 C.3   286  TRP286      0.0576
     99  CG        28.9790   27.2660   33.3720 C.ar  286  TRP286      0.0006
    100  CD1       29.8740   28.1350   33.9570 C.ar  286  TRP286      0.0946
    101  CD2       28.3940   27.9750   32.2670 C.ar  286  TRP286      0.0152
    102  NE1       29.8820   29.3470   33.2860 N.ar  286  TRP286     -0.2442
    103  CE2       28.9780   29.2750   32.2440 C.ar  286  TRP286      0.0810
    104  CE3       27.4190   27.6400   31.3080 C.ar  286  TRP286      0.0012
    105  CZ2       28.6040   30.2510   31.3140 C.ar  286  TRP286      0.0191
    106  CZ3       27.0550   28.6190   30.3430 C.ar  286  TRP286      0.0001
    107  CH2       27.6600   29.8920   30.3450 C.ar  286  TRP286      0.0015
    108  N         37.3600   23.9710   37.4210 N.3   291  ARG291     -0.1245
    109  CA        37.2920   24.0230   38.8850 C.3   291  ARG291      0.1563
    110  C         37.8850   22.7870   39.5630 C.2   291  ARG291      0.2260
    111  O         37.8520   22.6970   40.7900 O.2   291  ARG291     -0.2867
    112  CB        35.8380   24.2860   39.3050 C.3   291  ARG291      0.0307
    113  CG        35.3960   25.6850   38.8860 C.3   291  ARG291      0.0489
    114  CD        33.8860   25.9310   39.0100 C.3   291  ARG291      0.2205
    115  NE        33.5740   27.0650   38.1120 N.pl3 291  ARG291     -0.0865
    116  CZ        32.4750   27.8110   38.1480 C.cat 291  ARG291      0.5346
    117  NH1       31.5450   27.5670   39.0690 N.pl3 291  ARG291      0.1354
    118  NH2       32.3050   28.7980   37.2460 N.pl3 291  ARG291      0.1354
    119  N         31.0830   20.9550   28.8030 N.3   316  MET316     -0.1245
    120  CA        30.3730   22.2420   28.7780 C.3   316  MET316      0.1570
    121  C         31.5030   23.2640   28.9910 C.2   316  MET316      0.2261
    122  O         31.8570   23.6540   30.1300 O.2   316  MET316     -0.2867
    123  CB        29.2780   22.2260   29.8690 C.3   316  MET316      0.0387
    124  CG        28.4860   23.5330   29.8640 C.3   316  MET316      0.0595
    125  SD        27.3110   23.6080   31.2550 S.3   316  MET316     -0.1393
    126  CE        26.3510   22.1290   30.9390 C.3   316  MET316      0.0692
    127  N         16.0490   30.5380   38.6510 N.3   430  TRP430     -0.1241
    128  CA        15.8480   29.8710   37.3500 C.3   430  TRP430      0.1605
    129  C         14.5080   30.2150   36.7010 C.2   430  TRP430      0.2264
    130  O         13.7610   29.3510   36.2560 O.2   430  TRP430     -0.2867
    131  CB        15.9330   28.3440   37.4850 C.3   430  TRP430      0.0550
    132  CG        17.3280   27.8260   37.7710 C.ar  430  TRP430      0.0003
    133  CD1       17.7650   27.2960   38.9730 C.ar  430  TRP430      0.0946
    134  CD2       18.4230   27.7300   36.8660 C.ar  430  TRP430      0.0152
    135  NE1       19.0840   26.8840   38.8770 N.ar  430  TRP430     -0.2442
    136  CE2       19.4990   27.1180   37.5780 C.ar  430  TRP430      0.0810
    137  CE3       18.6000   28.0800   35.5080 C.ar  430  TRP430      0.0012
    138  CZ2       20.7610   26.8760   36.9620 C.ar  430  TRP430      0.0191
    139  CZ3       19.8410   27.8480   34.9190 C.ar  430  TRP430      0.0001
    140  CH2       20.8880   27.2370   35.6300 C.ar  430  TRP430      0.0015
    141  N         18.9200   33.6220   35.3080 N.3   434  TRP434     -0.1241
    142  CA        19.4790   32.5520   36.1300 C.3   434  TRP434      0.1605
    143  C         19.0180   32.6360   37.5990 C.2   434  TRP434      0.2264
    144  O         18.5310   31.6340   38.1670 O.2   434  TRP434     -0.2867
    145  CB        21.0310   32.5970   36.0020 C.3   434  TRP434      0.0550
    146  CG        21.7020   31.6540   36.9640 C.ar  434  TRP434      0.0003
    147  CD1       21.3900   30.3400   37.2040 C.ar  434  TRP434      0.0946
    148  CD2       22.8120   31.9540   37.8090 C.ar  434  TRP434      0.0152
    149  NE1       22.2230   29.8090   38.1710 N.ar  434  TRP434     -0.2442
    150  CE2       23.1100   30.7790   38.5500 C.ar  434  TRP434      0.0810
    151  CE3       23.5700   33.1220   38.0260 C.ar  434  TRP434      0.0012
    152  CZ2       24.1130   30.7400   39.5070 C.ar  434  TRP434      0.0191
    153  CZ3       24.5610   33.0980   38.9750 C.ar  434  TRP434      0.0001
    154  CH2       24.8540   31.9110   39.6940 C.ar  434  TRP434      0.0015
    155  N         22.5720   29.2690   44.3500 N.3   491  GLU491     -0.1245
    156  CA        23.7090   29.2040   45.2860 C.3   491  GLU491      0.1567
    157  C         24.3360   30.5670   45.6950 C.2   491  GLU491      0.2260
    158  O         24.4060   30.8990   46.8840 O.2   491  GLU491     -0.2867
    159  CB        24.8020   28.3160   44.7130 C.3   491  GLU491      0.0388
    160  CG        24.3890   27.5830   43.4520 C.3   491  GLU491      0.1160
    161  CD        24.8620   28.2690   42.1890 C.2   491  GLU491      0.3649
    162  OE1       25.8110   29.0990   42.2510 O.co2 491  GLU491     -0.2457
    163  OE2       24.2990   27.9440   41.1290 O.co2 491  GLU491     -0.2457
@<TRIPOS>BOND
     1     1     2    1
     2     4     3    2
     3     2     3    1
     4     2     5    1
     5     5     6    1
     6     8     6    1
     7     6     7    1
     8   120   119    1
     9   120   121    1
    10   120   123    1
    11     9    10    1
    12    35    33   ar
    13    35    34   ar
    14   121   122    2
    15    33    31   ar
    16    34    32   ar
    17   124   123    1
    18   124   125    1
    19    12    11    2
    20    10    11    1
    21    31    30   ar
    22   106   107   ar
    23   106   104   ar
    24   107   105   ar
    25    32    30   ar
    26    17    18    1
    27    11    13   am
    28    25    26    1
    29   126   125    1
    30    30    29    1
    31   104   101   ar
    32   105   103   ar
    33    19    18    1
    34    19    20    2
    35    18    21    1
    36    26    29    1
    37    26    27    1
    38    13    14    1
    39    15    16    2
    40    15    14    1
    41   103   101   ar
    42   103   102   ar
    43   101    99   ar
    44    24    22   ar
    45    21    22    1
    46    73    72    1
    47    22    23   ar
    48    27    28    2
    49   102   100   ar
    50    89    88    2
    51    99    98    1
    52    99   100   ar
    53    95    98    1
    54    95    96    1
    55    95    94    1
    56    88    94   am
    57    88    87    1
    58    96    97    2
    59    86    87    1
    60    66    67    1
    61    67    70    1
    62    67    68    1
    63    70    71    1
    64    87    90    1
    65    71    72    1
    66   139   137   ar
    67   139   140   ar
    68   141   142    1
    69   137   134   ar
    70    92    91   ar
    71   140   138   ar
    72    68    69    2
    73    55    54    1
    74   145   142    1
    75   145   146    1
    76    90    91    1
    77   142   143    1
    78   130   129    2
    79    53    54    1
    80    53    52    1
    81    91    93   ar
    82   129   128    1
    83   134   136   ar
    84   134   132   ar
    85   138   136   ar
    86   146   147   ar
    87   146   148   ar
    88    51    52    1
    89    51    48    1
    90    85    84    1
    91   147   149   ar
    92   118   116    1
    93   128   131    1
    94   128   127    1
    95    47    48    1
    96   108   109    1
    97   131   132    1
    98   136   135   ar
    99   143   144    2
   100   132   133   ar
   101   148   151   ar
   102   148   150   ar
   103    48    49    1
   104    82    84   ar
   105    82    80   ar
   106   151   153   ar
   107    84    83   ar
   108   115   116    2
   109   115   114    1
   110   116   117    1
   111   149   150   ar
   112    63    65   ar
   113    63    61   ar
   114   150   152   ar
   115    65    64   ar
   116   135   133   ar
   117   109   112    1
   118   109   110    1
   119   113   114    1
   120   113   112    1
   121   153   154   ar
   122    80    79   ar
   123    83    81   ar
   124    49    50    2
   125    49    56   am
   126    46    44    1
   127   152   154   ar
   128    61    60    1
   129    61    62   ar
   130   110   111    2
   131    57    60    1
   132    57    56    1
   133    57    58    1
   134    64    62   ar
   135    79    81   ar
   136    79    78    1
   137    58    59    2
   138    45    44    1
   139    44    43    2
   140    74    75    1
   141    75    78    1
   142    75    76    1
   143   163   161   ar
   144    43    42    1
   145   161   162   ar
   146   161   160    1
   147    76    77    2
   148    42    41    1
   149   160   159    1
   150    41    40    1
   151   155   156    1
   152    40    37    1
   153   159   156    1
   154   156   157    1
   155    39    38    2
   156    37    38    1
   157    37    36    1
   158   157   158    2
