@<TRIPOS>MOLECULE
tmp/3wluB00.pdb
 101 95 0 0 0
SMALL
GASTEIGER

@<TRIPOS>ATOM
      1  N         12.8020   16.4740  131.2930 N.3    38  ARG38      -0.1245
      2  CA        13.5880   17.1270  130.2400 C.3    38  ARG38       0.1563
      3  C         14.5080   18.1930  130.8150 C.2    38  ARG38       0.2260
      4  O         14.2030   18.7440  131.8630 O.2    38  ARG38      -0.2867
      5  CB        12.6710   17.8460  129.2360 C.3    38  ARG38       0.0307
      6  CG        11.6240   17.0510  128.5380 C.3    38  ARG38       0.0489
      7  CD        10.8280   17.9670  127.6250 C.3    38  ARG38       0.2205
      8  NE         9.9040   17.1740  126.9360 N.pl3  38  ARG38      -0.0865
      9  CZ         9.1250   17.6030  125.9670 C.cat  38  ARG38       0.5346
     10  NH1        9.2250   18.9040  125.6160 N.pl3  38  ARG38       0.1354
     11  NH2        8.3020   16.7730  125.4040 N.pl3  38  ARG38       0.1354
     12  N         19.3760   24.7510  120.3090 N.3    55  HIS55      -0.1241
     13  CA        18.6230   24.2170  121.4490 C.3    55  HIS55       0.1621
     14  C         18.9920   22.7470  121.5520 C.2    55  HIS55       0.2264
     15  O         18.8200   22.0060  120.5970 O.2    55  HIS55      -0.2867
     16  CB        17.1360   24.4110  121.1300 C.3    55  HIS55       0.0745
     17  CG        16.1480   23.6880  122.0050 C.ar   55  HIS55       0.0817
     18  ND1       15.8570   24.0740  123.2950 N.ar   55  HIS55      -0.2268
     19  CD2       15.2920   22.6680  121.7240 C.ar   55  HIS55       0.1154
     20  CE1       14.8430   23.3500  123.7470 C.ar   55  HIS55       0.1986
     21  NE2       14.5020   22.4790  122.8240 N.ar   55  HIS55      -0.2212
     22  N         18.2560   19.4430  123.8720 N.3    57  ASN57      -0.1240
     23  CA        17.1310   19.1450  124.7880 C.3    57  ASN57       0.1653
     24  C         16.9800   17.6460  125.0040 C.2    57  ASN57       0.2266
     25  O         16.2020   16.9580  124.3200 O.2    57  ASN57      -0.2867
     26  CB        15.8740   19.7630  124.1540 C.3    57  ASN57       0.1155
     27  CG        14.5730   19.5560  124.9470 C.2    57  ASN57       0.2627
     28  OD1       13.4810   19.4340  124.3480 O.2    57  ASN57      -0.2716
     29  ND2       14.6440   19.5380  126.2550 N.am   57  ASN57      -0.0877
     30  N         15.5270   14.3960  126.5770 N.3    59  ARG59      -0.1245
     31  CA        14.1660   14.0430  127.0380 C.3    59  ARG59       0.1563
     32  C         14.1770   12.5800  127.5140 C.2    59  ARG59       0.2260
     33  O         14.4030   11.6670  126.7430 O.2    59  ARG59      -0.2867
     34  CB        13.1640   14.2010  125.8800 C.3    59  ARG59       0.0307
     35  CG        13.0220   15.6310  125.3810 C.3    59  ARG59       0.0489
     36  CD        12.0050   15.7410  124.2440 C.3    59  ARG59       0.2205
     37  NE        11.8690   17.1030  123.7540 N.pl3  59  ARG59      -0.0865
     38  CZ        11.0650   17.4480  122.7510 C.cat  59  ARG59       0.5346
     39  NH1       10.2640   16.5430  122.2300 N.pl3  59  ARG59       0.1354
     40  NH2       11.0340   18.7190  122.3420 N.pl3  59  ARG59       0.1354
     41  N         15.5780   10.2060  124.3460 N.3    65  TYR65      -0.1241
     42  CA        16.1220   10.7500  123.1190 C.3    65  TYR65       0.1605
     43  C         16.4990   12.1910  123.3280 C.2    65  TYR65       0.2264
     44  O         16.1280   12.7450  124.3410 O.2    65  TYR65      -0.2867
     45  CB        15.1120   10.6210  121.9560 C.3    65  TYR65       0.0534
     46  CG        13.8180   11.4290  122.0790 C.ar   65  TYR65      -0.0201
     47  CD1       12.8080   11.0160  122.9440 C.ar   65  TYR65      -0.0009
     48  CD2       13.6200   12.5890  121.3500 C.ar   65  TYR65      -0.0009
     49  CE1       11.6340   11.7450  123.0370 C.ar   65  TYR65       0.0417
     50  CE2       12.4470   13.2740  121.4110 C.ar   65  TYR65       0.0417
     51  CZ        11.4540   12.8400  122.2570 C.ar   65  TYR65       0.1957
     52  OH        10.2810   13.5820  122.3640 O.3    65  TYR65      -0.2866
     53  N         16.6110   16.0950  121.5070 N.3    67  VAL67      -0.1245
     54  CA        16.1690   16.9490  120.4340 C.3    67  VAL67       0.1561
     55  C         17.1620   18.0900  120.2680 C.2    67  VAL67       0.2260
     56  O         17.4930   18.7390  121.2310 O.2    67  VAL67      -0.2867
     57  CB        14.7640   17.5050  120.7100 C.3    67  VAL67       0.0252
     58  CG1       14.3850   18.5600  119.6730 C.3    67  VAL67       0.0019
     59  CG2       13.7850   16.3770  120.8050 C.3    67  VAL67       0.0019
     60  N         17.5050   21.6270  117.8310 N.3    69  ASN69      -0.1240
     61  CA        16.7260   22.5490  116.9630 C.3    69  ASN69       0.1653
     62  C         17.2440   23.9850  117.0380 C.2    69  ASN69       0.2266
     63  O         18.0870   24.3050  117.8420 O.2    69  ASN69      -0.2867
     64  CB        15.2030   22.4160  117.2770 C.3    69  ASN69       0.1155
     65  CG        14.3140   22.6860  116.0630 C.2    69  ASN69       0.2627
     66  OD1       14.7630   23.1680  115.0000 O.2    69  ASN69      -0.2716
     67  ND2       13.0140   22.3860  116.2220 N.am   69  ASN69      -0.0877
     68  N         10.1390   27.3710  115.7040 N.3    76  TRP76      -0.1241
     69  CA        11.0050   26.2150  115.6730 C.3    76  TRP76       0.1605
     70  C         11.1350   25.6250  114.2880 C.2    76  TRP76       0.2264
     71  O         10.1590   25.5650  113.5280 O.2    76  TRP76      -0.2867
     72  CB        10.5330   25.1630  116.6590 C.3    76  TRP76       0.0550
     73  CG        10.6330   25.5380  118.0690 C.ar   76  TRP76       0.0003
     74  CD1        9.6210   25.8540  118.9220 C.ar   76  TRP76       0.0946
     75  CD2       11.8430   25.5970  118.8520 C.ar   76  TRP76       0.0152
     76  NE1       10.1150   26.1070  120.1710 N.ar   76  TRP76      -0.2442
     77  CE2       11.4740   25.9510  120.1600 C.ar   76  TRP76       0.0810
     78  CE3       13.2010   25.3560  118.5770 C.ar   76  TRP76       0.0012
     79  CZ2       12.3920   26.0800  121.1790 C.ar   76  TRP76       0.0191
     80  CZ3       14.1180   25.5360  119.5910 C.ar   76  TRP76       0.0001
     81  CH2       13.7080   25.8550  120.8710 C.ar   76  TRP76       0.0015
     82  N         13.3180   19.3090  113.7350 N.3    79  GLU79      -0.1245
     83  CA        14.1230   18.6910  114.7950 C.3    79  GLU79       0.1567
     84  C         15.1040   17.7010  114.2510 C.2    79  GLU79       0.2260
     85  O         14.8110   16.9540  113.3160 O.2    79  GLU79      -0.2867
     86  CB        13.2280   17.9640  115.8010 C.3    79  GLU79       0.0388
     87  CG        12.2740   18.9230  116.5150 C.3    79  GLU79       0.1160
     88  CD        11.3700   18.3110  117.5660 C.2    79  GLU79       0.3649
     89  OE1       11.5240   17.1150  117.8360 O.co2  79  GLU79      -0.2457
     90  OE2       10.4880   19.0510  118.0570 O.co2  79  GLU79      -0.2457
     91  N         16.7430   14.6070  115.9200 N.3    81  ARG81      -0.1245
     92  CA        16.6370   13.7240  117.0920 C.3    81  ARG81       0.1563
     93  C         17.7340   12.6740  117.1050 C.2    81  ARG81       0.2260
     94  O         18.0330   12.0730  116.0570 O.2    81  ARG81      -0.2867
     95  CB        15.2560   13.0470  117.1600 C.3    81  ARG81       0.0307
     96  CG        14.1440   14.0530  117.3980 C.3    81  ARG81       0.0489
     97  CD        12.8240   13.3600  117.6090 C.3    81  ARG81       0.2205
     98  NE        11.8170   14.3480  117.9650 N.pl3  81  ARG81      -0.0865
     99  CZ        10.5990   14.0930  118.3770 C.cat  81  ARG81       0.5346
    100  NH1       10.1650   12.8330  118.4780 N.pl3  81  ARG81       0.1354
    101  NH2        9.8180   15.0890  118.7090 N.pl3  81  ARG81       0.1354
@<TRIPOS>BOND
     1    85    84    2
     2    71    70    2
     3    82    83    1
     4    84    83    1
     5    70    69    1
     6    83    86    1
     7    66    65    2
     8    69    68    1
     9    69    72    1
    10    86    87    1
    11    91    92    1
    12    94    93    2
    13    65    67   am
    14    65    64    1
    15    87    88    1
    16    72    73    1
    17    61    62    1
    18    61    64    1
    19    61    60    1
    20    62    63    2
    21    92    93    1
    22    92    95    1
    23    95    96    1
    24    96    97    1
    25    88    89   ar
    26    88    90   ar
    27    97    98    1
    28    98    99    2
    29    73    75   ar
    30    73    74   ar
    31    99   100    1
    32    99   101    1
    33    78    75   ar
    34    78    80   ar
    35    75    77   ar
    36    74    76   ar
    37    80    81   ar
    38    58    57    1
    39    77    76   ar
    40    77    79   ar
    41    55    54    1
    42    55    56    2
    43    12    13    1
    44    54    57    1
    45    54    53    1
    46    15    14    2
    47    57    59    1
    48    81    79   ar
    49    16    13    1
    50    16    17    1
    51    48    50   ar
    52    48    46   ar
    53    50    51   ar
    54    13    14    1
    55    19    17   ar
    56    19    21   ar
    57    45    46    1
    58    45    42    1
    59    17    18   ar
    60    46    47   ar
    61    39    38    1
    62    51    52    1
    63    51    49   ar
    64    40    38    1
    65    38    37    2
    66    21    20   ar
    67    47    49   ar
    68    42    43    1
    69    42    41    1
    70    18    20   ar
    71    43    44    2
    72    37    36    1
    73    22    23    1
    74    26    23    1
    75    26    27    1
    76    36    35    1
    77    25    24    2
    78    28    27    2
    79    23    24    1
    80    27    29   am
    81    35    34    1
    82    11     9    1
    83    10     9    1
    84    34    31    1
    85     9     8    2
    86    30    31    1
    87    33    32    2
    88     8     7    1
    89    31    32    1
    90     7     6    1
    91     6     5    1
    92     5     2    1
    93     2     3    1
    94     2     1    1
    95     3     4    2
