@<TRIPOS>MOLECULE
tmp/3wlxA00.pdb
 141 130 0 0 0
SMALL
GASTEIGER

@<TRIPOS>ATOM
      1  N         55.6770   17.5260  -16.4100 N.3     6  SER6       -0.1217
      2  CA        55.3520   18.8820  -16.8340 C.3     6  SER6        0.1889
      3  C         54.8910   19.7180  -15.6490 C.2     6  SER6        0.2288
      4  O         54.6010   19.1860  -14.5790 O.2     6  SER6       -0.2866
      5  CB        54.2670   18.8740  -17.9130 C.3     6  SER6        0.2089
      6  OG        53.8900   20.1940  -18.2560 O.3     6  SER6       -0.2183
      7  N         52.2020   21.2950  -15.8970 N.3     8  THR8       -0.1218
      8  CA        50.7530   21.1950  -16.0390 C.3     8  THR8        0.1862
      9  C         50.1300   20.3850  -14.9050 C.2     8  THR8        0.2287
     10  O         48.9410   20.5180  -14.6170 O.2     8  THR8       -0.2866
     11  CB        50.3580   20.5520  -17.3830 C.3     8  THR8        0.1770
     12  OG1       50.8850   19.2200  -17.4520 O.3     8  THR8       -0.2211
     13  CG2       50.8960   21.3670  -18.5460 C.3     8  THR8        0.0375
     14  N         41.6540   26.4200  -22.2250 N.3    57  THR57      -0.1203
     15  CA        43.0020   25.9040  -22.4480 C.3    57  THR57       0.1994
     16  C         43.8780   26.9070  -23.1830 C.2    57  THR57       0.2618
     17  O         43.3830   27.8610  -23.7820 O.2    57  THR57      -0.2717
     18  CB        42.9900   24.5870  -23.2600 C.3    57  THR57       0.1784
     19  OG1       42.4510   24.8340  -24.5650 O.3    57  THR57      -0.2211
     20  CG2       42.1560   23.5210  -22.5690 C.3    57  THR57       0.0376
     21  N         45.1870   26.6820  -23.1260 N.am   58  GLY58      -0.1942
     22  CA        46.1380   27.4730  -23.8840 C.3    58  GLY58       0.2014
     23  C         46.0340   27.1900  -25.3680 C.2    58  GLY58       0.2639
     24  O         46.3160   28.0540  -26.1980 O.2    58  GLY58      -0.2714
     25  N         45.6300   25.9690  -25.7010 N.am   59  THR59      -0.1950
     26  CA        45.4380   25.5690  -27.0890 C.3    59  THR59       0.1897
     27  C         44.3380   26.3940  -27.7480 C.2    59  THR59       0.2313
     28  O         44.4890   26.8530  -28.8810 O.2    59  THR59      -0.2863
     29  CB        45.0950   24.0710  -27.1970 C.3    59  THR59       0.1794
     30  OG1       46.2610   23.2940  -26.8970 O.3    59  THR59      -0.2208
     31  CG2       44.6120   23.7250  -28.6000 C.3    59  THR59       0.0378
     32  N         45.3680   30.0670  -28.2530 N.3    62  ASN62      -0.1240
     33  CA        46.1510   30.2820  -29.4620 C.3    62  ASN62       0.1653
     34  C         45.3180   30.0960  -30.7230 C.2    62  ASN62       0.2266
     35  O         45.4750   30.8380  -31.6920 O.2    62  ASN62      -0.2867
     36  CB        47.3550   29.3420  -29.4880 C.3    62  ASN62       0.1155
     37  CG        48.4840   29.8230  -28.6020 C.2    62  ASN62       0.2627
     38  OD1       49.1740   30.7890  -28.9260 O.2    62  ASN62      -0.2716
     39  ND2       48.6740   29.1540  -27.4710 N.am   62  ASN62      -0.0877
     40  N         54.3540   25.7350  -30.4370 N.3    83  HIS83      -0.1241
     41  CA        53.1610   25.0140  -30.0080 C.3    83  HIS83       0.1621
     42  C         51.9530   25.1880  -30.9310 C.2    83  HIS83       0.2264
     43  O         51.3110   24.2070  -31.3040 O.2    83  HIS83      -0.2867
     44  CB        52.7690   25.4270  -28.5920 C.3    83  HIS83       0.0745
     45  CG        52.0180   24.3650  -27.8560 C.ar   83  HIS83       0.0817
     46  ND1       50.6730   24.1350  -28.0510 N.ar   83  HIS83      -0.2268
     47  CD2       52.4280   23.4520  -26.9450 C.ar   83  HIS83       0.1154
     48  CE1       50.2850   23.1320  -27.2860 C.ar   83  HIS83       0.1986
     49  NE2       51.3300   22.7000  -26.6030 N.ar   83  HIS83      -0.2212
     50  N         52.0030   21.4600  -31.8040 N.3    87  PHE87      -0.1227
     51  CA        51.4060   20.7200  -30.6960 C.3    87  PHE87       0.1736
     52  C         49.9260   21.0150  -30.4910 C.2    87  PHE87       0.2595
     53  O         49.3710   20.7330  -29.4290 O.2    87  PHE87      -0.2718
     54  CB        52.1650   21.0100  -29.4010 C.3    87  PHE87       0.0547
     55  CG        53.5930   20.5520  -29.4220 C.ar   87  PHE87      -0.0202
     56  CD1       53.9000   19.2060  -29.5110 C.ar   87  PHE87      -0.0042
     57  CD2       54.6280   21.4670  -29.3390 C.ar   87  PHE87      -0.0042
     58  CE1       55.2140   18.7800  -29.5270 C.ar   87  PHE87      -0.0003
     59  CE2       55.9450   21.0480  -29.3530 C.ar   87  PHE87      -0.0003
     60  CZ        56.2380   19.7020  -29.4460 C.ar   87  PHE87      -0.0000
     61  N         49.2840   21.5820  -31.5040 N.am   88  GLU88      -0.1979
     62  CA        47.8550   21.8390  -31.4210 C.3    88  GLU88       0.1602
     63  C         47.1210   21.2190  -32.6040 C.2    88  GLU88       0.2287
     64  O         46.1270   21.7620  -33.0870 O.2    88  GLU88      -0.2864
     65  CB        47.5880   23.3420  -31.3380 C.3    88  GLU88       0.0415
     66  CG        48.0210   23.9450  -30.0150 C.3    88  GLU88       0.1163
     67  CD        48.0160   25.4540  -30.0260 C.2    88  GLU88       0.3649
     68  OE1       47.4100   26.0410  -30.9460 O.co2  88  GLU88      -0.2457
     69  OE2       48.6260   26.0550  -29.1190 O.co2  88  GLU88      -0.2457
     70  N         57.0600   32.4990  -29.2680 N.3   136  GLU136     -0.1245
     71  CA        56.8110   31.6850  -28.0890 C.3   136  GLU136      0.1567
     72  C         57.8340   32.0080  -27.0090 C.2   136  GLU136      0.2260
     73  O         59.0400   31.8880  -27.2260 O.2   136  GLU136     -0.2867
     74  CB        56.8480   30.1990  -28.4440 C.3   136  GLU136      0.0388
     75  CG        56.4080   29.2800  -27.3190 C.3   136  GLU136      0.1160
     76  CD        56.1950   27.8540  -27.7870 C.2   136  GLU136      0.3649
     77  OE1       55.3510   27.6430  -28.6840 O.co2 136  GLU136     -0.2457
     78  OE2       56.8650   26.9440  -27.2540 O.co2 136  GLU136     -0.2457
     79  N         58.1310   31.6540  -22.6640 N.3   138  THR138     -0.1218
     80  CA        59.3410   30.9340  -23.0560 C.3   138  THR138      0.1862
     81  C         59.1040   29.8360  -24.0930 C.2   138  THR138      0.2287
     82  O         57.9860   29.3520  -24.2660 O.2   138  THR138     -0.2866
     83  CB        60.0200   30.2880  -21.8340 C.3   138  THR138      0.1770
     84  OG1       59.1500   29.3000  -21.2690 O.3   138  THR138     -0.2211
     85  CG2       60.3440   31.3340  -20.7820 C.3   138  THR138      0.0375
     86  N         53.0300   33.3510  -27.9220 N.3   166  ASP166     -0.1239
     87  CA        52.5170   32.3010  -27.0610 C.3   166  ASP166      0.1674
     88  C         53.1940   32.4420  -25.7050 C.2   166  ASP166      0.2266
     89  O         54.3450   32.0430  -25.5300 O.2   166  ASP166     -0.2867
     90  CB        52.7720   30.9250  -27.6760 C.3   166  ASP166      0.1410
     91  CG        52.0360   29.8100  -26.9570 C.2   166  ASP166      0.3668
     92  OD1       51.6320   29.9940  -25.7900 O.co2 166  ASP166     -0.2456
     93  OD2       51.8510   28.7450  -27.5790 O.co2 166  ASP166     -0.2456
     94  N         52.4560   31.0580  -22.7180 N.3   168  ALA168     -0.1231
     95  CA        52.0830   30.0200  -21.7650 C.3   168  ALA168      0.1694
     96  C         52.9910   30.0370  -20.5380 C.2   168  ALA168      0.2591
     97  O         52.5590   29.7250  -19.4290 O.2   168  ALA168     -0.2718
     98  CB        52.1190   28.6630  -22.4280 C.3   168  ALA168      0.0304
     99  N         54.2520   30.4000  -20.7500 N.am  169  ARG169     -0.1980
    100  CA        55.2160   30.5260  -19.6640 C.3   169  ARG169      0.1597
    101  C         55.9030   31.8850  -19.7240 C.2   169  ARG169      0.2287
    102  O         57.1220   31.9870  -19.5840 O.2   169  ARG169     -0.2864
    103  CB        56.2480   29.4010  -19.7300 C.3   169  ARG169      0.0334
    104  CG        55.6410   28.0190  -19.5940 C.3   169  ARG169      0.0492
    105  CD        56.7000   26.9460  -19.4390 C.3   169  ARG169      0.2205
    106  NE        56.1010   25.6190  -19.3430 N.pl3 169  ARG169     -0.0865
    107  CZ        55.7140   24.8980  -20.3910 C.cat 169  ARG169      0.5346
    108  NH1       55.8650   25.3760  -21.6190 N.pl3 169  ARG169      0.1354
    109  NH2       55.1780   23.6980  -20.2130 N.pl3 169  ARG169      0.1354
    110  N         49.0460   31.2110  -19.7680 N.3   194  CYS194     -0.1235
    111  CA        48.5710   29.9620  -19.1920 C.3   194  CYS194      0.1677
    112  C         48.6010   30.0570  -17.6760 C.2   194  CYS194      0.2270
    113  O         49.5760   30.5240  -17.0880 O.2   194  CYS194     -0.2867
    114  CB        49.4060   28.7760  -19.6720 C.3   194  CYS194      0.0956
    115  SG        48.8090   28.0310  -21.2080 S.3   194  CYS194     -0.0801
    116  N         47.4010   27.3010  -15.7920 N.3   196  SER196     -0.1202
    117  CA        47.3090   25.9350  -15.2990 C.3   196  SER196      0.2020
    118  C         48.6560   25.2260  -15.2130 C.2   196  SER196      0.2618
    119  O         48.7100   24.0090  -15.0360 O.2   196  SER196     -0.2717
    120  CB        46.3640   25.1290  -16.1900 C.3   196  SER196      0.2103
    121  OG        46.7940   25.1550  -17.5410 O.3   196  SER196     -0.2182
    122  N         49.7410   25.9840  -15.3330 N.am  197  LYS197     -0.1979
    123  CA        51.0780   25.4080  -15.2220 C.3   197  LYS197      0.1596
    124  C         51.8050   25.8750  -13.9690 C.2   197  LYS197      0.2287
    125  O         51.3800   25.5870  -12.8520 O.2   197  LYS197     -0.2864
    126  CB        51.9110   25.7370  -16.4610 C.3   197  LYS197      0.0298
    127  CG        51.2900   25.2620  -17.7580 C.3   197  LYS197      0.0038
    128  CD        52.3570   25.0420  -18.8130 C.3   197  LYS197      0.0206
    129  CE        51.7410   24.7840  -20.1700 C.3   197  LYS197      0.1093
    130  NZ        50.3480   25.3050  -20.2640 N.3   197  LYS197     -0.1314
    131  N         62.6710   15.5880  -21.1210 N.3   308  ARG308     -0.1245
    132  CA        62.4020   16.9200  -20.6100 C.3   308  ARG308      0.1563
    133  C         61.9220   16.8340  -19.1700 C.2   308  ARG308      0.2260
    134  O         60.8850   16.2380  -18.8840 O.2   308  ARG308     -0.2867
    135  CB        61.3590   17.6350  -21.4660 C.3   308  ARG308      0.0307
    136  CG        61.0500   19.0420  -20.9870 C.3   308  ARG308      0.0489
    137  CD        59.8090   19.6040  -21.6520 C.3   308  ARG308      0.2205
    138  NE        58.5930   18.9340  -21.2030 N.pl3 308  ARG308     -0.0865
    139  CZ        57.3700   19.4340  -21.3520 C.cat 308  ARG308      0.5346
    140  NH1       57.2030   20.6110  -21.9340 N.pl3 308  ARG308      0.1354
    141  NH2       56.3150   18.7610  -20.9150 N.pl3 308  ARG308      0.1354
@<TRIPOS>BOND
     1    64    63    2
     2    63    62    1
     3    50    51    1
     4    35    34    2
     5    61    62    1
     6    61    52   am
     7    62    65    1
     8    65    66    1
     9    43    42    2
    10    68    67   ar
    11    42    41    1
    12    34    33    1
    13    51    52    1
    14    51    54    1
    15    52    53    2
    16    40    41    1
    17    67    66    1
    18    67    69   ar
    19    41    44    1
    20    58    56   ar
    21    58    60   ar
    22    56    55   ar
    23    36    33    1
    24    36    37    1
    25    33    32    1
    26    60    59   ar
    27    55    54    1
    28    55    57   ar
    29    59    57   ar
    30    70    71    1
    31    38    37    2
    32    28    27    2
    33    77    76   ar
    34    37    39   am
    35    31    29    1
    36    44    45    1
    37    74    71    1
    38    74    75    1
    39    71    72    1
    40    46    45   ar
    41    46    48   ar
    42    86    87    1
    43    45    47   ar
    44    76    75    1
    45    76    78   ar
    46    27    26    1
    47    90    87    1
    48    90    91    1
    49    93    91   ar
    50    48    49   ar
    51    73    72    2
    52    29    26    1
    53    29    30    1
    54    26    25    1
    55    87    88    1
    56    91    92   ar
    57    47    49   ar
    58    24    23    2
    59    88    89    2
    60    25    23   am
    61    23    22    1
    62    19    18    1
    63    82    81    2
    64    81    80    1
    65    22    21    1
    66    17    16    2
    67    18    20    1
    68    18    15    1
    69    16    21   am
    70    16    15    1
    71    80    79    1
    72    80    83    1
    73    94    95    1
    74    15    14    1
    75    98    95    1
    76   140   139    1
    77    83    84    1
    78    83    85    1
    79    95    96    1
    80   137   138    1
    81   137   136    1
    82   108   107    1
    83   135   136    1
    84   135   132    1
    85   139   138    2
    86   139   141    1
    87   115   114    1
    88   131   132    1
    89    99    96   am
    90    99   100    1
    91   132   133    1
    92    96    97    2
    93   107   109    1
    94   107   106    2
    95   130   129    1
    96   129   128    1
    97   110   111    1
    98   103   100    1
    99   103   104    1
   100   101   100    1
   101   101   102    2
   102   114   111    1
   103   104   105    1
   104   105   106    1
   105   111   112    1
   106   133   134    2
   107   128   127    1
   108    13    11    1
   109     6     5    1
   110     5     2    1
   111   127   126    1
   112   112   113    2
   113   121   120    1
   114    12    11    1
   115    11     8    1
   116     2     1    1
   117     2     3    1
   118   126   123    1
   119   120   117    1
   120     8     7    1
   121     8     9    1
   122   116   117    1
   123     3     4    2
   124   122   123    1
   125   122   118   am
   126   117   118    1
   127   123   124    1
   128   118   119    2
   129     9    10    2
   130   124   125    2
