@<TRIPOS>MOLECULE
tmp/3wmbA00.pdb
 161 165 0 0 0
SMALL
GASTEIGER

@<TRIPOS>ATOM
      1  N         35.4080   13.7600    6.5350 N.3   300  TRP300     -0.1227
      2  CA        35.8640   12.3700    6.4350 C.3   300  TRP300      0.1737
      3  C         34.8050   11.2960    6.7410 C.2   300  TRP300      0.2595
      4  O         34.9050   10.1680    6.2410 O.2   300  TRP300     -0.2718
      5  CB        37.1370   12.1340    7.2680 C.3   300  TRP300      0.0564
      6  CG        36.9500   12.2480    8.7590 C.ar  300  TRP300      0.0003
      7  CD1       37.2240   13.3350    9.5400 C.ar  300  TRP300      0.0946
      8  CD2       36.4570   11.2330    9.6460 C.ar  300  TRP300      0.0152
      9  NE1       36.9280   13.0620   10.8540 N.ar  300  TRP300     -0.2442
     10  CE2       36.4540   11.7780   10.9460 C.ar  300  TRP300      0.0810
     11  CE3       36.0130    9.9180    9.4660 C.ar  300  TRP300      0.0012
     12  CZ2       36.0260   11.0540   12.0600 C.ar  300  TRP300      0.0191
     13  CZ3       35.5900    9.2020   10.5680 C.ar  300  TRP300      0.0001
     14  CH2       35.6000    9.7700   11.8490 C.ar  300  TRP300      0.0015
     15  N         33.8020   11.6340    7.5510 N.am  301  LYS301     -0.1980
     16  CA        32.7540   10.6710    7.9030 C.3   301  LYS301      0.1596
     17  C         31.8980   10.2630    6.6980 C.2   301  LYS301      0.2287
     18  O         31.1860    9.2570    6.7490 O.2   301  LYS301     -0.2864
     19  CB        31.8580   11.2110    9.0220 C.3   301  LYS301      0.0298
     20  CG        32.4920   11.1840   10.4150 C.3   301  LYS301      0.0038
     21  CD        31.6160   11.8990   11.4530 C.3   301  LYS301      0.0206
     22  CE        32.4050   12.3070   12.7070 C.3   301  LYS301      0.1093
     23  NZ        32.3320   11.3110   13.8170 N.3   301  LYS301     -0.1314
     24  N         35.9260    5.1990    7.1570 N.3   305  VAL305     -0.1231
     25  CA        35.6450    4.8760    8.5580 C.3   305  VAL305      0.1692
     26  C         36.5230    5.6510    9.5480 C.2   305  VAL305      0.2591
     27  O         36.1180    5.8770   10.6900 O.2   305  VAL305     -0.2718
     28  CB        35.7160    3.3400    8.8450 C.3   305  VAL305      0.0266
     29  CG1       35.5640    2.5460    7.5540 C.3   305  VAL305      0.0020
     30  CG2       37.0060    2.9640    9.5440 C.3   305  VAL305      0.0020
     31  N         37.7140    6.0590    9.1090 N.am  306  GLU306     -0.1979
     32  CA        38.6170    6.8560    9.9460 C.3   306  GLU306      0.1602
     33  C         39.6080    7.6530    9.0920 C.2   306  GLU306      0.2287
     34  O         40.1060    7.1520    8.0760 O.2   306  GLU306     -0.2864
     35  CB        39.3510    5.9760   10.9800 C.3   306  GLU306      0.0415
     36  CG        40.6120    5.2810   10.4670 C.3   306  GLU306      0.1163
     37  CD        41.1910    4.2710   11.4520 C.2   306  GLU306      0.3649
     38  OE1       42.4340    4.1390   11.5020 O.co2 306  GLU306     -0.2457
     39  OE2       40.4070    3.5970   12.1600 O.co2 306  GLU306     -0.2457
     40  N         40.3320   -4.7020    3.2720 N.3   345  ASP345     -0.1225
     41  CA        39.5070   -3.9160    4.1870 C.3   345  ASP345      0.1805
     42  C         38.3750   -3.2250    3.4290 C.2   345  ASP345      0.2597
     43  O         38.5060   -2.9520    2.2360 O.2   345  ASP345     -0.2718
     44  CB        40.3550   -2.8840    4.9320 C.3   345  ASP345      0.1424
     45  CG        40.8210   -3.3820    6.2870 C.2   345  ASP345      0.3668
     46  OD1       42.0120   -3.7360    6.4270 O.co2 345  ASP345     -0.2456
     47  OD2       39.9870   -3.4180    7.2140 O.co2 345  ASP345     -0.2456
     48  N         37.2730   -2.9460    4.1230 N.am  346  GLU346     -0.1979
     49  CA        36.0740   -2.4000    3.4820 C.3   346  GLU346      0.1602
     50  C         36.3340   -1.1570    2.6250 C.2   346  GLU346      0.2287
     51  O         36.9040   -0.1680    3.0860 O.2   346  GLU346     -0.2864
     52  CB        34.9690   -2.1250    4.5130 C.3   346  GLU346      0.0415
     53  CG        33.6020   -1.7900    3.8980 C.3   346  GLU346      0.1163
     54  CD        33.0610   -2.8920    2.9890 C.2   346  GLU346      0.3649
     55  OE1       32.2800   -2.5750    2.0670 O.co2 346  GLU346     -0.2457
     56  OE2       33.4090   -4.0740    3.1960 O.co2 346  GLU346     -0.2457
     57  N         40.2670   -9.8750    4.4220 N.3   402  TRP402     -0.1241
     58  CA        39.3520   -9.7450    5.5490 C.3   402  TRP402      0.1605
     59  C         37.9170  -10.0460    5.1240 C.2   402  TRP402      0.2264
     60  O         37.5710   -9.9080    3.9490 O.2   402  TRP402     -0.2867
     61  CB        39.4250   -8.3300    6.1350 C.3   402  TRP402      0.0550
     62  CG        40.6310   -8.0790    7.0060 C.ar  402  TRP402      0.0003
     63  CD1       41.8010   -7.4720    6.6430 C.ar  402  TRP402      0.0946
     64  CD2       40.7750   -8.4280    8.3880 C.ar  402  TRP402      0.0152
     65  NE1       42.6630   -7.4250    7.7160 N.ar  402  TRP402     -0.2442
     66  CE2       42.0560   -8.0090    8.7990 C.ar  402  TRP402      0.0810
     67  CE3       39.9410   -9.0570    9.3210 C.ar  402  TRP402      0.0012
     68  CZ2       42.5230   -8.1980   10.1010 C.ar  402  TRP402      0.0191
     69  CZ3       40.4070   -9.2430   10.6160 C.ar  402  TRP402      0.0001
     70  CH2       41.6830   -8.8150   10.9930 C.ar  402  TRP402      0.0015
     71  N         36.9440  -10.7750   11.4820 N.3   426  TRP426     -0.1241
     72  CA        36.8980   -9.8420   12.6040 C.3   426  TRP426      0.1605
     73  C         35.5260   -9.8610   13.2670 C.2   426  TRP426      0.2264
     74  O         35.3850   -9.4920   14.4320 O.2   426  TRP426     -0.2867
     75  CB        37.2600   -8.4180   12.1670 C.3   426  TRP426      0.0550
     76  CG        36.3250   -7.8330   11.1570 C.ar  426  TRP426      0.0003
     77  CD1       36.4790   -7.8360    9.8020 C.ar  426  TRP426      0.0946
     78  CD2       35.0920   -7.1480   11.4190 C.ar  426  TRP426      0.0152
     79  NE1       35.4160   -7.2010    9.2030 N.ar  426  TRP426     -0.2442
     80  CE2       34.5500   -6.7710   10.1750 C.ar  426  TRP426      0.0810
     81  CE3       34.3930   -6.8180   12.5860 C.ar  426  TRP426      0.0012
     82  CZ2       33.3400   -6.0810   10.0630 C.ar  426  TRP426      0.0191
     83  CZ3       33.1920   -6.1330   12.4730 C.ar  426  TRP426      0.0001
     84  CH2       32.6790   -5.7720   11.2220 C.ar  426  TRP426      0.0015
     85  N         40.5860   -8.1730   19.6150 N.3   453  TYR453     -0.1241
     86  CA        41.0710   -6.8260   19.2910 C.3   453  TYR453      0.1605
     87  C         41.7420   -6.1930   20.5050 C.2   453  TYR453      0.2264
     88  O         41.0700   -5.7040   21.4270 O.2   453  TYR453     -0.2867
     89  CB        39.9440   -5.9230   18.7780 C.3   453  TYR453      0.0534
     90  CG        39.7740   -5.9650   17.2800 C.ar  453  TYR453     -0.0201
     91  CD1       39.2130   -4.8950   16.5880 C.ar  453  TYR453     -0.0009
     92  CD2       40.1780   -7.0800   16.5540 C.ar  453  TYR453     -0.0009
     93  CE1       39.0610   -4.9390   15.2100 C.ar  453  TYR453      0.0417
     94  CE2       40.0290   -7.1360   15.1870 C.ar  453  TYR453      0.0417
     95  CZ        39.4750   -6.0670   14.5190 C.ar  453  TYR453      0.1957
     96  OH        39.3410   -6.1500   13.1560 O.3   453  TYR453     -0.2866
     97  N         40.1800    8.5750   20.2460 N.3   461  TRP461     -0.1227
     98  CA        41.2160    9.3420   19.5530 C.3   461  TRP461      0.1737
     99  C         40.6110   10.3400   18.5640 C.2   461  TRP461      0.2595
    100  O         41.3090   11.2130   18.0420 O.2   461  TRP461     -0.2718
    101  CB        42.2570    8.4400   18.8850 C.3   461  TRP461      0.0564
    102  CG        41.7480    7.5940   17.7600 C.ar  461  TRP461      0.0003
    103  CD1       41.1570    6.3690   17.8610 C.ar  461  TRP461      0.0946
    104  CD2       41.8190    7.8910   16.3590 C.ar  461  TRP461      0.0152
    105  NE1       40.8430    5.8890   16.6120 N.ar  461  TRP461     -0.2442
    106  CE2       41.2410    6.8020   15.6710 C.ar  461  TRP461      0.0810
    107  CE3       42.3120    8.9740   15.6170 C.ar  461  TRP461      0.0012
    108  CZ2       41.1400    6.7620   14.2760 C.ar  461  TRP461      0.0191
    109  CZ3       42.2150    8.9330   14.2290 C.ar  461  TRP461      0.0001
    110  CH2       41.6320    7.8350   13.5750 C.ar  461  TRP461      0.0015
    111  N         39.3130   10.1970   18.3120 N.am  462  VAL462     -0.1980
    112  CA        38.5270   11.2630   17.6930 C.3   462  VAL462      0.1595
    113  C         37.3500   11.6040   18.6150 C.2   462  VAL462      0.2287
    114  O         36.5240   10.7470   18.9310 O.2   462  VAL462     -0.2864
    115  CB        38.0380   10.9120   16.2560 C.3   462  VAL462      0.0276
    116  CG1       39.2060   10.8820   15.2840 C.3   462  VAL462      0.0022
    117  CG2       37.2830    9.5830   16.2280 C.3   462  VAL462      0.0022
    118  N         35.1970    6.7240   24.8530 N.3   466  ASN466     -0.1225
    119  CA        36.1480    5.6350   24.6680 C.3   466  ASN466      0.1785
    120  C         36.2440    5.2420   23.1920 C.2   466  ASN466      0.2597
    121  O         35.5200    5.7910   22.3570 O.2   466  ASN466     -0.2718
    122  CB        35.7890    4.4370   25.5580 C.3   466  ASN466      0.1169
    123  CG        36.0220    4.7180   27.0420 C.2   466  ASN466      0.2627
    124  OD1       35.1710    5.2960   27.7170 O.2   466  ASN466     -0.2716
    125  ND2       37.1800    4.3070   27.5510 N.am  466  ASN466     -0.0877
    126  N         37.1450    4.3220   22.8540 N.am  467  ASN467     -0.1960
    127  CA        37.2540    3.9070   21.4560 C.3   467  ASN467      0.1819
    128  C         36.1230    2.9630   21.0460 C.2   467  ASN467      0.2621
    129  O         35.3970    2.4520   21.9030 O.2   467  ASN467     -0.2715
    130  CB        38.6490    3.3630   21.1040 C.3   467  ASN467      0.1195
    131  CG        39.0180    2.1000   21.8690 C.2   467  ASN467      0.2630
    132  OD1       38.1730    1.2490   22.1590 O.2   467  ASN467     -0.2716
    133  ND2       40.3040    1.9680   22.1850 N.am  467  ASN467     -0.0877
    134  N         35.9820    2.7390   19.7420 N.am  468  TRP468     -0.1974
    135  CA        34.7640    2.1470   19.1900 C.3   468  TRP468      0.1640
    136  C         34.4220    0.7690   19.7430 C.2   468  TRP468      0.2290
    137  O         33.2480    0.4640   19.9590 O.2   468  TRP468     -0.2864
    138  CB        34.8230    2.0970   17.6580 C.3   468  TRP468      0.0576
    139  CG        35.6610    0.9840   17.1030 C.ar  468  TRP468      0.0006
    140  CD1       37.0020    1.0120   16.8520 C.ar  468  TRP468      0.0946
    141  CD2       35.2090   -0.3220   16.7200 C.ar  468  TRP468      0.0152
    142  NE1       37.4160   -0.1970   16.3400 N.ar  468  TRP468     -0.2442
    143  CE2       36.3350   -1.0340   16.2520 C.ar  468  TRP468      0.0810
    144  CE3       33.9630   -0.9590   16.7290 C.ar  468  TRP468      0.0012
    145  CZ2       36.2500   -2.3550   15.7950 C.ar  468  TRP468      0.0191
    146  CZ3       33.8810   -2.2680   16.2760 C.ar  468  TRP468      0.0001
    147  CH2       35.0180   -2.9510   15.8140 C.ar  468  TRP468      0.0015
    148  N         45.7990   -3.0220   16.5630 N.3   502  TRP502     -0.1241
    149  CA        45.7010   -1.8200   15.7450 C.3   502  TRP502      0.1605
    150  C         46.3800   -0.6780   16.4880 C.2   502  TRP502      0.2264
    151  O         46.3830   -0.6520   17.7230 O.2   502  TRP502     -0.2867
    152  CB        44.2400   -1.5210   15.4330 C.3   502  TRP502      0.0550
    153  CG        43.6140   -2.6880   14.7450 C.ar  502  TRP502      0.0003
    154  CD1       42.6990   -3.5660   15.2640 C.ar  502  TRP502      0.0946
    155  CD2       43.9070   -3.1500   13.4190 C.ar  502  TRP502      0.0152
    156  NE1       42.3890   -4.5320   14.3290 N.ar  502  TRP502     -0.2442
    157  CE2       43.1160   -4.2970   13.1890 C.ar  502  TRP502      0.0810
    158  CE3       44.7510   -2.6960   12.3990 C.ar  502  TRP502      0.0012
    159  CZ2       43.1470   -4.9910   11.9810 C.ar  502  TRP502      0.0191
    160  CZ3       44.7800   -3.3880   11.2040 C.ar  502  TRP502      0.0001
    161  CH2       43.9840   -4.5230   11.0050 C.ar  502  TRP502      0.0015
@<TRIPOS>BOND
     1    55    54   ar
     2    43    42    2
     3    50    51    2
     4    50    49    1
     5    54    56   ar
     6    54    53    1
     7    40    41    1
     8    42    48   am
     9    42    41    1
    10    49    48    1
    11    49    52    1
    12    53    52    1
    13    60    59    2
    14    41    44    1
    15    57    58    1
    16    44    45    1
    17    59    58    1
    18    58    61    1
    19    61    62    1
    20     4     3    2
    21    45    46   ar
    22    45    47   ar
    23     2     1    1
    24     2     3    1
    25     2     5    1
    26    63    62   ar
    27    63    65   ar
    28    17    18    2
    29    17    16    1
    30     3    15   am
    31    62    64   ar
    32    24    25    1
    33     5     6    1
    34    15    16    1
    35    29    28    1
    36    65    66   ar
    37    16    19    1
    38    34    33    2
    39    64    66   ar
    40    64    67   ar
    41    25    28    1
    42    25    26    1
    43     6     7   ar
    44     6     8   ar
    45    66    68   ar
    46    28    30    1
    47    19    20    1
    48    33    32    1
    49    31    26   am
    50    31    32    1
    51    79    77   ar
    52    79    80   ar
    53    67    69   ar
    54    11     8   ar
    55    11    13   ar
    56     7     9   ar
    57    26    27    2
    58     8    10   ar
    59    77    76   ar
    60    32    35    1
    61    82    80   ar
    62    82    84   ar
    63    68    70   ar
    64    80    78   ar
    65    20    21    1
    66    36    35    1
    67    36    37    1
    68    13    14   ar
    69    69    70   ar
    70     9    10   ar
    71    10    12   ar
    72   161   160   ar
    73   161   159   ar
    74    76    78   ar
    75    76    75    1
    76   160   158   ar
    77    84    83   ar
    78    78    81   ar
    79    37    38   ar
    80    37    39   ar
    81    21    22    1
    82    71    72    1
    83    14    12   ar
    84   159   157   ar
    85    75    72    1
    86   158   155   ar
    87    83    81   ar
    88    72    73    1
    89    22    23    1
    90    96    95    1
    91   157   155   ar
    92   157   156   ar
    93    73    74    2
    94   155   153   ar
    95   110   109   ar
    96   110   108   ar
    97   109   107   ar
    98   108   106   ar
    99   156   154   ar
   100    95    94   ar
   101    95    93   ar
   102   153   154   ar
   103   153   152    1
   104    94    92   ar
   105    93    91   ar
   106   116   115    1
   107   152   149    1
   108   107   104   ar
   109   106   104   ar
   110   106   105   ar
   111   149   150    1
   112   149   148    1
   113   145   147   ar
   114   145   143   ar
   115   147   146   ar
   116   117   115    1
   117   143   142   ar
   118   143   141   ar
   119   115   112    1
   120   146   144   ar
   121   142   140   ar
   122   104   102   ar
   123   150   151    2
   124    92    90   ar
   125    91    90   ar
   126   105   103   ar
   127   141   144   ar
   128   141   139   ar
   129   140   139   ar
   130   139   138    1
   131    90    89    1
   132   138   135    1
   133   112   111    1
   134   112   113    1
   135   102   103   ar
   136   102   101    1
   137   100    99    2
   138   111    99   am
   139    99    98    1
   140   113   114    2
   141    89    86    1
   142   101    98    1
   143   135   134    1
   144   135   136    1
   145    86    85    1
   146    86    87    1
   147    98    97    1
   148   134   128   am
   149   136   137    2
   150    87    88    2
   151   128   127    1
   152   128   129    2
   153   130   127    1
   154   130   131    1
   155   127   126    1
   156   131   132    2
   157   131   133   am
   158   121   120    2
   159   126   120   am
   160   120   119    1
   161   119   118    1
   162   119   122    1
   163   122   123    1
   164   123   125   am
   165   123   124    2
