@<TRIPOS>MOLECULE
tmp/3wmcA00.pdb
 143 143 0 0 0
SMALL
GASTEIGER

@<TRIPOS>ATOM
      1  N        -50.0940   -3.0480  187.1530 N.3   198  ARG198     -0.1245
      2  CA       -49.3290   -4.0360  187.9190 C.3   198  ARG198      0.1563
      3  C        -50.2540   -4.7150  188.9220 C.2   198  ARG198      0.2260
      4  O        -50.0150   -5.8460  189.3520 O.2   198  ARG198     -0.2867
      5  CB       -48.1540   -3.3650  188.6360 C.3   198  ARG198      0.0307
      6  CG       -46.8400   -3.3950  187.8590 C.3   198  ARG198      0.0489
      7  CD       -46.9670   -2.7530  186.4740 C.3   198  ARG198      0.2205
      8  NE       -45.6670   -2.7000  185.8050 N.pl3 198  ARG198     -0.0865
      9  CZ       -44.7920   -1.7120  185.9660 C.cat 198  ARG198      0.5346
     10  NH1      -45.0870   -0.6840  186.7580 N.pl3 198  ARG198      0.1354
     11  NH2      -43.6280   -1.7430  185.3290 N.pl3 198  ARG198      0.1354
     12  N        -42.9020   -1.9950  178.2980 N.3   281  HIS281     -0.1241
     13  CA       -44.0240   -2.0930  179.2310 C.3   281  HIS281      0.1621
     14  C        -45.3380   -2.4400  178.5400 C.2   281  HIS281      0.2264
     15  O        -46.3870   -1.8650  178.8380 O.2   281  HIS281     -0.2867
     16  CB       -44.1600   -0.8090  180.0540 C.3   281  HIS281      0.0745
     17  CG       -43.0170   -0.5810  180.9900 C.ar  281  HIS281      0.0817
     18  ND1      -43.0080   -1.0510  182.2860 N.ar  281  HIS281     -0.2268
     19  CD2      -41.8250    0.0390  180.8120 C.ar  281  HIS281      0.1154
     20  CE1      -41.8710   -0.7200  182.8680 C.ar  281  HIS281      0.1986
     21  NE2      -41.1360   -0.0530  181.9940 N.ar  281  HIS281     -0.2212
     22  N        -36.2550   -5.2940  182.7050 N.3   305  VAL305     -0.1231
     23  CA       -35.9810   -4.8330  184.0620 C.3   305  VAL305      0.1692
     24  C        -36.7710   -5.6250  185.1090 C.2   305  VAL305      0.2591
     25  O        -36.2970   -5.8430  186.2260 O.2   305  VAL305     -0.2718
     26  CB       -36.3100   -3.3300  184.1870 C.3   305  VAL305      0.0266
     27  CG1      -36.0960   -2.8390  185.6020 C.3   305  VAL305      0.0020
     28  CG2      -35.4600   -2.5260  183.2200 C.3   305  VAL305      0.0020
     29  N        -37.9760   -6.0530  184.7440 N.am  306  GLU306     -0.1979
     30  CA       -38.8000   -6.8670  185.6320 C.3   306  GLU306      0.1602
     31  C        -39.7490   -7.7160  184.7980 C.2   306  GLU306      0.2287
     32  O        -40.1890   -7.2960  183.7260 O.2   306  GLU306     -0.2864
     33  CB       -39.5810   -5.9910  186.6290 C.3   306  GLU306      0.0415
     34  CG       -40.8040   -5.2890  186.0440 C.3   306  GLU306      0.1163
     35  CD       -41.5060   -4.3820  187.0450 C.2   306  GLU306      0.3649
     36  OE1      -42.7470   -4.4790  187.1840 O.co2 306  GLU306     -0.2457
     37  OE2      -40.8260   -3.5580  187.6850 O.co2 306  GLU306     -0.2457
     38  N        -40.2940    4.6990  179.0470 N.3   345  ASP345     -0.1225
     39  CA       -39.2860    4.2740  180.0150 C.3   345  ASP345      0.1805
     40  C        -38.6970    2.9110  179.6810 C.2   345  ASP345      0.2597
     41  O        -39.3960    2.0350  179.1810 O.2   345  ASP345     -0.2718
     42  CB       -39.8370    4.2860  181.4450 C.3   345  ASP345      0.1424
     43  CG       -41.1010    3.4750  181.5890 C.2   345  ASP345      0.3668
     44  OD1      -41.7760    3.2410  180.5720 O.co2 345  ASP345     -0.2456
     45  OD2      -41.4340    3.0780  182.7220 O.co2 345  ASP345     -0.2456
     46  N        -37.3960    2.7640  179.9200 N.am  346  GLU346     -0.1979
     47  CA       -36.7560    1.4510  180.0320 C.3   346  GLU346      0.1602
     48  C        -36.8150    0.5420  178.8000 C.2   346  GLU346      0.2287
     49  O        -37.1810   -0.6280  178.9160 O.2   346  GLU346     -0.2864
     50  CB       -37.3360    0.6960  181.2420 C.3   346  GLU346      0.0415
     51  CG       -37.1750    1.4420  182.5650 C.3   346  GLU346      0.1163
     52  CD       -37.5920    0.6160  183.7650 C.2   346  GLU346      0.3649
     53  OE1      -38.7070    0.0460  183.7550 O.co2 346  GLU346     -0.2457
     54  OE2      -36.7990    0.5330  184.7260 O.co2 346  GLU346     -0.2457
     55  N        -40.7070    9.7450  180.1250 N.3   402  TRP402     -0.1241
     56  CA       -39.8000    9.6080  181.2670 C.3   402  TRP402      0.1605
     57  C        -38.3630    9.8800  180.8490 C.2   402  TRP402      0.2264
     58  O        -38.0300    9.7690  179.6650 O.2   402  TRP402     -0.2867
     59  CB       -39.8580    8.1860  181.8320 C.3   402  TRP402      0.0550
     60  CG       -41.1250    7.8620  182.5260 C.ar  402  TRP402      0.0003
     61  CD1      -42.1950    7.1930  182.0120 C.ar  402  TRP402      0.0946
     62  CD2      -41.4640    8.1880  183.8760 C.ar  402  TRP402      0.0152
     63  NE1      -43.1810    7.0850  182.9620 N.ar  402  TRP402     -0.2442
     64  CE2      -42.7540    7.6900  184.1140 C.ar  402  TRP402      0.0810
     65  CE3      -40.7990    8.8560  184.9060 C.ar  402  TRP402      0.0012
     66  CZ2      -43.3940    7.8400  185.3380 C.ar  402  TRP402      0.0191
     67  CZ3      -41.4310    8.9950  186.1230 C.ar  402  TRP402      0.0001
     68  CH2      -42.7150    8.4940  186.3280 C.ar  402  TRP402      0.0015
     69  N        -37.3330   10.7260  186.9460 N.3   426  TRP426     -0.1241
     70  CA       -37.1960    9.8440  188.0760 C.3   426  TRP426      0.1605
     71  C        -35.8300    9.4770  188.5530 C.2   426  TRP426      0.2264
     72  O        -35.7050    8.6800  189.4370 O.2   426  TRP426     -0.2867
     73  CB       -38.0060    8.5650  187.8710 C.3   426  TRP426      0.0550
     74  CG       -37.5990    7.6860  186.6950 C.ar  426  TRP426      0.0003
     75  CD1      -37.5360    8.0420  185.3990 C.ar  426  TRP426      0.0946
     76  CD2      -37.2690    6.2980  186.7300 C.ar  426  TRP426      0.0152
     77  NE1      -37.1430    7.0040  184.6300 N.ar  426  TRP426     -0.2442
     78  CE2      -36.9890    5.9070  185.4200 C.ar  426  TRP426      0.0810
     79  CE3      -37.1900    5.3410  187.7400 C.ar  426  TRP426      0.0012
     80  CZ2      -36.6330    4.6110  185.1050 C.ar  426  TRP426      0.0191
     81  CZ3      -36.8230    4.0700  187.4150 C.ar  426  TRP426      0.0001
     82  CH2      -36.5540    3.7110  186.1260 C.ar  426  TRP426      0.0015
     83  N        -36.7390    9.4590  192.4440 N.3   449  TYR449     -0.1241
     84  CA       -37.0520    8.2200  193.1550 C.3   449  TYR449      0.1605
     85  C        -36.5610    8.1810  194.5930 C.2   449  TYR449      0.2264
     86  O        -37.0510    7.3780  195.3820 O.2   449  TYR449     -0.2867
     87  CB       -36.5620    6.9860  192.3810 C.3   449  TYR449      0.0534
     88  CG       -35.0850    6.6730  192.5220 C.ar  449  TYR449     -0.0201
     89  CD1      -34.1700    7.1330  191.5900 C.ar  449  TYR449     -0.0009
     90  CD2      -34.6140    5.8850  193.5640 C.ar  449  TYR449     -0.0009
     91  CE1      -32.8340    6.8420  191.6990 C.ar  449  TYR449      0.0417
     92  CE2      -33.2750    5.5930  193.6850 C.ar  449  TYR449      0.0417
     93  CZ       -32.3910    6.0740  192.7480 C.ar  449  TYR449      0.1957
     94  OH       -31.0550    5.7840  192.8590 O.3   449  TYR449     -0.2866
     95  N        -40.8430    8.1840  195.1810 N.3   453  TYR453     -0.1241
     96  CA       -41.3610    6.8510  194.8740 C.3   453  TYR453      0.1605
     97  C        -41.9970    6.2460  196.1140 C.2   453  TYR453      0.2264
     98  O        -41.2950    5.7990  197.0280 O.2   453  TYR453     -0.2867
     99  CB       -40.2620    5.9400  194.3200 C.3   453  TYR453      0.0534
    100  CG       -40.1470    6.0190  192.8220 C.ar  453  TYR453     -0.0201
    101  CD1      -39.7370    4.9230  192.0740 C.ar  453  TYR453     -0.0009
    102  CD2      -40.4600    7.1970  192.1530 C.ar  453  TYR453     -0.0009
    103  CE1      -39.6390    5.0000  190.6950 C.ar  453  TYR453      0.0417
    104  CE2      -40.3640    7.2840  190.7860 C.ar  453  TYR453      0.0417
    105  CZ       -39.9580    6.1880  190.0680 C.ar  453  TYR453      0.1957
    106  OH       -39.8830    6.2990  188.7110 O.3   453  TYR453     -0.2866
    107  N        -36.4420   -2.7380  195.3220 N.3   468  TRP468     -0.1241
    108  CA       -35.2470   -2.1110  194.7440 C.3   468  TRP468      0.1605
    109  C        -34.8780   -0.7290  195.2740 C.2   468  TRP468      0.2264
    110  O        -33.6960   -0.4170  195.3920 O.2   468  TRP468     -0.2867
    111  CB       -35.3420   -2.0710  193.2070 C.3   468  TRP468      0.0550
    112  CG       -36.1890   -0.9490  192.6710 C.ar  468  TRP468      0.0003
    113  CD1      -37.5300   -0.9830  192.4090 C.ar  468  TRP468      0.0946
    114  CD2      -35.7460    0.3710  192.3200 C.ar  468  TRP468      0.0152
    115  NE1      -37.9470    0.2350  191.9230 N.ar  468  TRP468     -0.2442
    116  CE2      -36.8710    1.0830  191.8630 C.ar  468  TRP468      0.0810
    117  CE3      -34.5080    1.0200  192.3580 C.ar  468  TRP468      0.0012
    118  CZ2      -36.7930    2.4090  191.4360 C.ar  468  TRP468      0.0191
    119  CZ3      -34.4320    2.3350  191.9370 C.ar  468  TRP468      0.0001
    120  CH2      -35.5660    3.0160  191.4800 C.ar  468  TRP468      0.0015
    121  N        -46.1250    3.1150  192.0750 N.3   502  TRP502     -0.1241
    122  CA       -46.0400    1.9180  191.2460 C.3   502  TRP502      0.1605
    123  C        -46.6970    0.7810  192.0090 C.2   502  TRP502      0.2264
    124  O        -46.6830    0.7690  193.2440 O.2   502  TRP502     -0.2867
    125  CB       -44.5790    1.6110  190.9200 C.3   502  TRP502      0.0550
    126  CG       -43.9550    2.7340  190.1570 C.ar  502  TRP502      0.0003
    127  CD1      -43.0250    3.6220  190.6100 C.ar  502  TRP502      0.0946
    128  CD2      -44.2510    3.1170  188.8070 C.ar  502  TRP502      0.0152
    129  NE1      -42.7150    4.5280  189.6210 N.ar  502  TRP502     -0.2442
    130  CE2      -43.4530    4.2350  188.5030 C.ar  502  TRP502      0.0810
    131  CE3      -45.1080    2.6110  187.8240 C.ar  502  TRP502      0.0012
    132  CZ2      -43.4850    4.8610  187.2540 C.ar  502  TRP502      0.0191
    133  CZ3      -45.1410    3.2290  186.5860 C.ar  502  TRP502      0.0001
    134  CH2      -44.3320    4.3420  186.3100 C.ar  502  TRP502      0.0015
    135  N        -46.5200   -2.8630  191.7900 N.3   504  GLU504     -0.1245
    136  CA       -46.0720   -4.2490  191.9140 C.3   504  GLU504      0.1567
    137  C        -46.4880   -4.8010  193.2690 C.2   504  GLU504      0.2260
    138  O        -46.7830   -5.9870  193.4000 O.2   504  GLU504     -0.2867
    139  CB       -44.5540   -4.3580  191.7570 C.3   504  GLU504      0.0388
    140  CG       -44.0460   -4.1940  190.3280 C.3   504  GLU504      0.1160
    141  CD       -43.7860   -2.7450  189.9660 C.2   504  GLU504      0.3649
    142  OE1      -44.1070   -1.8500  190.7850 O.co2 504  GLU504     -0.2457
    143  OE2      -43.2510   -2.4970  188.8650 O.co2 504  GLU504     -0.2457
@<TRIPOS>BOND
     1    12    13    1
     2    14    15    2
     3    14    13    1
     4    48    49    2
     5    48    47    1
     6    38    39    1
     7    41    40    2
     8    13    16    1
     9    58    57    2
    10    40    46   am
    11    40    39    1
    12    46    47    1
    13    39    42    1
    14    47    50    1
    15    16    17    1
    16    55    56    1
    17    44    43   ar
    18    19    17   ar
    19    19    21   ar
    20    57    56    1
    21    17    18   ar
    22    50    51    1
    23    56    59    1
    24    42    43    1
    25    43    45   ar
    26    59    60    1
    27    21    20   ar
    28    61    60   ar
    29    61    63   ar
    30    18    20   ar
    31    60    62   ar
    32    51    52    1
    33    22    23    1
    34    63    64   ar
    35    28    26    1
    36    32    31    2
    37    53    52   ar
    38    52    54   ar
    39    62    64   ar
    40    62    65   ar
    41    23    26    1
    42    23    24    1
    43    64    66   ar
    44    26    27    1
    45    77    75   ar
    46    77    78   ar
    47    29    24   am
    48    29    30    1
    49    31    30    1
    50    65    67   ar
    51    80    78   ar
    52    80    82   ar
    53    24    25    2
    54    11     9    1
    55    66    68   ar
    56    75    74   ar
    57    78    76   ar
    58    30    33    1
    59     8     9    2
    60     8     7    1
    61     9    10    1
    62    34    33    1
    63    34    35    1
    64    67    68   ar
    65    82    81   ar
    66   134   133   ar
    67   134   132   ar
    68     7     6    1
    69   133   131   ar
    70    74    76   ar
    71    74    73    1
    72    76    79   ar
    73    69    70    1
    74    35    36   ar
    75    35    37   ar
    76     1     2    1
    77   132   130   ar
    78    81    79   ar
    79   131   128   ar
    80     6     5    1
    81    73    70    1
    82     2     5    1
    83     2     3    1
    84    70    71    1
    85   130   128   ar
    86   130   129   ar
    87    71    72    2
    88   106   105    1
    89   128   126   ar
    90   143   141   ar
    91     3     4    2
    92   129   127   ar
    93   141   140    1
    94   141   142   ar
    95   105   103   ar
    96   105   104   ar
    97   126   127   ar
    98   126   125    1
    99   140   139    1
   100   103   101   ar
   101   104   102   ar
   102   125   122    1
   103   122   123    1
   104   122   121    1
   105   118   120   ar
   106   118   116   ar
   107   120   119   ar
   108    89    91   ar
   109    89    88   ar
   110    91    93   ar
   111   139   136    1
   112   135   136    1
   113   116   115   ar
   114   116   114   ar
   115   136   137    1
   116   115   113   ar
   117   119   117   ar
   118   123   124    2
   119   101   100   ar
   120   102   100   ar
   121   114   117   ar
   122   114   112   ar
   123    87    88    1
   124    87    84    1
   125   113   112   ar
   126    83    84    1
   127    88    90   ar
   128   112   111    1
   129    93    94    1
   130    93    92   ar
   131   100    99    1
   132    84    85    1
   133   111   108    1
   134   137   138    2
   135    90    92   ar
   136    99    96    1
   137    85    86    2
   138   108   109    1
   139   108   107    1
   140    96    95    1
   141    96    97    1
   142   109   110    2
   143    97    98    2
