@<TRIPOS>MOLECULE
tmp/3wmmA02.pdb
 230 225 0 0 0
SMALL
GASTEIGER

@<TRIPOS>ATOM
      1  N        -42.9070   -4.7200   -0.9920 N.3   193  GLU193     -0.1231
      2  CA       -43.8810   -5.8010   -1.1060 C.3   193  GLU193      0.1699
      3  C        -43.7430   -6.5470   -2.4280 C.2   193  GLU193      0.2592
      4  O        -43.8940   -5.9620   -3.5010 O.2   193  GLU193     -0.2718
      5  CB       -45.2990   -5.2410   -0.9780 C.3   193  GLU193      0.0402
      6  CG       -46.3880   -6.3020   -0.9080 C.3   193  GLU193      0.1161
      7  CD       -46.3220   -7.1270    0.3620 C.2   193  GLU193      0.3649
      8  OE1      -47.1680   -8.0300    0.5290 O.co2 193  GLU193     -0.2457
      9  OE2      -45.4270   -6.8710    1.1960 O.co2 193  GLU193     -0.2457
     10  N        -43.4600   -7.8430   -2.3410 N.am  194  ILE194     -0.1966
     11  CA       -43.2970   -8.6780   -3.5250 C.3   194  ILE194      0.1727
     12  C        -44.6490   -9.1520   -4.0500 C.2   194  ILE194      0.2616
     13  O        -44.7950   -9.4490   -5.2360 O.2   194  ILE194     -0.2715
     14  CB       -42.4300   -9.9210   -3.2140 C.3   194  ILE194      0.0290
     15  CG1      -41.0610   -9.4820   -2.6910 C.3   194  ILE194      0.0022
     16  CG2      -42.2690  -10.7750   -4.4640 C.3   194  ILE194      0.0023
     17  CD1      -40.1400  -10.6330   -2.3340 C.3   194  ILE194      0.0001
     18  N        -45.6360   -9.2170   -3.1620 N.am  195  ARG195     -0.1963
     19  CA       -46.9730   -9.6720   -3.5300 C.3   195  ARG195      0.1729
     20  C        -47.7840   -8.6410   -4.3160 C.2   195  ARG195      0.2616
     21  O        -47.7790   -7.4510   -3.9940 O.2   195  ARG195     -0.2715
     22  CB       -47.7500  -10.0770   -2.2740 C.3   195  ARG195      0.0348
     23  CG       -47.0910  -11.1780   -1.4580 C.3   195  ARG195      0.0492
     24  CD       -47.9350  -11.5350   -0.2480 C.3   195  ARG195      0.2205
     25  NE       -48.1170  -10.3930    0.6420 N.pl3 195  ARG195     -0.0865
     26  CZ       -48.8780  -10.4050    1.7320 C.cat 195  ARG195      0.5346
     27  NH1      -49.5320  -11.5070    2.0750 N.pl3 195  ARG195      0.1354
     28  NH2      -48.9790   -9.3170    2.4830 N.pl3 195  ARG195      0.1354
     29  N        -48.4780   -9.1140   -5.3480 N.am  196  ILE196     -0.1963
     30  CA       -49.3140   -8.2590   -6.1880 C.3   196  ILE196      0.1727
     31  C        -50.5290   -9.0450   -6.6720 C.2   196  ILE196      0.2616
     32  O        -51.5240   -8.4720   -7.1020 O.2   196  ILE196     -0.2715
     33  CB       -48.5520   -7.7330   -7.4340 C.3   196  ILE196      0.0290
     34  CG1      -48.2220   -8.8920   -8.3860 C.3   196  ILE196      0.0022
     35  CG2      -47.2900   -6.9980   -7.0000 C.3   196  ILE196      0.0023
     36  CD1      -47.2770   -9.9300   -7.8200 C.3   196  ILE196      0.0001
     37  N        -50.4340  -10.3690   -6.5990 N.am  197  THR197     -0.1951
     38  CA       -51.5190  -11.2450   -7.0260 C.3   197  THR197      0.1897
     39  C        -52.7540  -11.0350   -6.1600 C.2   197  THR197      0.2313
     40  O        -52.7880  -11.4650   -5.0070 O.2   197  THR197     -0.2863
     41  CB       -51.1100  -12.7270   -6.9250 C.3   197  THR197      0.1794
     42  OG1      -49.9310  -12.9530   -7.7040 O.3   197  THR197     -0.2208
     43  CG2      -52.2260  -13.6230   -7.4420 C.3   197  THR197      0.0378
     44  N        -45.9690   -5.7680  -10.5940 N.3   213  ALA213     -0.1245
     45  CA       -45.8130   -7.1680  -10.9660 C.3   213  ALA213      0.1562
     46  C        -44.5850   -7.3500  -11.8530 C.2   213  ALA213      0.2260
     47  O        -43.8670   -8.3390  -11.7270 O.2   213  ALA213     -0.2867
     48  CB       -47.0600   -7.6580  -11.6880 C.3   213  ALA213      0.0290
     49  N        -41.8070   -7.6640   -9.4960 N.3   216  THR216     -0.1203
     50  CA       -41.7640   -8.9670   -8.8570 C.3   216  THR216      0.1994
     51  C        -41.1690   -9.9540   -9.8670 C.2   216  THR216      0.2617
     52  O        -40.2260  -10.6850   -9.5540 O.2   216  THR216     -0.2717
     53  CB       -43.1710   -9.4080   -8.4510 C.3   216  THR216      0.1784
     54  OG1      -43.6840   -8.4920   -7.4780 O.3   216  THR216     -0.2211
     55  CG2      -43.1480  -10.8020   -7.8690 C.3   216  THR216      0.0376
     56  N        -41.7140   -9.9480  -11.0840 N.am  217  PHE217     -0.1975
     57  CA       -41.2320  -10.8090  -12.1600 C.3   217  PHE217      0.1639
     58  C        -39.7280  -10.6160  -12.2460 C.2   217  PHE217      0.2290
     59  O        -38.9640  -11.5630  -12.4330 O.2   217  PHE217     -0.2864
     60  CB       -41.8750  -10.4150  -13.4980 C.3   217  PHE217      0.0560
     61  CG       -41.7480  -11.4690  -14.5780 C.ar  217  PHE217     -0.0200
     62  CD1      -40.7850  -12.4660  -14.5010 C.ar  217  PHE217     -0.0042
     63  CD2      -42.6110  -11.4670  -15.6630 C.ar  217  PHE217     -0.0042
     64  CE1      -40.6890  -13.4420  -15.4850 C.ar  217  PHE217     -0.0003
     65  CE2      -42.5200  -12.4420  -16.6510 C.ar  217  PHE217     -0.0003
     66  CZ       -41.5580  -13.4300  -16.5610 C.ar  217  PHE217     -0.0000
     67  N        -38.0490  -12.3790   -9.2470 N.3   220  MET220     -0.1230
     68  CA       -38.2350  -13.8030   -9.4800 C.3   220  MET220      0.1702
     69  C        -37.2710  -14.3030  -10.5460 C.2   220  MET220      0.2592
     70  O        -36.5890  -15.3090  -10.3500 O.2   220  MET220     -0.2718
     71  CB       -39.6700  -14.0710   -9.8910 C.3   220  MET220      0.0401
     72  CG       -40.6490  -13.7600   -8.7990 C.3   220  MET220      0.0596
     73  SD       -40.5570  -14.9770   -7.4960 S.3   220  MET220     -0.1393
     74  CE       -39.7710  -14.0290   -6.2430 C.3   220  MET220      0.0692
     75  N        -37.2140  -13.6030  -11.6740 N.am  221  MET221     -0.1979
     76  CA       -36.2960  -13.9880  -12.7300 C.3   221  MET221      0.1605
     77  C        -34.9470  -14.2130  -12.0620 C.2   221  MET221      0.2287
     78  O        -34.4590  -15.3360  -11.9630 O.2   221  MET221     -0.2864
     79  CB       -36.1750  -12.8690  -13.7680 C.3   221  MET221      0.0413
     80  CG       -37.3290  -12.7860  -14.7560 C.3   221  MET221      0.0598
     81  SD       -37.3830  -14.1820  -15.9200 S.3   221  MET221     -0.1393
     82  CE       -36.0890  -13.7220  -17.0670 C.3   221  MET221      0.0692
     83  N        -33.9330  -14.5420   -9.1080 N.3   223  ILE223     -0.1231
     84  CA       -33.9110  -15.6450   -8.1590 C.3   223  ILE223      0.1692
     85  C        -33.8470  -16.9560   -8.9320 C.2   223  ILE223      0.2592
     86  O        -33.0200  -17.8170   -8.6440 O.2   223  ILE223     -0.2718
     87  CB       -35.1710  -15.6510   -7.2750 C.3   223  ILE223      0.0266
     88  CG1      -35.1870  -14.4010   -6.3940 C.3   223  ILE223      0.0019
     89  CG2      -35.2140  -16.9130   -6.4280 C.3   223  ILE223      0.0020
     90  CD1      -36.3850  -14.3210   -5.4640 C.3   223  ILE223      0.0001
     91  N        -34.7190  -17.0860   -9.9250 N.am  224  SER224     -0.1952
     92  CA       -34.7880  -18.2800  -10.7530 C.3   224  SER224      0.1924
     93  C        -33.4360  -18.6780  -11.3310 C.2   224  SER224      0.2314
     94  O        -33.0950  -19.8600  -11.3740 O.2   224  SER224     -0.2863
     95  CB       -35.7760  -18.0560  -11.8930 C.3   224  SER224      0.2116
     96  OG       -37.0220  -17.5900  -11.3990 O.3   224  SER224     -0.2180
     97  N        -30.6350  -19.6450   -8.1720 N.3   227  LEU227     -0.1245
     98  CA       -30.6420  -21.0560   -7.8020 C.3   227  LEU227      0.1561
     99  C        -30.5060  -21.9050   -9.0560 C.2   227  LEU227      0.2260
    100  O        -30.1870  -23.0910   -8.9870 O.2   227  LEU227     -0.2867
    101  CB       -31.9360  -21.4220   -7.0720 C.3   227  LEU227      0.0270
    102  CG       -31.9750  -21.1930   -5.5580 C.3   227  LEU227      0.0019
    103  CD1      -31.7310  -19.7260   -5.2340 C.3   227  LEU227      0.0001
    104  CD2      -33.3240  -21.6490   -5.0250 C.3   227  LEU227      0.0001
    105  N        -32.9370  -22.6470  -11.7400 N.3   229  VAL229     -0.1231
    106  CA       -34.0400  -23.5720  -11.9630 C.3   229  VAL229      0.1692
    107  C        -35.1440  -22.8650  -12.7370 C.2   229  VAL229      0.2593
    108  O        -34.9350  -21.7900  -13.2950 O.2   229  VAL229     -0.2718
    109  CB       -34.6410  -24.0740  -10.6200 C.3   229  VAL229      0.0266
    110  CG1      -33.5620  -24.7300   -9.7610 C.3   229  VAL229      0.0020
    111  CG2      -35.2750  -22.9070   -9.8810 C.3   229  VAL229      0.0020
    112  N        -36.3200  -23.4840  -12.7630 N.am  230  GLY230     -0.1942
    113  CA       -37.4600  -22.9060  -13.4500 C.3   230  GLY230      0.2014
    114  C        -38.6060  -22.7850  -12.4650 C.2   230  GLY230      0.2639
    115  O        -38.8730  -23.7230  -11.7190 O.2   230  GLY230     -0.2714
    116  N        -39.2770  -21.6360  -12.4640 N.am  231  CYS231     -0.1967
    117  CA       -40.3950  -21.3620  -11.5610 C.3   231  CYS231      0.1712
    118  C        -41.1760  -22.6030  -11.1310 C.2   231  CYS231      0.2296
    119  O        -41.6860  -22.6580  -10.0110 O.2   231  CYS231     -0.2864
    120  CB       -41.3460  -20.3560  -12.2100 C.3   231  CYS231      0.0983
    121  SG       -40.5600  -19.3560  -13.4880 S.3   231  CYS231     -0.0798
    122  N        -40.1520  -25.2000  -10.1770 N.3   233  PHE233     -0.1227
    123  CA       -39.4410  -25.6110   -8.9720 C.3   233  PHE233      0.1736
    124  C        -40.1430  -25.1870   -7.6820 C.2   233  PHE233      0.2596
    125  O        -40.3770  -26.0180   -6.7930 O.2   233  PHE233     -0.2718
    126  CB       -38.0330  -25.0070   -8.9960 C.3   233  PHE233      0.0547
    127  CG       -37.1760  -25.3800   -7.8200 C.ar  233  PHE233     -0.0202
    128  CD1      -37.2760  -26.6350   -7.2300 C.ar  233  PHE233     -0.0042
    129  CD2      -36.2450  -24.4770   -7.3170 C.ar  233  PHE233     -0.0042
    130  CE1      -36.4480  -26.9900   -6.1650 C.ar  233  PHE233     -0.0003
    131  CE2      -35.4140  -24.8180   -6.2570 C.ar  233  PHE233     -0.0003
    132  CZ       -35.5190  -26.0740   -5.6740 C.ar  233  PHE233     -0.0000
    133  N        -40.4620  -23.8960   -7.5930 N.am  234  CYS234     -0.1956
    134  CA       -41.0900  -23.3010   -6.4210 C.3   234  CYS234      0.1843
    135  C        -42.6170  -23.3120   -6.5190 C.2   234  CYS234      0.2625
    136  O        -43.3190  -23.4990   -5.5150 O.2   234  CYS234     -0.2714
    137  CB       -40.5280  -21.8650   -6.2310 C.3   234  CYS234      0.0997
    138  SG       -39.0720  -21.6940   -5.1150 S.3   234  CYS234     -0.0797
    139  N        -43.1270  -23.1050   -7.7300 N.am  235  HIS235     -0.1973
    140  CA       -44.5670  -23.0940   -7.9420 C.3   235  HIS235      0.1656
    141  C        -45.1060  -23.7930   -9.1520 C.2   235  HIS235      0.2291
    142  O        -44.3990  -24.2490  -10.0470 O.2   235  HIS235     -0.2864
    143  CB       -45.1510  -21.6570   -8.0460 C.3   235  HIS235      0.0771
    144  CG       -44.2010  -20.5590   -7.7540 C.ar  235  HIS235      0.0820
    145  ND1      -42.8860  -20.8650   -7.3900 N.ar  235  HIS235     -0.2267
    146  CD2      -44.3030  -19.2320   -7.7610 C.ar  235  HIS235      0.1154
    147  CE1      -42.2580  -19.7340   -7.1970 C.ar  235  HIS235      0.1986
    148  NE2      -43.0700  -18.7320   -7.4180 N.ar  235  HIS235     -0.2212
    149  N        -49.3650  -18.9250   -8.9530 N.3   240  PHE240     -0.1227
    150  CA       -48.1750  -18.2130   -8.5270 C.3   240  PHE240      0.1736
    151  C        -48.2950  -17.8500   -7.0350 C.2   240  PHE240      0.2595
    152  O        -47.3080  -17.8830   -6.2960 O.2   240  PHE240     -0.2718
    153  CB       -47.9200  -16.9580   -9.3840 C.3   240  PHE240      0.0547
    154  CG       -47.1150  -17.2420  -10.6330 C.ar  240  PHE240     -0.0202
    155  CD1      -45.8780  -17.8790  -10.5480 C.ar  240  PHE240     -0.0042
    156  CD2      -47.6140  -16.9260  -11.8940 C.ar  240  PHE240     -0.0042
    157  CE1      -45.1680  -18.1950  -11.6900 C.ar  240  PHE240     -0.0003
    158  CE2      -46.8950  -17.2430  -13.0490 C.ar  240  PHE240     -0.0003
    159  CZ       -45.6750  -17.8800  -12.9440 C.ar  240  PHE240     -0.0000
    160  N        -49.4950  -17.5790   -6.5390 N.am  241  ASN241     -0.1974
    161  CA       -49.6540  -17.1830   -5.1370 C.3   241  ASN241      0.1688
    162  C        -50.4110  -18.2200   -4.2490 C.2   241  ASN241      0.2292
    163  O        -50.4000  -18.1150   -3.0210 O.2   241  ASN241     -0.2864
    164  CB       -50.4230  -15.8660   -5.1350 C.3   241  ASN241      0.1181
    165  CG       -50.3560  -15.1480   -3.8210 C.2   241  ASN241      0.2629
    166  OD1      -50.9860  -14.0970   -3.6370 O.2   241  ASN241     -0.2716
    167  ND2      -49.5880  -15.6930   -2.8930 N.am  241  ASN241     -0.0877
    168  N        -50.4080  -21.0150   -2.1740 N.3   243  TRP243     -0.1241
    169  CA       -49.3300  -21.7420   -1.5220 C.3   243  TRP243      0.1605
    170  C        -49.8380  -23.1440   -1.3090 C.2   243  TRP243      0.2264
    171  O        -49.0990  -24.1120   -1.4600 O.2   243  TRP243     -0.2867
    172  CB       -48.9800  -21.1710   -0.1630 C.3   243  TRP243      0.0550
    173  CG       -48.7140  -19.7290   -0.1260 C.ar  243  TRP243      0.0003
    174  CD1      -49.6320  -18.7100   -0.1940 C.ar  243  TRP243      0.0946
    175  CD2      -47.4640  -19.1260    0.1470 C.ar  243  TRP243      0.0152
    176  NE1      -49.0170  -17.5070    0.0430 N.ar  243  TRP243     -0.2442
    177  CE2      -47.6840  -17.7330    0.2510 C.ar  243  TRP243      0.0810
    178  CE3      -46.1740  -19.6280    0.3210 C.ar  243  TRP243      0.0012
    179  CZ2      -46.6590  -16.8370    0.5200 C.ar  243  TRP243      0.0191
    180  CZ3      -45.1540  -18.7500    0.5910 C.ar  243  TRP243      0.0001
    181  CH2      -45.3980  -17.3620    0.6890 C.ar  243  TRP243      0.0015
    182  N        -40.8010  -23.2620   -2.3360 N.3   250  ARG250     -0.1245
    183  CA       -41.3790  -21.9200   -2.2960 C.3   250  ARG250      0.1563
    184  C        -41.2540  -21.2570   -0.9210 C.2   250  ARG250      0.2260
    185  O        -40.8370  -20.1020   -0.8210 O.2   250  ARG250     -0.2867
    186  CB       -42.8220  -21.9880   -2.7560 C.3   250  ARG250      0.0307
    187  CG       -43.6500  -20.8040   -2.3860 C.3   250  ARG250      0.0489
    188  CD       -43.0870  -19.4970   -2.8960 C.3   250  ARG250      0.2205
    189  NE       -43.9870  -18.3960   -2.5420 N.pl3 250  ARG250     -0.0865
    190  CZ       -45.2220  -18.2220   -3.0200 C.cat 250  ARG250      0.5346
    191  NH1      -45.7510  -19.0620   -3.9000 N.pl3 250  ARG250      0.1354
    192  NH2      -45.9440  -17.2040   -2.5870 N.pl3 250  ARG250      0.1354
    193  N        -37.4470  -20.8710    0.3830 N.3   253  ALA253     -0.1231
    194  CA       -36.8530  -19.6800   -0.2080 C.3   253  ALA253      0.1694
    195  C        -37.4180  -18.4280    0.4460 C.2   253  ALA253      0.2592
    196  O        -36.7130  -17.4340    0.6160 O.2   253  ALA253     -0.2718
    197  CB       -37.0920  -19.6420   -1.6830 C.3   253  ALA253      0.0304
    198  N        -38.6950  -18.4770    0.8040 N.am  254  TRP254     -0.1976
    199  CA       -39.3260  -17.3380    1.4450 C.3   254  TRP254      0.1640
    200  C        -38.3850  -16.7730    2.4990 C.2   254  TRP254      0.2290
    201  O        -37.9110  -15.6470    2.3790 O.2   254  TRP254     -0.2864
    202  CB       -40.6280  -17.7570    2.1120 C.3   254  TRP254      0.0576
    203  CG       -41.3920  -16.5850    2.5770 C.ar  254  TRP254      0.0006
    204  CD1      -42.1810  -15.7700    1.8220 C.ar  254  TRP254      0.0946
    205  CD2      -41.4000  -16.0400    3.8940 C.ar  254  TRP254      0.0152
    206  NE1      -42.6750  -14.7520    2.5880 N.ar  254  TRP254     -0.2442
    207  CE2      -42.2140  -14.9000    3.8680 C.ar  254  TRP254      0.0810
    208  CE3      -40.7940  -16.4090    5.0990 C.ar  254  TRP254      0.0012
    209  CZ2      -42.4460  -14.1230    4.9990 C.ar  254  TRP254      0.0191
    210  CZ3      -41.0220  -15.6300    6.2280 C.ar  254  TRP254      0.0001
    211  CH2      -41.8470  -14.5000    6.1640 C.ar  254  TRP254      0.0015
    212  N        -35.2810  -15.0010    1.4450 N.3   257  ILE257     -0.1231
    213  CA       -35.5260  -13.6620    0.9250 C.3   257  ILE257      0.1692
    214  C        -35.2940  -12.6400    2.0150 C.2   257  ILE257      0.2591
    215  O        -35.0510  -11.4710    1.7380 O.2   257  ILE257     -0.2718
    216  CB       -36.8980  -13.5010    0.3890 C.3   257  ILE257      0.0266
    217  CG1      -37.1080  -14.5330   -0.7140 C.3   257  ILE257      0.0019
    218  CG2      -37.0790  -12.0520   -0.0750 C.3   257  ILE257      0.0020
    219  CD1      -38.5400  -14.7680   -1.0190 C.3   257  ILE257      0.0001
    220  N        -35.3880  -13.0910    3.2600 N.am  258  ARG258     -0.1980
    221  CA       -35.1850  -12.2170    4.4030 C.3   258  ARG258      0.1597
    222  C        -33.8270  -12.4920    5.0170 C.2   258  ARG258      0.2287
    223  O        -33.1720  -11.5800    5.5170 O.2   258  ARG258     -0.2864
    224  CB       -36.2680  -12.4420    5.4770 C.3   258  ARG258      0.0334
    225  CG       -37.7140  -12.1660    5.0170 C.3   258  ARG258      0.0492
    226  CD       -38.3120  -13.3690    4.2810 C.3   258  ARG258      0.2205
    227  NE       -39.2700  -13.0290    3.2210 N.pl3 258  ARG258     -0.0865
    228  CZ       -40.4400  -12.4470    3.4270 C.cat 258  ARG258      0.5346
    229  NH1      -40.8060  -12.1320    4.6570 N.pl3 258  ARG258      0.1354
    230  NH2      -41.2400  -12.1950    2.4080 N.pl3 258  ARG258      0.1354
@<TRIPOS>BOND
     1    82    81    1
     2    65    66   ar
     3    65    63   ar
     4    66    64   ar
     5    81    80    1
     6    63    61   ar
     7    64    62   ar
     8    80    79    1
     9    61    62   ar
    10    61    60    1
    11    79    76    1
    12    60    57    1
    13   121   120    1
    14   113   112    1
    15   113   114    1
    16   108   107    2
    17   158   159   ar
    18   158   156   ar
    19   159   157   ar
    20   112   107   am
    21   107   106    1
    22    76    77    1
    23    76    75    1
    24   114   116   am
    25   114   115    2
    26   116   117    1
    27    59    58    2
    28    58    57    1
    29   120   117    1
    30    57    56    1
    31    77    78    2
    32   106   105    1
    33   106   109    1
    34   156   154   ar
    35    95    96    1
    36    95    92    1
    37    46    47    2
    38    46    45    1
    39   157   155   ar
    40    48    45    1
    41    75    69   am
    42   117   118    1
    43    94    93    2
    44    93    92    1
    45   118   119    2
    46    56    51   am
    47    45    44    1
    48    92    91    1
    49   154   155   ar
    50   154   153    1
    51   109   111    1
    52   109   110    1
    53    69    70    2
    54    69    68    1
    55   122   123    1
    56   142   141    2
    57    91    85   am
    58    71    68    1
    59    71    72    1
    60    51    52    2
    61    51    50    1
    62    49    50    1
    63    68    67    1
    64   153   150    1
    65   141   140    1
    66    83    84    1
    67    99   100    2
    68    99    98    1
    69   126   123    1
    70   126   127    1
    71   123   124    1
    72   149   150    1
    73    85    86    2
    74    85    84    1
    75    50    53    1
    76    72    73    1
    77   150   151    1
    78    53    55    1
    79    53    54    1
    80    34    36    1
    81    34    33    1
    82    97    98    1
    83    84    87    1
    84   143   140    1
    85   143   144    1
    86   140   139    1
    87   127   129   ar
    88   127   128   ar
    89    98   101    1
    90   146   144   ar
    91   146   148   ar
    92   144   145   ar
    93   139   135   am
    94    42    41    1
    95   124   133   am
    96   124   125    2
    97   133   134    1
    98    73    74    1
    99    43    41    1
   100    33    35    1
   101    33    30    1
   102   148   147   ar
   103   145   147   ar
   104   129   131   ar
   105    87    89    1
   106    87    88    1
   107   128   130   ar
   108    32    31    2
   109   101   102    1
   110   151   160   am
   111   151   152    2
   112    38    41    1
   113    38    37    1
   114    38    39    1
   115    31    37   am
   116    31    30    1
   117   160   161    1
   118   135   134    1
   119   135   136    2
   120   134   137    1
   121    88    90    1
   122   131   132   ar
   123   137   138    1
   124    30    29    1
   125   130   132   ar
   126    39    40    2
   127   102   103    1
   128   102   104    1
   129    29    20   am
   130    13    12    2
   131   161   164    1
   132   161   162    1
   133   164   165    1
   134    16    14    1
   135    20    21    2
   136    20    19    1
   137   162   163    2
   138    12    11    1
   139    12    18   am
   140   191   190    1
   141   165   166    2
   142   165   167   am
   143    19    18    1
   144    19    22    1
   145    11    14    1
   146    11    10    1
   147     4     3    2
   148    14    15    1
   149   190   192    1
   150   190   189    2
   151   188   189    1
   152   188   187    1
   153   186   187    1
   154   186   183    1
   155    15    17    1
   156     3    10   am
   157     3     2    1
   158   182   183    1
   159   183   184    1
   160    22    23    1
   161   168   169    1
   162   197   194    1
   163   169   170    1
   164   169   172    1
   165   171   170    2
   166    23    24    1
   167     2     1    1
   168     2     5    1
   169   219   217    1
   170     5     6    1
   171   184   185    2
   172     6     7    1
   173   217   216    1
   174    24    25    1
   175   194   193    1
   176   194   195    1
   177   174   173   ar
   178   174   176   ar
   179   172   173    1
   180   173   175   ar
   181   218   216    1
   182   176   177   ar
   183   175   177   ar
   184   175   178   ar
   185   177   179   ar
   186   178   180   ar
   187     7     8   ar
   188     7     9   ar
   189   216   213    1
   190   195   196    2
   191   195   198   am
   192   179   181   ar
   193   180   181   ar
   194    25    26    2
   195   198   199    1
   196   213   212    1
   197   213   214    1
   198   199   202    1
   199   199   200    1
   200    26    27    1
   201    26    28    1
   202   215   214    2
   203   204   203   ar
   204   204   206   ar
   205   214   220   am
   206   202   203    1
   207   201   200    2
   208   230   228    1
   209   203   205   ar
   210   206   207   ar
   211   227   228    2
   212   227   226    1
   213   220   221    1
   214   228   229    1
   215   207   205   ar
   216   207   209   ar
   217   205   208   ar
   218   226   225    1
   219   221   222    1
   220   221   224    1
   221   209   211   ar
   222   222   223    2
   223   225   224    1
   224   208   210   ar
   225   211   210   ar
