@<TRIPOS>MOLECULE
tmp/3wmmA00.pdb
 202 197 0 0 0
SMALL
GASTEIGER

@<TRIPOS>ATOM
      1  N         -5.3720  -16.2370   24.2180 N.3    60  TYR60      -0.1227
      2  CA        -5.4880  -15.1540   23.2460 C.3    60  TYR60       0.1736
      3  C         -6.1950  -13.9810   23.8960 C.2    60  TYR60       0.2595
      4  O         -7.3090  -14.1180   24.4030 O.2    60  TYR60      -0.2718
      5  CB        -6.2500  -15.6290   22.0070 C.3    60  TYR60       0.0548
      6  CG        -5.5830  -16.7940   21.3100 C.ar   60  TYR60      -0.0200
      7  CD1       -4.2440  -16.7270   20.9230 C.ar   60  TYR60      -0.0009
      8  CD2       -6.2820  -17.9710   21.0560 C.ar   60  TYR60      -0.0009
      9  CE1       -3.6180  -17.8070   20.3020 C.ar   60  TYR60       0.0417
     10  CE2       -5.6670  -19.0550   20.4340 C.ar   60  TYR60       0.0417
     11  CZ        -4.3370  -18.9670   20.0610 C.ar   60  TYR60       0.1957
     12  OH        -3.7280  -20.0400   19.4510 O.3    60  TYR60      -0.2866
     13  N         -5.5430  -12.8240   23.8680 N.am   61  GLN61      -0.1965
     14  CA        -6.0820  -11.6240   24.4940 C.3    61  GLN61       0.1733
     15  C         -7.2160  -10.8860   23.7850 C.2    61  GLN61       0.2616
     16  O         -8.2100  -10.5290   24.4210 O.2    61  GLN61      -0.2715
     17  CB        -4.9460  -10.6430   24.7620 C.3    61  GLN61       0.0408
     18  CG        -4.2420  -10.1820   23.5110 C.3    61  GLN61       0.0908
     19  CD        -3.0910   -9.2590   23.8130 C.2    61  GLN61       0.2608
     20  OE1       -2.1220   -9.6510   24.4630 O.2    61  GLN61      -0.2717
     21  NE2       -3.1890   -8.0210   23.3480 N.am   61  GLN61      -0.0878
     22  N         -7.0810  -10.6470   22.4840 N.am   62  ASN62      -0.1958
     23  CA        -8.1240   -9.9300   21.7550 C.3    62  ASN62       0.1819
     24  C         -9.0410  -10.8130   20.9010 C.2    62  ASN62       0.2621
     25  O         -8.9440  -10.8240   19.6800 O.2    62  ASN62      -0.2715
     26  CB        -7.4920   -8.8490   20.8740 C.3    62  ASN62       0.1195
     27  CG        -8.5270   -8.0040   20.1580 C.2    62  ASN62       0.2630
     28  OD1       -9.3880   -7.3920   20.7900 O.2    62  ASN62      -0.2716
     29  ND2       -8.4480   -7.9660   18.8320 N.am   62  ASN62      -0.0877
     30  N         -9.9370  -11.5430   21.5580 N.am   63  VAL63      -0.1963
     31  CA       -10.8810  -12.4250   20.8740 C.3    63  VAL63       0.1727
     32  C        -12.2830  -12.0760   21.3430 C.2    63  VAL63       0.2616
     33  O        -12.5460  -12.0560   22.5460 O.2    63  VAL63      -0.2715
     34  CB       -10.5980  -13.9110   21.1910 C.3    63  VAL63       0.0290
     35  CG1      -11.6270  -14.7970   20.5030 C.3    63  VAL63       0.0023
     36  CG2       -9.1950  -14.2800   20.7360 C.3    63  VAL63       0.0023
     37  N        -13.1840  -11.8170   20.3980 N.am   64  GLN64      -0.1963
     38  CA       -14.5510  -11.4450   20.7440 C.3    64  GLN64       0.1733
     39  C        -15.6180  -12.4480   20.3280 C.2    64  GLN64       0.2616
     40  O        -16.7910  -12.2610   20.6510 O.2    64  GLN64      -0.2715
     41  CB       -14.8910  -10.0850   20.1280 C.3    64  GLN64       0.0408
     42  CG       -13.8890   -8.9810   20.4270 C.3    64  GLN64       0.0908
     43  CD       -14.3130   -7.6370   19.8630 C.2    64  GLN64       0.2608
     44  OE1      -13.5680   -6.6580   19.9320 O.2    64  GLN64      -0.2717
     45  NE2      -15.5180   -7.5830   19.3030 N.am   64  GLN64      -0.0878
     46  N        -15.2370  -13.5100   19.6240 N.am   65  VAL65      -0.1963
     47  CA       -16.2380  -14.4800   19.1890 C.3    65  VAL65       0.1727
     48  C        -15.8430  -15.9470   19.3240 C.2    65  VAL65       0.2616
     49  O        -16.6000  -16.7570   19.8630 O.2    65  VAL65      -0.2715
     50  CB       -16.6240  -14.2310   17.7070 C.3    65  VAL65       0.0290
     51  CG1      -17.7180  -15.1890   17.2780 C.3    65  VAL65       0.0023
     52  CG2      -17.0750  -12.7920   17.5210 C.3    65  VAL65       0.0023
     53  N        -14.6570  -16.2850   18.8360 N.am   66  LEU66      -0.1977
     54  CA       -14.1790  -17.6610   18.8730 C.3    66  LEU66       0.1596
     55  C        -13.6850  -18.1140   20.2510 C.2    66  LEU66       0.2287
     56  O        -12.9820  -19.1190   20.3630 O.2    66  LEU66      -0.2864
     57  CB       -13.0600  -17.8400   17.8410 C.3    66  LEU66       0.0297
     58  CG       -13.3210  -17.3480   16.4120 C.3    66  LEU66       0.0022
     59  CD1      -12.0570  -17.5090   15.5830 C.3    66  LEU66       0.0001
     60  CD2      -14.4700  -18.1240   15.7870 C.3    66  LEU66       0.0001
     61  N         -9.4430  -23.5580   17.6070 N.3    74  PHE74      -0.1227
     62  CA        -9.3280  -22.1700   17.1880 C.3    74  PHE74       0.1736
     63  C         -8.2170  -21.9980   16.1670 C.2    74  PHE74       0.2596
     64  O         -8.3680  -21.2560   15.2030 O.2    74  PHE74      -0.2718
     65  CB        -9.0640  -21.2580   18.3930 C.3    74  PHE74       0.0547
     66  CG        -8.9160  -19.7980   18.0360 C.ar   74  PHE74      -0.0202
     67  CD1       -7.8120  -19.3470   17.3180 C.ar   74  PHE74      -0.0042
     68  CD2       -9.8890  -18.8750   18.4090 C.ar   74  PHE74      -0.0042
     69  CE1       -7.6800  -18.0050   16.9780 C.ar   74  PHE74      -0.0003
     70  CE2       -9.7630  -17.5260   18.0730 C.ar   74  PHE74      -0.0003
     71  CZ        -8.6580  -17.0930   17.3550 C.ar   74  PHE74      -0.0000
     72  N         -7.0910  -22.6610   16.3810 N.am   75  THR75      -0.1953
     73  CA        -5.9950  -22.5500   15.4340 C.3    75  THR75       0.1897
     74  C         -6.5180  -23.1140   14.1270 C.2    75  THR75       0.2313
     75  O         -6.1840  -22.6430   13.0440 O.2    75  THR75      -0.2863
     76  CB        -4.7790  -23.3770   15.8720 C.3    75  THR75       0.1794
     77  OG1       -4.3200  -22.9160   17.1480 O.3    75  THR75      -0.2208
     78  CG2       -3.6570  -23.2470   14.8550 C.3    75  THR75       0.0378
     79  N         -8.7710  -20.8940   12.3040 N.3    78  MET78      -0.1230
     80  CA        -7.9950  -19.7900   11.7530 C.3    78  MET78       0.1702
     81  C         -7.4310  -20.2320   10.4130 C.2    78  MET78       0.2592
     82  O         -7.3240  -19.4410    9.4760 O.2    78  MET78      -0.2718
     83  CB        -6.8540  -19.3930   12.6910 C.3    78  MET78       0.0401
     84  CG        -7.1450  -18.1360   13.5020 C.3    78  MET78       0.0596
     85  SD        -7.5650  -16.7100   12.4550 S.3    78  MET78      -0.1393
     86  CE        -9.3480  -16.8380   12.4060 C.3    78  MET78       0.0692
     87  N         -7.0700  -21.5060   10.3320 N.am   79  VAL79      -0.1980
     88  CA        -6.5290  -22.0560    9.1020 C.3    79  VAL79       0.1595
     89  C         -7.6270  -22.0700    8.0530 C.2    79  VAL79       0.2287
     90  O         -7.5100  -21.4400    7.0060 O.2    79  VAL79      -0.2864
     91  CB        -6.0310  -23.5030    9.3030 C.3    79  VAL79       0.0276
     92  CG1       -5.4880  -24.0520    7.9920 C.3    79  VAL79       0.0022
     93  CG2       -4.9630  -23.5410   10.3810 C.3    79  VAL79       0.0022
     94  N        -10.4090  -20.5760    7.6290 N.3    81  VAL81      -0.1231
     95  CA       -10.7050  -19.2290    7.1710 C.3    81  VAL81       0.1692
     96  C         -9.7140  -18.7200    6.1180 C.2    81  VAL81       0.2592
     97  O        -10.1120  -18.2330    5.0590 O.2    81  VAL81      -0.2718
     98  CB       -10.7310  -18.2460    8.3590 C.3    81  VAL81       0.0266
     99  CG1      -10.7720  -16.8240    7.8550 C.3    81  VAL81       0.0020
    100  CG2      -11.9470  -18.5220    9.2310 C.3    81  VAL81       0.0020
    101  N         -8.4240  -18.8450    6.4040 N.am   82  THR82      -0.1953
    102  CA        -7.4030  -18.3670    5.4830 C.3    82  THR82       0.1897
    103  C         -7.4060  -19.0890    4.1410 C.2    82  THR82       0.2313
    104  O         -7.0430  -18.5070    3.1220 O.2    82  THR82      -0.2863
    105  CB        -5.9800  -18.4800    6.1050 C.3    82  THR82       0.1794
    106  OG1       -5.0610  -17.6950    5.3370 O.3    82  THR82      -0.2208
    107  CG2       -5.4950  -19.9250    6.1080 C.3    82  THR82       0.0378
    108  N        -10.9250  -17.6990    2.4980 N.3    85  VAL85      -0.1231
    109  CA       -11.0210  -16.2920    2.1430 C.3    85  VAL85       0.1692
    110  C         -9.8440  -15.7970    1.3200 C.2    85  VAL85       0.2592
    111  O        -10.0010  -15.4360    0.1550 O.2    85  VAL85      -0.2718
    112  CB       -11.1500  -15.4120    3.4020 C.3    85  VAL85       0.0266
    113  CG1      -11.3080  -13.9510    3.0090 C.3    85  VAL85       0.0020
    114  CG2      -12.3370  -15.8730    4.2260 C.3    85  VAL85       0.0020
    115  N         -8.6630  -15.7830    1.9220 N.am   86  SER86      -0.1952
    116  CA        -7.4840  -15.3050    1.2190 C.3    86  SER86       0.1924
    117  C         -6.3740  -16.3400    1.1640 C.2    86  SER86       0.2314
    118  O         -5.2720  -16.1070    1.6540 O.2    86  SER86      -0.2863
    119  CB        -6.9640  -14.0290    1.8810 C.3    86  SER86       0.2116
    120  OG        -6.6440  -14.2540    3.2430 O.3    86  SER86      -0.2180
    121  N         -2.1940  -15.3610    2.1650 N.3    90  GLY90      -0.1210
    122  CA        -1.8050  -15.8370    3.4810 C.3    90  GLY90       0.1956
    123  C         -2.4930  -15.1510    4.6470 C.2    90  GLY90       0.2612
    124  O         -3.4210  -14.3660    4.4590 O.2    90  GLY90      -0.2717
    125  N         -2.0260  -15.4470    5.8570 N.am   91  CYS91      -0.1970
    126  CA        -2.5980  -14.8820    7.0760 C.3    91  CYS91       0.1712
    127  C         -2.4330  -13.3720    7.1490 C.2    91  CYS91       0.2296
    128  O         -3.2460  -12.6760    7.7610 O.2    91  CYS91      -0.2864
    129  CB        -1.9310  -15.4990    8.3030 C.3    91  CYS91       0.0983
    130  SG        -1.6220  -17.2610    8.1700 S.3    91  CYS91      -0.0798
    131  N         -5.6330  -10.7490    6.9740 N.3    94  CYS94      -0.1221
    132  CA        -6.4480  -10.1680    8.0400 C.3    94  CYS94       0.1808
    133  C         -5.6490   -9.9050    9.3110 C.2    94  CYS94       0.2601
    134  O         -6.2190   -9.8440   10.3990 O.2    94  CYS94      -0.2717
    135  CB        -7.6160  -11.0780    8.4020 C.3    94  CYS94       0.0970
    136  SG        -8.3890  -11.9220    7.0230 S.3    94  CYS94      -0.0800
    137  N         -4.3370   -9.7550    9.1770 N.am   95  HIS95      -0.1975
    138  CA        -3.4910   -9.5210   10.3370 C.3    95  HIS95       0.1656
    139  C         -2.2990   -8.6270   10.0350 C.2    95  HIS95       0.2291
    140  O         -2.1800   -8.0690    8.9440 O.2    95  HIS95      -0.2864
    141  CB        -2.9690  -10.8610   10.8790 C.3    95  HIS95       0.0771
    142  CG        -3.9930  -11.6750   11.6120 C.ar   95  HIS95       0.0820
    143  ND1       -4.5830  -11.2440   12.7810 N.ar   95  HIS95      -0.2267
    144  CD2       -4.5000  -12.9100   11.3700 C.ar   95  HIS95       0.1154
    145  CE1       -5.4050  -12.1760   13.2280 C.ar   95  HIS95       0.1986
    146  NE2       -5.3750  -13.1980   12.3910 N.ar   95  HIS95      -0.2212
    147  N         -0.7440  -10.6800   16.0430 N.3   100  TRP100     -0.1227
    148  CA        -1.8210  -11.6390   15.8440 C.3   100  TRP100      0.1737
    149  C         -3.1470  -11.1820   16.4480 C.2   100  TRP100      0.2595
    150  O         -4.1560  -11.8770   16.3320 O.2   100  TRP100     -0.2718
    151  CB        -1.4280  -12.9960   16.4360 C.3   100  TRP100      0.0564
    152  CG        -0.4980  -13.7990   15.5710 C.ar  100  TRP100      0.0003
    153  CD1        0.6220  -14.4630   15.9710 C.ar  100  TRP100      0.0946
    154  CD2       -0.6340  -14.0540   14.1670 C.ar  100  TRP100      0.0152
    155  NE1        1.1940  -15.1180   14.9090 N.ar  100  TRP100     -0.2442
    156  CE2        0.4430  -14.8850   13.7880 C.ar  100  TRP100      0.0810
    157  CE3       -1.5630  -13.6640   13.1940 C.ar  100  TRP100      0.0012
    158  CZ2        0.6200  -15.3320   12.4770 C.ar  100  TRP100      0.0191
    159  CZ3       -1.3870  -14.1100   11.8860 C.ar  100  TRP100      0.0001
    160  CH2       -0.3020  -14.9370   11.5420 C.ar  100  TRP100      0.0015
    161  N         -3.1520  -10.0060   17.0700 N.am  101  ALA101     -0.1980
    162  CA        -4.3670   -9.4920   17.6910 C.3   101  ALA101      0.1597
    163  C         -4.7530   -8.0710   17.2790 C.2   101  ALA101      0.2287
    164  O         -5.7990   -7.5700   17.6920 O.2   101  ALA101     -0.2864
    165  CB        -4.2340   -9.5610   19.2070 C.3   101  ALA101      0.0319
    166  N         -9.5580   -7.7170    8.9360 N.3   108  LYS108     -0.1245
    167  CA        -9.8310   -8.4120   10.1860 C.3   108  LYS108      0.1561
    168  C        -11.2150   -8.0080   10.6870 C.2   108  LYS108      0.2260
    169  O        -12.1310   -8.8300   10.7320 O.2   108  LYS108     -0.2867
    170  CB        -8.7600   -8.0730   11.2270 C.3   108  LYS108      0.0271
    171  CG        -8.8600   -8.8760   12.5180 C.3   108  LYS108      0.0035
    172  CD        -7.5500   -8.8160   13.2900 C.3   108  LYS108      0.0206
    173  CE        -7.6570   -9.4980   14.6400 C.3   108  LYS108      0.1093
    174  NZ        -8.5810   -8.7770   15.5550 N.3   108  LYS108     -0.1314
    175  N        -13.9630   -9.6150    9.1240 N.3   111  SER111     -0.1202
    176  CA       -13.8520  -11.0430    9.3960 C.3   111  SER111      0.2020
    177  C        -14.6020  -11.3740   10.6730 C.2   111  SER111      0.2618
    178  O        -15.2900  -12.3930   10.7530 O.2   111  SER111     -0.2717
    179  CB       -12.3860  -11.4460    9.5330 C.3   111  SER111      0.2103
    180  OG       -11.6710  -11.1440    8.3520 O.3   111  SER111     -0.2182
    181  N        -14.4630  -10.5140   11.6780 N.am  112  ARG112     -0.1979
    182  CA       -15.1730  -10.7210   12.9260 C.3   112  ARG112      0.1597
    183  C        -16.6460  -10.8210   12.5560 C.2   112  ARG112      0.2287
    184  O        -17.2530  -11.8850   12.6700 O.2   112  ARG112     -0.2864
    185  CB       -14.9700   -9.5410   13.8800 C.3   112  ARG112      0.0334
    186  CG       -13.8570   -9.7230   14.8980 C.3   112  ARG112      0.0492
    187  CD       -13.8750   -8.5850   15.9090 C.3   112  ARG112      0.2205
    188  NE       -12.9780   -8.8240   17.0340 N.pl3 112  ARG112     -0.0865
    189  CZ       -11.6580   -8.9260   16.9310 C.cat 112  ARG112      0.5346
    190  NH1      -11.0770   -8.8080   15.7480 N.pl3 112  ARG112      0.1354
    191  NH2      -10.9220   -9.1490   18.0110 N.pl3 112  ARG112      0.1354
    192  N        -17.8600  -13.5940   10.6790 N.3   115  PHE115     -0.1241
    193  CA       -17.9260  -14.7660   11.5540 C.3   115  PHE115      0.1605
    194  C        -19.3200  -14.8610   12.1860 C.2   115  PHE115      0.2264
    195  O        -20.0480  -15.8260   11.9570 O.2   115  PHE115     -0.2867
    196  CB       -16.8500  -14.6980   12.6410 C.3   115  PHE115      0.0534
    197  CG       -15.7170  -15.6640   12.4330 C.ar  115  PHE115     -0.0203
    198  CD1      -15.9770  -17.0010   12.1490 C.ar  115  PHE115     -0.0042
    199  CD2      -14.3920  -15.2540   12.5660 C.ar  115  PHE115     -0.0042
    200  CE1      -14.9400  -17.9200   12.0040 C.ar  115  PHE115     -0.0003
    201  CE2      -13.3450  -16.1670   12.4230 C.ar  115  PHE115     -0.0003
    202  CZ       -13.6230  -17.5040   12.1430 C.ar  115  PHE115     -0.0000
@<TRIPOS>BOND
     1   111   110    2
     2   117   116    1
     3   117   118    2
     4   116   119    1
     5   116   115    1
     6   110   115   am
     7   110   109    1
     8   119   120    1
     9   109   108    1
    10   109   112    1
    11   121   122    1
    12   113   112    1
    13   104   103    2
    14   112   114    1
    15   122   123    1
    16   103   102    1
    17   124   123    2
    18   123   125   am
    19    97    96    2
    20   106   105    1
    21   102   105    1
    22   102   101    1
    23   125   126    1
    24   105   107    1
    25    96   101   am
    26    96    95    1
    27   131   132    1
    28    90    89    2
    29   136   135    1
    30   126   127    1
    31   126   129    1
    32   127   128    2
    33    95    94    1
    34    95    98    1
    35    99    98    1
    36    92    91    1
    37   132   135    1
    38   132   133    1
    39    89    88    1
    40   130   129    1
    41   180   179    1
    42    98   100    1
    43   166   167    1
    44   140   139    2
    45    88    91    1
    46    88    87    1
    47   175   176    1
    48   137   133   am
    49   137   138    1
    50    91    93    1
    51   133   134    2
    52   176   179    1
    53   176   177    1
    54    82    81    2
    55   139   138    1
    56   167   168    1
    57   167   170    1
    58    87    81   am
    59   138   141    1
    60    81    80    1
    61   177   178    2
    62   177   181   am
    63   192   193    1
    64   168   169    2
    65   141   142    1
    66   170   171    1
    67   144   142   ar
    68   144   146   ar
    69   160   159   ar
    70   160   158   ar
    71   193   194    1
    72   193   196    1
    73   142   143   ar
    74   181   182    1
    75    80    79    1
    76    80    83    1
    77   159   157   ar
    78   195   194    2
    79   200   202   ar
    80   200   198   ar
    81   202   201   ar
    82   198   197   ar
    83   146   145   ar
    84    86    85    1
    85   201   199   ar
    86   197   199   ar
    87   197   196    1
    88    85    84    1
    89   158   156   ar
    90   171   172    1
    91   183   184    2
    92   183   182    1
    93    83    84    1
    94   143   145   ar
    95   182   185    1
    96    75    74    2
    97   157   154   ar
    98   172   173    1
    99   156   154   ar
   100   156   155   ar
   101   185   186    1
   102    74    73    1
   103   154   152   ar
   104   173   174    1
   105    78    76    1
   106   186   187    1
   107   155   153   ar
   108    64    63    2
   109    73    76    1
   110    73    72    1
   111   152   153   ar
   112   152   151    1
   113    59    58    1
   114   190   189    1
   115    60    58    1
   116   148   147    1
   117   148   151    1
   118   148   149    1
   119    76    77    1
   120   187   188    1
   121    63    72   am
   122    63    62    1
   123   150   149    2
   124    58    57    1
   125   149   161   am
   126   189   188    2
   127   189   191    1
   128    69    67   ar
   129    69    71   ar
   130   161   162    1
   131    62    61    1
   132    62    65    1
   133    51    50    1
   134   163   162    1
   135   163   164    2
   136    67    66   ar
   137    71    70   ar
   138    52    50    1
   139   162   165    1
   140    50    47    1
   141    57    54    1
   142    66    65    1
   143    66    68   ar
   144    70    68   ar
   145    29    27   am
   146    53    54    1
   147    53    48   am
   148    54    55    1
   149    47    48    1
   150    47    46    1
   151    45    43   am
   152    48    49    2
   153    12    11    1
   154    46    39   am
   155    25    24    2
   156    43    44    2
   157    43    42    1
   158    11     9   ar
   159    11    10   ar
   160    41    42    1
   161    41    38    1
   162    27    28    2
   163    27    26    1
   164    55    56    2
   165     9     7   ar
   166    39    40    2
   167    39    38    1
   168    37    38    1
   169    37    32   am
   170    10     8   ar
   171    35    34    1
   172    36    34    1
   173    31    34    1
   174    31    32    1
   175    31    30    1
   176    26    23    1
   177    24    30   am
   178    24    23    1
   179     7     6   ar
   180     8     6   ar
   181     6     5    1
   182    32    33    2
   183    23    22    1
   184     5     2    1
   185    22    15   am
   186     2     3    1
   187     2     1    1
   188    21    19   am
   189    18    19    1
   190    18    17    1
   191    15    16    2
   192    15    14    1
   193    19    20    2
   194    13     3   am
   195    13    14    1
   196     3     4    2
   197    14    17    1
