@<TRIPOS>MOLECULE
tmp/3wmmC08.pdb
 155 150 0 0 0
SMALL
GASTEIGER

@<TRIPOS>ATOM
      1  N        -56.4930  -21.7670  -39.1330 N.3   213  LEU213     -0.1231
      2  CA       -57.1110  -22.9810  -39.6470 C.3   213  LEU213      0.1693
      3  C        -57.7460  -22.7420  -41.0160 C.2   213  LEU213      0.2591
      4  O        -57.2890  -23.2780  -42.0250 O.2   213  LEU213     -0.2718
      5  CB       -58.1670  -23.5030  -38.6650 C.3   213  LEU213      0.0284
      6  CG       -58.5540  -24.9850  -38.7760 C.3   213  LEU213      0.0019
      7  CD1      -59.5650  -25.3290  -37.6950 C.3   213  LEU213      0.0001
      8  CD2      -59.1310  -25.2830  -40.1430 C.3   213  LEU213      0.0001
      9  N        -58.7970  -21.9300  -41.0420 N.am  214  LEU214     -0.1980
     10  CA       -59.5090  -21.6270  -42.2780 C.3   214  LEU214      0.1596
     11  C        -58.6100  -21.3020  -43.4670 C.2   214  LEU214      0.2287
     12  O        -58.6550  -21.9920  -44.4830 O.2   214  LEU214     -0.2864
     13  CB       -60.4920  -20.4750  -42.0480 C.3   214  LEU214      0.0297
     14  CG       -61.6290  -20.7420  -41.0590 C.3   214  LEU214      0.0022
     15  CD1      -62.4870  -19.4950  -40.9190 C.3   214  LEU214      0.0001
     16  CD2      -62.4670  -21.9160  -41.5420 C.3   214  LEU214      0.0001
     17  N        -57.1240  -23.9550  -44.9590 N.3   217  MET217     -0.1230
     18  CA       -58.0690  -24.7340  -45.7470 C.3   217  MET217      0.1702
     19  C        -58.3370  -23.9920  -47.0510 C.2   217  MET217      0.2592
     20  O        -58.0470  -24.4940  -48.1380 O.2   217  MET217     -0.2718
     21  CB       -59.3930  -24.8920  -44.9970 C.3   217  MET217      0.0401
     22  CG       -59.2960  -25.5010  -43.6120 C.3   217  MET217      0.0596
     23  SD       -60.8990  -25.4340  -42.7750 S.3   217  MET217     -0.1393
     24  CE       -61.5770  -27.0160  -43.2090 C.3   217  MET217      0.0692
     25  N        -58.8890  -22.7880  -46.9250 N.am  218  HIS218     -0.1976
     26  CA       -59.2150  -21.9550  -48.0750 C.3   218  HIS218      0.1656
     27  C        -58.0120  -21.7350  -48.9780 C.2   218  HIS218      0.2291
     28  O        -57.9680  -22.2450  -50.0970 O.2   218  HIS218     -0.2864
     29  CB       -59.7290  -20.5810  -47.5930 C.3   218  HIS218      0.0771
     30  CG       -60.2920  -19.6690  -48.6370 C.ar  218  HIS218      0.0820
     31  ND1      -61.4830  -19.9230  -49.2890 N.ar  218  HIS218     -0.2267
     32  CD2      -59.8190  -18.5070  -49.1470 C.ar  218  HIS218      0.1154
     33  CE1      -61.7110  -18.9700  -50.1690 C.ar  218  HIS218      0.1986
     34  NE2      -60.7110  -18.1070  -50.1060 N.ar  218  HIS218     -0.2212
     35  N        -57.3910  -25.0190  -50.5820 N.3   221  THR221     -0.1203
     36  CA       -58.4580  -25.4360  -51.4870 C.3   221  THR221      0.1994
     37  C        -58.4350  -24.6700  -52.8040 C.2   221  THR221      0.2617
     38  O        -58.3940  -25.2670  -53.8760 O.2   221  THR221     -0.2717
     39  CB       -59.8480  -25.2390  -50.8380 C.3   221  THR221      0.1784
     40  OG1      -60.0810  -26.2710  -49.8720 O.3   221  THR221     -0.2211
     41  CG2      -60.9380  -25.2950  -51.8950 C.3   221  THR221      0.0376
     42  N        -58.4680  -23.3450  -52.7170 N.am  222  ILE222     -0.1979
     43  CA       -58.4460  -22.5100  -53.9100 C.3   222  ILE222      0.1595
     44  C        -57.3150  -22.9500  -54.8310 C.2   222  ILE222      0.2287
     45  O        -57.4900  -23.0330  -56.0440 O.2   222  ILE222     -0.2864
     46  CB       -58.1940  -21.0250  -53.5420 C.3   222  ILE222      0.0276
     47  CG1      -59.2510  -20.5060  -52.5760 C.3   222  ILE222      0.0022
     48  CG2      -58.0460  -20.2110  -54.8090 C.3   222  ILE222      0.0022
     49  CD1      -60.5680  -20.2770  -53.1850 C.3   222  ILE222      0.0001
     50  N        -65.4610  -23.8880  -58.0210 N.3   244  ALA244     -0.1245
     51  CA       -66.2720  -23.8580  -56.8100 C.3   244  ALA244      0.1562
     52  C        -67.2400  -25.0360  -56.7860 C.2   244  ALA244      0.2260
     53  O        -67.7940  -25.3830  -55.7390 O.2   244  ALA244     -0.2867
     54  CB       -67.0400  -22.5470  -56.7340 C.3   244  ALA244      0.0290
     55  N        -64.9050  -27.7920  -55.4030 N.3   247  ALA247     -0.1231
     56  CA       -64.2400  -27.1680  -54.2750 C.3   247  ALA247      0.1694
     57  C        -65.0280  -27.3130  -52.9770 C.2   247  ALA247      0.2591
     58  O        -64.4500  -27.3510  -51.8900 O.2   247  ALA247     -0.2718
     59  CB       -63.9820  -25.7020  -54.5810 C.3   247  ALA247      0.0304
     60  N        -66.3490  -27.3860  -53.0960 N.am  248  ALA248     -0.1980
     61  CA       -67.2070  -27.5390  -51.9320 C.3   248  ALA248      0.1597
     62  C        -67.4400  -29.0180  -51.6540 C.2   248  ALA248      0.2287
     63  O        -67.3250  -29.4680  -50.5160 O.2   248  ALA248     -0.2864
     64  CB       -68.5360  -26.8360  -52.1660 C.3   248  ALA248      0.0319
     65  N        -64.9840  -30.5620  -49.1760 N.3   251  TRP251     -0.1241
     66  CA       -65.2920  -30.2630  -47.7870 C.3   251  TRP251      0.1605
     67  C        -66.5600  -30.9850  -47.3470 C.2   251  TRP251      0.2264
     68  O        -66.6050  -31.5780  -46.2680 O.2   251  TRP251     -0.2867
     69  CB       -65.4840  -28.7580  -47.6120 C.3   251  TRP251      0.0550
     70  CG       -64.2200  -27.9720  -47.7050 C.ar  251  TRP251      0.0003
     71  CD1      -63.9780  -26.9090  -48.5230 C.ar  251  TRP251      0.0946
     72  CD2      -63.0430  -28.1420  -46.9080 C.ar  251  TRP251      0.0152
     73  NE1      -62.7260  -26.4020  -48.2840 N.ar  251  TRP251     -0.2442
     74  CE2      -62.1300  -27.1400  -47.2950 C.ar  251  TRP251      0.0810
     75  CE3      -62.6710  -29.0440  -45.9000 C.ar  251  TRP251      0.0012
     76  CZ2      -60.8640  -27.0100  -46.7100 C.ar  251  TRP251      0.0191
     77  CZ3      -61.4110  -28.9160  -45.3180 C.ar  251  TRP251      0.0001
     78  CH2      -60.5250  -27.9040  -45.7250 C.ar  251  TRP251      0.0015
     79  N        -66.1810  -33.2030  -44.2170 N.3   255  MET255     -0.1245
     80  CA       -66.7390  -32.8340  -42.9200 C.3   255  MET255      0.1570
     81  C        -68.2630  -32.8490  -42.8440 C.2   255  MET255      0.2261
     82  O        -68.8390  -32.4890  -41.8170 O.2   255  MET255     -0.2867
     83  CB       -66.2300  -31.4560  -42.5060 C.3   255  MET255      0.0387
     84  CG       -66.7580  -30.3290  -43.3650 C.3   255  MET255      0.0595
     85  SD       -66.0890  -28.7480  -42.8640 S.3   255  MET255     -0.1393
     86  CE       -64.8930  -28.4670  -44.1540 C.3   255  MET255      0.0692
     87  N        -70.8410  -30.9670  -44.0900 N.3   257  PHE257     -0.1227
     88  CA       -71.4340  -29.7860  -44.7010 C.3   257  PHE257      0.1736
     89  C        -70.4040  -28.9280  -45.4360 C.2   257  PHE257      0.2595
     90  O        -69.2840  -29.3710  -45.6930 O.2   257  PHE257     -0.2718
     91  CB       -72.1320  -28.9490  -43.6280 C.3   257  PHE257      0.0547
     92  CG       -71.2420  -28.5630  -42.4800 C.ar  257  PHE257     -0.0202
     93  CD1      -70.1800  -27.6890  -42.6670 C.ar  257  PHE257     -0.0042
     94  CD2      -71.4670  -29.0770  -41.2070 C.ar  257  PHE257     -0.0042
     95  CE1      -69.3510  -27.3300  -41.6050 C.ar  257  PHE257     -0.0003
     96  CE2      -70.6410  -28.7220  -40.1420 C.ar  257  PHE257     -0.0003
     97  CZ       -69.5810  -27.8460  -40.3450 C.ar  257  PHE257     -0.0000
     98  N        -70.7920  -27.7000  -45.7680 N.am  258  ASN258     -0.1960
     99  CA       -69.9420  -26.7880  -46.4830 C.3   258  ASN258      0.1819
    100  C        -70.6340  -25.4590  -46.7490 C.2   258  ASN258      0.2621
    101  O        -71.7920  -25.2670  -46.3780 O.2   258  ASN258     -0.2715
    102  CB       -69.4910  -27.4130  -47.8060 C.3   258  ASN258      0.1195
    103  CG       -70.6540  -27.8930  -48.6550 C.2   258  ASN258      0.2630
    104  OD1      -70.4590  -28.4330  -49.7420 O.2   258  ASN258     -0.2716
    105  ND2      -71.8710  -27.6990  -48.1620 N.am  258  ASN258     -0.0877
    106  N        -69.9150  -24.5410  -47.3890 N.am  259  VAL259     -0.1963
    107  CA       -70.4700  -23.2320  -47.7230 C.3   259  VAL259      0.1727
    108  C        -70.0990  -22.8970  -49.1670 C.2   259  VAL259      0.2617
    109  O        -69.4140  -23.6740  -49.8340 O.2   259  VAL259     -0.2715
    110  CB       -69.9420  -22.1220  -46.7770 C.3   259  VAL259      0.0290
    111  CG1      -69.7290  -22.6880  -45.3850 C.3   259  VAL259      0.0023
    112  CG2      -68.6680  -21.5150  -47.3220 C.3   259  VAL259      0.0023
    113  N        -70.5470  -21.7410  -49.6440 N.am  260  THR260     -0.1937
    114  CA       -70.2720  -21.3280  -51.0150 C.3   260  THR260      0.2028
    115  C        -68.9810  -20.5280  -51.1470 C.2   260  THR260      0.2642
    116  O        -68.4620  -20.0050  -50.1650 O.2   260  THR260     -0.2714
    117  CB       -71.4230  -20.4830  -51.5650 C.3   260  THR260      0.1808
    118  OG1      -71.4970  -19.2480  -50.8450 O.3   260  THR260     -0.2208
    119  CG2      -72.7350  -21.2240  -51.4070 C.3   260  THR260      0.0379
    120  N        -68.4750  -20.4390  -52.3740 N.am  261  MET261     -0.1976
    121  CA       -67.2490  -19.7030  -52.6610 C.3   261  MET261      0.1605
    122  C        -67.2680  -18.3400  -51.9740 C.2   261  MET261      0.2287
    123  O        -66.2680  -17.9090  -51.4050 O.2   261  MET261     -0.2864
    124  CB       -67.0810  -19.5230  -54.1730 C.3   261  MET261      0.0413
    125  CG       -65.7950  -18.8170  -54.5890 C.3   261  MET261      0.0598
    126  SD       -64.3000  -19.7030  -54.1050 S.3   261  MET261     -0.1393
    127  CE       -64.1200  -20.8370  -55.4700 C.3   261  MET261      0.0692
    128  N        -67.9190  -18.6520  -47.5460 N.3   264  ILE264     -0.1245
    129  CA       -66.7060  -18.8720  -46.7700 C.3   264  ILE264      0.1561
    130  C        -66.0080  -17.5710  -46.3990 C.2   264  ILE264      0.2260
    131  O        -65.7670  -17.3090  -45.2220 O.2   264  ILE264     -0.2867
    132  CB       -65.7130  -19.7980  -47.5290 C.3   264  ILE264      0.0252
    133  CG1      -64.2830  -19.5850  -47.0240 C.3   264  ILE264      0.0019
    134  CG2      -65.7880  -19.5320  -49.0160 C.3   264  ILE264      0.0019
    135  CD1      -64.0940  -19.8440  -45.5420 C.3   264  ILE264      0.0001
    136  N        -67.2620  -16.1970  -43.4730 N.3   267  TRP267     -0.1241
    137  CA       -66.9010  -16.8980  -42.2460 C.3   267  TRP267      0.1605
    138  C        -65.5300  -16.3860  -41.8340 C.2   267  TRP267      0.2264
    139  O        -65.3330  -15.9230  -40.7100 O.2   267  TRP267     -0.2867
    140  CB       -66.7980  -18.4080  -42.4800 C.3   267  TRP267      0.0550
    141  CG       -68.1000  -19.1300  -42.5480 C.ar  267  TRP267      0.0003
    142  CD1      -69.0570  -19.0120  -43.5130 C.ar  267  TRP267      0.0946
    143  CD2      -68.5860  -20.1060  -41.6170 C.ar  267  TRP267      0.0152
    144  NE1      -70.1080  -19.8570  -43.2450 N.ar  267  TRP267     -0.2442
    145  CE2      -69.8440  -20.5410  -42.0870 C.ar  267  TRP267      0.0810
    146  CE3      -68.0790  -20.6560  -40.4330 C.ar  267  TRP267      0.0012
    147  CZ2      -70.6050  -21.5010  -41.4120 C.ar  267  TRP267      0.0191
    148  CZ3      -68.8360  -21.6120  -39.7610 C.ar  267  TRP267      0.0001
    149  CH2      -70.0860  -22.0240  -40.2550 C.ar  267  TRP267      0.0015
    150  N        -64.4240  -14.8230  -38.4990 N.3   271  CYS271     -0.1235
    151  CA       -63.5320  -15.6490  -37.6950 C.3   271  CYS271      0.1677
    152  C        -62.2370  -14.9080  -37.3800 C.2   271  CYS271      0.2270
    153  O        -61.4970  -15.2790  -36.4860 O.2   271  CYS271     -0.2867
    154  CB       -63.2130  -16.9530  -38.4270 C.3   271  CYS271      0.0956
    155  SG       -61.7680  -17.8190  -37.7730 S.3   271  CYS271     -0.0801
@<TRIPOS>BOND
     1    50    51    1
     2    51    52    1
     3    51    54    1
     4    52    53    2
     5    45    44    2
     6   127   126    1
     7    55    56    1
     8    44    43    1
     9    48    46    1
    10   125   124    1
    11   125   126    1
    12    59    56    1
    13    56    57    1
    14   124   121    1
    15    43    46    1
    16    43    42    1
    17    38    37    2
    18    46    47    1
    19    49    47    1
    20    60    57   am
    21    60    61    1
    22    57    58    2
    23    37    42   am
    24    37    36    1
    25   121   120    1
    26   121   122    1
    27   120   115   am
    28    64    61    1
    29   122   123    2
    30    61    62    1
    31    41    39    1
    32    62    63    2
    33   117   119    1
    34   117   114    1
    35   117   118    1
    36    36    39    1
    37    36    35    1
    38   115   114    1
    39   115   116    2
    40   114   113    1
    41    39    40    1
    42    33    34   ar
    43    33    31   ar
    44    34    32   ar
    45    28    27    2
    46   109   108    2
    47   104   103    2
    48   113   108   am
    49    31    30   ar
    50    65    66    1
    51   108   107    1
    52    32    30   ar
    53   134   132    1
    54    27    26    1
    55   103   105   am
    56   103   102    1
    57    30    29    1
    58    71    73   ar
    59    71    70   ar
    60    73    74   ar
    61    20    19    2
    62    26    29    1
    63    26    25    1
    64   102    99    1
    65    66    69    1
    66    66    67    1
    67   107   106    1
    68   107   110    1
    69    70    69    1
    70    70    72   ar
    71   128   129    1
    72   132   133    1
    73   132   129    1
    74   106   100   am
    75    67    68    2
    76   112   110    1
    77    74    72   ar
    78    74    76   ar
    79    19    25   am
    80    19    18    1
    81   133   135    1
    82    72    75   ar
    83   110   111    1
    84   129   130    1
    85   100    99    1
    86   100   101    2
    87    76    78   ar
    88    99    98    1
    89   130   131    2
    90    75    77   ar
    91    98    89   am
    92    18    21    1
    93    18    17    1
    94    78    77   ar
    95    90    89    2
    96    89    88    1
    97    21    22    1
    98    88    87    1
    99    88    91    1
   100    12    11    2
   101    79    80    1
   102    86    85    1
   103    91    92    1
   104    22    23    1
   105   142   144   ar
   106   142   141   ar
   107   136   137    1
   108    11    10    1
   109    84    85    1
   110    84    83    1
   111   144   145   ar
   112    24    23    1
   113    80    81    1
   114    80    83    1
   115    81    82    2
   116    93    92   ar
   117    93    95   ar
   118   141   140    1
   119   141   143   ar
   120    92    94   ar
   121   140   137    1
   122    10    13    1
   123    10     9    1
   124   137   138    1
   125   145   143   ar
   126   145   147   ar
   127    13    14    1
   128     4     3    2
   129   138   139    2
   130   143   146   ar
   131    95    97   ar
   132    16    14    1
   133   147   149   ar
   134    94    96   ar
   135    14    15    1
   136     9     3   am
   137     3     2    1
   138   146   148   ar
   139    97    96   ar
   140   149   148   ar
   141     8     6    1
   142     2     1    1
   143     2     5    1
   144     6     5    1
   145     6     7    1
   146   150   151    1
   147   154   155    1
   148   154   151    1
   149   151   152    1
   150   152   153    2
