@<TRIPOS>MOLECULE
tmp/3wmmC07.pdb
 140 130 0 0 0
SMALL
GASTEIGER

@<TRIPOS>ATOM
      1  N        -51.8050   11.3240  -42.4530 N.3    59  SER59      -0.1202
      2  CA       -51.5420   10.1130  -41.6850 C.3    59  SER59       0.2020
      3  C        -50.0750    9.7120  -41.7600 C.2    59  SER59       0.2618
      4  O        -49.4010    9.6000  -40.7360 O.2    59  SER59      -0.2717
      5  CB       -52.4140    8.9650  -42.1990 C.3    59  SER59       0.2103
      6  OG       -52.1730    7.7750  -41.4680 O.3    59  SER59      -0.2182
      7  N        -49.5850    9.4970  -42.9770 N.am   60  ILE60      -0.1979
      8  CA       -48.1950    9.1050  -43.1870 C.3    60  ILE60       0.1595
      9  C        -47.2500   10.0420  -42.4390 C.2    60  ILE60       0.2287
     10  O        -46.1590    9.6430  -42.0340 O.2    60  ILE60      -0.2864
     11  CB       -47.8340    9.1130  -44.6910 C.3    60  ILE60       0.0276
     12  CG1      -46.3490    8.7750  -44.8740 C.3    60  ILE60       0.0022
     13  CG2      -48.1630   10.4650  -45.2980 C.3    60  ILE60       0.0022
     14  CD1      -45.8990    8.7370  -46.3210 C.3    60  ILE60       0.0001
     15  N        -48.3220    9.4140  -37.8640 N.3    63  GLY63      -0.1210
     16  CA       -47.6830    8.2580  -37.2610 C.3    63  GLY63       0.1956
     17  C        -46.1770    8.2310  -37.4240 C.2    63  GLY63       0.2611
     18  O        -45.4710    7.5990  -36.6370 O.2    63  GLY63      -0.2717
     19  N        -45.6810    8.9170  -38.4480 N.am   64  LEU64      -0.1979
     20  CA       -44.2490    8.9630  -38.7080 C.3    64  LEU64       0.1596
     21  C        -43.5680    9.7900  -37.6230 C.2    64  LEU64       0.2287
     22  O        -42.3460    9.7770  -37.4890 O.2    64  LEU64      -0.2864
     23  CB       -43.9920    9.5810  -40.0850 C.3    64  LEU64       0.0297
     24  CG       -42.7480    9.1380  -40.8580 C.3    64  LEU64       0.0022
     25  CD1      -42.8050    9.7150  -42.2620 C.3    64  LEU64       0.0001
     26  CD2      -41.4860    9.5840  -40.1440 C.3    64  LEU64       0.0001
     27  N        -43.2420    7.0960  -34.4600 N.3    67  ILE67      -0.1245
     28  CA       -42.1180    6.2130  -34.7450 C.3    67  ILE67       0.1561
     29  C        -40.7960    6.9060  -34.4330 C.2    67  ILE67       0.2260
     30  O        -39.9370    6.3440  -33.7550 O.2    67  ILE67      -0.2867
     31  CB       -42.1010    5.7690  -36.2260 C.3    67  ILE67       0.0252
     32  CG1      -43.3800    4.9960  -36.5540 C.3    67  ILE67       0.0019
     33  CG2      -40.8740    4.9050  -36.4940 C.3    67  ILE67       0.0019
     34  CD1      -43.4320    4.4590  -37.9710 C.3    67  ILE67       0.0001
     35  N        -49.7500    8.2360  -32.5040 N.3   121  LEU121     -0.1245
     36  CA       -49.8720    6.8910  -33.0480 C.3   121  LEU121      0.1561
     37  C        -51.3180    6.4350  -32.9230 C.2   121  LEU121      0.2260
     38  O        -51.7570    5.5320  -33.6350 O.2   121  LEU121     -0.2867
     39  CB       -48.9580    5.9220  -32.2950 C.3   121  LEU121      0.0270
     40  CG       -48.9740    4.4740  -32.7910 C.3   121  LEU121      0.0019
     41  CD1      -48.5210    4.4230  -34.2420 C.3   121  LEU121      0.0001
     42  CD2      -48.0680    3.6240  -31.9190 C.3   121  LEU121      0.0001
     43  N        -52.9590    8.4590  -35.6930 N.3   124  SER124     -0.1202
     44  CA       -52.3310    7.9640  -36.9120 C.3   124  SER124      0.2020
     45  C        -53.0970    6.7700  -37.4680 C.2   124  SER124      0.2618
     46  O        -53.1840    6.5850  -38.6820 O.2   124  SER124     -0.2717
     47  CB       -50.8870    7.5500  -36.6300 C.3   124  SER124      0.2103
     48  OG       -50.2890    6.9780  -37.7790 O.3   124  SER124     -0.2182
     49  N        -53.6490    5.9620  -36.5680 N.am  125  ILE125     -0.1979
     50  CA       -54.4180    4.7880  -36.9570 C.3   125  ILE125      0.1595
     51  C        -55.8590    5.1960  -37.2440 C.2   125  ILE125      0.2287
     52  O        -56.4280    4.8270  -38.2730 O.2   125  ILE125     -0.2864
     53  CB       -54.4170    3.7310  -35.8370 C.3   125  ILE125      0.0276
     54  CG1      -52.9770    3.3240  -35.5140 C.3   125  ILE125      0.0022
     55  CG2      -55.2310    2.5190  -36.2610 C.3   125  ILE125      0.0022
     56  CD1      -52.8630    2.3490  -34.3670 C.3   125  ILE125      0.0001
     57  N        -55.7970    6.8030  -40.3880 N.3   128  TRP128     -0.1241
     58  CA       -55.5540    5.8170  -41.4310 C.3   128  TRP128      0.1605
     59  C        -56.8180    5.0210  -41.7300 C.2   128  TRP128      0.2264
     60  O        -56.9990    4.5330  -42.8460 O.2   128  TRP128     -0.2867
     61  CB       -54.4180    4.8740  -41.0230 C.3   128  TRP128      0.0550
     62  CG       -54.0710    3.8630  -42.0790 C.ar  128  TRP128      0.0003
     63  CD1      -54.6970    2.6710  -42.3150 C.ar  128  TRP128      0.0946
     64  CD2      -53.0340    3.9700  -43.0620 C.ar  128  TRP128      0.0152
     65  NE1      -54.1150    2.0310  -43.3820 N.ar  128  TRP128     -0.2442
     66  CE2      -53.0910    2.8060  -43.8600 C.ar  128  TRP128      0.0810
     67  CE3      -52.0610    4.9390  -43.3480 C.ar  128  TRP128      0.0012
     68  CZ2      -52.2110    2.5820  -44.9250 C.ar  128  TRP128      0.0191
     69  CZ3      -51.1860    4.7160  -44.4080 C.ar  128  TRP128      0.0001
     70  CH2      -51.2690    3.5460  -45.1820 C.ar  128  TRP128      0.0015
     71  N        -58.6690    4.5730  -45.4520 N.3   132  THR132     -0.1218
     72  CA       -59.1510    3.3530  -46.0870 C.3   132  THR132      0.1862
     73  C        -60.6030    3.5170  -46.5230 C.2   132  THR132      0.2287
     74  O        -61.0070    3.0110  -47.5720 O.2   132  THR132     -0.2866
     75  CB       -59.0570    2.1490  -45.1250 C.3   132  THR132      0.1770
     76  OG1      -57.6940    1.9590  -44.7260 O.3   132  THR132     -0.2211
     77  CG2      -59.5600    0.8830  -45.8030 C.3   132  THR132      0.0375
     78  N        -63.4910   -3.8050  -45.0490 N.3   145  LEU145     -0.1245
     79  CA       -62.1260   -3.6320  -44.5690 C.3   145  LEU145      0.1561
     80  C        -62.0950   -2.6590  -43.3970 C.2   145  LEU145      0.2260
     81  O        -61.4010   -2.8880  -42.4070 O.2   145  LEU145     -0.2867
     82  CB       -61.2310   -3.1140  -45.6980 C.3   145  LEU145      0.0270
     83  CG       -59.7290   -3.0460  -45.4100 C.3   145  LEU145      0.0019
     84  CD1      -59.2000   -4.4420  -45.1170 C.3   145  LEU145      0.0001
     85  CD2      -59.0060   -2.4460  -46.6050 C.3   145  LEU145      0.0001
     86  N        -63.4920   -4.2710  -40.3040 N.3   148  ALA148     -0.1231
     87  CA       -62.4960   -5.1330  -39.6860 C.3   148  ALA148      0.1694
     88  C        -61.4370   -4.2720  -39.0090 C.2   148  ALA148      0.2592
     89  O        -61.2640   -4.3270  -37.7910 O.2   148  ALA148     -0.2718
     90  CB       -61.8550   -6.0290  -40.7400 C.3   148  ALA148      0.0304
     91  N        -60.7380   -3.4730  -39.8100 N.am  149  PHE149     -0.1976
     92  CA       -59.6930   -2.5930  -39.3020 C.3   149  PHE149      0.1639
     93  C        -60.1980   -1.8610  -38.0720 C.2   149  PHE149      0.2290
     94  O        -59.4340   -1.5610  -37.1560 O.2   149  PHE149     -0.2864
     95  CB       -59.2870   -1.5940  -40.3870 C.3   149  PHE149      0.0560
     96  CG       -58.1550   -0.6880  -39.9960 C.ar  149  PHE149     -0.0200
     97  CD1      -57.1150   -1.1490  -39.1960 C.ar  149  PHE149     -0.0042
     98  CD2      -58.1020    0.6160  -40.4750 C.ar  149  PHE149     -0.0042
     99  CE1      -56.0370   -0.3250  -38.8820 C.ar  149  PHE149     -0.0003
    100  CE2      -57.0310    1.4460  -40.1680 C.ar  149  PHE149     -0.0003
    101  CZ       -55.9950    0.9750  -39.3710 C.ar  149  PHE149     -0.0000
    102  N        -60.0350   -4.2530  -35.0940 N.3   152  ALA152     -0.1245
    103  CA       -58.6540   -4.3410  -34.6410 C.3   152  ALA152      0.1562
    104  C        -58.3400   -3.1010  -33.8140 C.2   152  ALA152      0.2260
    105  O        -57.8320   -3.1990  -32.6970 O.2   152  ALA152     -0.2867
    106  CB       -57.7150   -4.4230  -35.8330 C.3   152  ALA152      0.0290
    107  N        -57.5760  -16.8910  -33.1770 N.3   208  LEU208     -0.1245
    108  CA       -56.1910  -16.8270  -33.6210 C.3   208  LEU208      0.1561
    109  C        -55.8620  -18.1880  -34.2130 C.2   208  LEU208      0.2260
    110  O        -55.0140  -18.3160  -35.0950 O.2   208  LEU208     -0.2867
    111  CB       -55.2580  -16.5310  -32.4470 C.3   208  LEU208      0.0270
    112  CG       -53.7690  -16.4740  -32.7960 C.3   208  LEU208      0.0019
    113  CD1      -53.5340  -15.4140  -33.8570 C.3   208  LEU208      0.0001
    114  CD2      -52.9610  -16.1710  -31.5490 C.3   208  LEU208      0.0001
    115  N        -61.9920  -13.8520  -38.1500 N.3   272  ALA272     -0.1231
    116  CA       -60.8000  -13.0410  -37.9640 C.3   272  ALA272      0.1694
    117  C        -61.1720  -11.7430  -37.2610 C.2   272  ALA272      0.2591
    118  O        -60.5540  -11.3660  -36.2690 O.2   272  ALA272     -0.2718
    119  CB       -60.1590  -12.7420  -39.3100 C.3   272  ALA272      0.0304
    120  N        -62.1890  -11.0630  -37.7790 N.am  273  VAL273     -0.1980
    121  CA       -62.6390   -9.8050  -37.1980 C.3   273  VAL273      0.1595
    122  C        -63.1110  -10.0080  -35.7670 C.2   273  VAL273      0.2287
    123  O        -62.9490   -9.1290  -34.9210 O.2   273  VAL273     -0.2864
    124  CB       -63.7960   -9.1910  -38.0150 C.3   273  VAL273      0.0276
    125  CG1      -64.2900   -7.9160  -37.3480 C.3   273  VAL273      0.0022
    126  CG2      -63.3270   -8.8950  -39.4280 C.3   273  VAL273      0.0022
    127  N        -61.8410  -11.9990  -33.7790 N.3   275  THR275     -0.1203
    128  CA       -60.6540  -12.2830  -32.9770 C.3   275  THR275      0.1994
    129  C        -60.4170  -11.1350  -32.0030 C.2   275  THR275      0.2617
    130  O        -60.5220  -11.3100  -30.7890 O.2   275  THR275     -0.2717
    131  CB       -59.3980  -12.4560  -33.8590 C.3   275  THR275      0.1784
    132  OG1      -59.6220  -13.4980  -34.8170 O.3   275  THR275     -0.2211
    133  CG2      -58.1980  -12.8230  -33.0050 C.3   275  THR275      0.0376
    134  N        -60.1030   -9.9610  -32.5440 N.am  276  VAL276     -0.1979
    135  CA       -59.8630   -8.7820  -31.7200 C.3   276  VAL276      0.1595
    136  C        -61.1080   -8.3940  -30.9270 C.2   276  VAL276      0.2287
    137  O        -61.0080   -7.8270  -29.8410 O.2   276  VAL276     -0.2864
    138  CB       -59.4340   -7.5760  -32.5750 C.3   276  VAL276      0.0276
    139  CG1      -58.0340   -7.7960  -33.1120 C.3   276  VAL276      0.0022
    140  CG2      -60.4180   -7.3710  -33.7140 C.3   276  VAL276      0.0022
@<TRIPOS>BOND
     1    74    73    2
     2    85    83    1
     3    73    72    1
     4    14    12    1
     5    72    71    1
     6    72    75    1
     7    77    75    1
     8    82    83    1
     9    82    79    1
    10    83    84    1
    11    13    11    1
    12    70    68   ar
    13    70    69   ar
    14    75    76    1
    15    78    79    1
    16    68    66   ar
    17    12    11    1
    18    11     8    1
    19    79    80    1
    20    69    67   ar
    21    66    65   ar
    22    66    64   ar
    23    80    81    2
    24    65    63   ar
    25    67    64   ar
    26     8     7    1
    27     8     9    1
    28    64    62   ar
    29     7     3   am
    30    60    59    2
    31     1     2    1
    32     9    10    2
    33    63    62   ar
    34    25    24    1
    35     5     2    1
    36     5     6    1
    37    62    61    1
    38     3     2    1
    39     3     4    2
    40    59    58    1
    41    58    61    1
    42    58    57    1
    43    24    26    1
    44    24    23    1
    45    90    87    1
    46    98   100   ar
    47    98    96   ar
    48    95    96    1
    49    95    92    1
    50    86    87    1
    51   100   101   ar
    52    23    20    1
    53    96    97   ar
    54    91    92    1
    55    91    88   am
    56    87    88    1
    57   126   124    1
    58   101    99   ar
    59   119   116    1
    60    92    93    1
    61    97    99   ar
    62    88    89    2
    63    20    19    1
    64    20    21    1
    65    46    45    2
    66    19    17   am
    67    52    51    2
    68   115   116    1
    69    93    94    2
    70   124   125    1
    71   124   121    1
    72    34    32    1
    73   116   117    1
    74    15    16    1
    75   120   117   am
    76   120   121    1
    77    48    47    1
    78    21    22    2
    79    45    44    1
    80    45    49   am
    81    17    16    1
    82    17    18    2
    83   117   118    2
    84    51    50    1
    85   121   122    1
    86    50    49    1
    87    50    53    1
    88    44    47    1
    89    44    43    1
    90    32    31    1
    91    33    31    1
    92    55    53    1
    93    31    28    1
    94    53    54    1
    95   106   103    1
    96   122   123    2
    97    54    56    1
    98   110   109    2
    99   102   103    1
   100   132   131    1
   101    28    27    1
   102    28    29    1
   103   103   104    1
   104    29    30    2
   105    41    40    1
   106   109   108    1
   107   131   133    1
   108   131   128    1
   109   113   112    1
   110   104   105    2
   111   127   128    1
   112   140   138    1
   113    38    37    2
   114   108   107    1
   115   108   111    1
   116   139   138    1
   117    36    37    1
   118    36    35    1
   119    36    39    1
   120   128   129    1
   121   112   111    1
   122   112   114    1
   123    40    39    1
   124    40    42    1
   125   138   135    1
   126   134   129   am
   127   134   135    1
   128   129   130    2
   129   135   136    1
   130   136   137    2
