@<TRIPOS>MOLECULE
tmp/3wmmC02.pdb
 83 81 0 0 0
SMALL
GASTEIGER

@<TRIPOS>ATOM
      1  N        -56.5520  -19.2050  -33.7110 N.3   209  TYR209     -0.1241
      2  CA       -56.3740  -20.5690  -34.1790 C.3   209  TYR209      0.1605
      3  C        -57.2820  -20.8030  -35.3760 C.2   209  TYR209      0.2264
      4  O        -56.8170  -21.1500  -36.4630 O.2   209  TYR209     -0.2867
      5  CB       -56.7070  -21.5770  -33.0740 C.3   209  TYR209      0.0534
      6  CG       -55.6590  -21.7110  -31.9810 C.ar  209  TYR209     -0.0201
      7  CD1      -54.4110  -21.1020  -32.0930 C.ar  209  TYR209     -0.0009
      8  CD2      -55.9090  -22.4870  -30.8490 C.ar  209  TYR209     -0.0009
      9  CE1      -53.4400  -21.2640  -31.1040 C.ar  209  TYR209      0.0417
     10  CE2      -54.9470  -22.6560  -29.8580 C.ar  209  TYR209      0.0417
     11  CZ       -53.7170  -22.0420  -29.9890 C.ar  209  TYR209      0.1957
     12  OH       -52.7710  -22.2030  -29.0000 O.3   209  TYR209     -0.2866
     13  N        -56.0580  -19.0850  -38.5430 N.3   212  ALA212     -0.1231
     14  CA       -54.9900  -19.8660  -39.1500 C.3   212  ALA212      0.1694
     15  C        -55.5550  -21.1160  -39.8120 C.2   212  ALA212      0.2591
     16  O        -55.1550  -21.4760  -40.9170 O.2   212  ALA212     -0.2718
     17  CB       -53.9670  -20.2370  -38.0950 C.3   212  ALA212      0.0304
     18  N        -56.4930  -21.7670  -39.1330 N.am  213  LEU213     -0.1980
     19  CA       -57.1110  -22.9810  -39.6470 C.3   213  LEU213      0.1596
     20  C        -57.7460  -22.7420  -41.0160 C.2   213  LEU213      0.2287
     21  O        -57.2890  -23.2780  -42.0250 O.2   213  LEU213     -0.2864
     22  CB       -58.1670  -23.5030  -38.6650 C.3   213  LEU213      0.0297
     23  CG       -58.5540  -24.9850  -38.7760 C.3   213  LEU213      0.0022
     24  CD1      -59.5650  -25.3290  -37.6950 C.3   213  LEU213      0.0001
     25  CD2      -59.1310  -25.2830  -40.1430 C.3   213  LEU213      0.0001
     26  N        -55.7450  -21.9480  -43.9530 N.3   216  ALA216     -0.1231
     27  CA       -54.9630  -23.1410  -44.2630 C.3   216  ALA216      0.1694
     28  C        -55.8110  -24.0360  -45.1500 C.2   216  ALA216      0.2591
     29  O        -55.2920  -24.7790  -45.9810 O.2   216  ALA216     -0.2718
     30  CB       -54.5830  -23.8740  -42.9850 C.3   216  ALA216      0.0304
     31  N        -57.1240  -23.9550  -44.9590 N.am  217  MET217     -0.1979
     32  CA       -58.0690  -24.7340  -45.7470 C.3   217  MET217      0.1605
     33  C        -58.3370  -23.9920  -47.0510 C.2   217  MET217      0.2287
     34  O        -58.0470  -24.4940  -48.1380 O.2   217  MET217     -0.2864
     35  CB       -59.3930  -24.8920  -44.9970 C.3   217  MET217      0.0413
     36  CG       -59.2960  -25.5010  -43.6120 C.3   217  MET217      0.0598
     37  SD       -60.8990  -25.4340  -42.7750 S.3   217  MET217     -0.1393
     38  CE       -61.5770  -27.0160  -43.2090 C.3   217  MET217      0.0692
     39  N        -55.5230  -23.0780  -49.3550 N.3   220  ALA220     -0.1245
     40  CA       -55.1470  -24.3470  -49.9550 C.3   220  ALA220      0.1562
     41  C        -56.1620  -24.7580  -51.0150 C.2   220  ALA220      0.2260
     42  O        -55.8360  -24.8320  -52.1990 O.2   220  ALA220     -0.2867
     43  CB       -55.0510  -25.4160  -48.8850 C.3   220  ALA220      0.0290
     44  N        -65.7080  -31.4210  -51.8880 N.3   250  PHE250     -0.1227
     45  CA       -64.5960  -31.9510  -51.1110 C.3   250  PHE250      0.1736
     46  C        -64.9170  -31.8090  -49.6300 C.2   250  PHE250      0.2595
     47  O        -65.1010  -32.7990  -48.9220 O.2   250  PHE250     -0.2718
     48  CB       -63.3150  -31.1770  -51.4380 C.3   250  PHE250      0.0547
     49  CG       -62.1810  -31.4520  -50.4920 C.ar  250  PHE250     -0.0202
     50  CD1      -61.6270  -32.7240  -50.3970 C.ar  250  PHE250     -0.0042
     51  CD2      -61.6740  -30.4390  -49.6850 C.ar  250  PHE250     -0.0042
     52  CE1      -60.5840  -32.9830  -49.5120 C.ar  250  PHE250     -0.0003
     53  CE2      -60.6340  -30.6870  -48.7990 C.ar  250  PHE250     -0.0003
     54  CZ       -60.0880  -31.9620  -48.7110 C.ar  250  PHE250     -0.0000
     55  N        -64.9840  -30.5620  -49.1760 N.am  251  TRP251     -0.1976
     56  CA       -65.2920  -30.2630  -47.7870 C.3   251  TRP251      0.1640
     57  C        -66.5600  -30.9850  -47.3470 C.2   251  TRP251      0.2290
     58  O        -66.6050  -31.5780  -46.2680 O.2   251  TRP251     -0.2864
     59  CB       -65.4840  -28.7580  -47.6120 C.3   251  TRP251      0.0576
     60  CG       -64.2200  -27.9720  -47.7050 C.ar  251  TRP251      0.0006
     61  CD1      -63.9780  -26.9090  -48.5230 C.ar  251  TRP251      0.0946
     62  CD2      -63.0430  -28.1420  -46.9080 C.ar  251  TRP251      0.0152
     63  NE1      -62.7260  -26.4020  -48.2840 N.ar  251  TRP251     -0.2442
     64  CE2      -62.1300  -27.1400  -47.2950 C.ar  251  TRP251      0.0810
     65  CE3      -62.6710  -29.0440  -45.9000 C.ar  251  TRP251      0.0012
     66  CZ2      -60.8640  -27.0100  -46.7100 C.ar  251  TRP251      0.0191
     67  CZ3      -61.4110  -28.9160  -45.3180 C.ar  251  TRP251      0.0001
     68  CH2      -60.5250  -27.9040  -45.7250 C.ar  251  TRP251      0.0015
     69  N        -65.8890  -34.4970  -46.8350 N.3   254  THR254     -0.1203
     70  CA       -64.9340  -34.6360  -45.7430 C.3   254  THR254      0.1994
     71  C        -65.5050  -34.3370  -44.3640 C.2   254  THR254      0.2617
     72  O        -65.3360  -35.1310  -43.4410 O.2   254  THR254     -0.2717
     73  CB       -63.7060  -33.7280  -45.9580 C.3   254  THR254      0.1784
     74  OG1      -64.1190  -32.3560  -45.9730 O.3   254  THR254     -0.2211
     75  CG2      -63.0220  -34.0630  -47.2720 C.3   254  THR254      0.0376
     76  N        -66.1810  -33.2030  -44.2170 N.am  255  MET255     -0.1979
     77  CA       -66.7390  -32.8340  -42.9200 C.3   255  MET255      0.1605
     78  C        -68.2630  -32.8490  -42.8440 C.2   255  MET255      0.2287
     79  O        -68.8390  -32.4890  -41.8170 O.2   255  MET255     -0.2864
     80  CB       -66.2300  -31.4560  -42.5060 C.3   255  MET255      0.0413
     81  CG       -66.7580  -30.3290  -43.3650 C.3   255  MET255      0.0598
     82  SD       -66.0890  -28.7480  -42.8640 S.3   255  MET255     -0.1393
     83  CE       -64.8930  -28.4670  -44.1540 C.3   255  MET255      0.0692
@<TRIPOS>BOND
     1    42    41    2
     2    44    45    1
     3    48    45    1
     4    48    49    1
     5    45    46    1
     6    41    40    1
     7    49    50   ar
     8    49    51   ar
     9    50    52   ar
    10    40    39    1
    11    40    43    1
    12    51    53   ar
    13    46    55   am
    14    46    47    2
    15    52    54   ar
    16    55    56    1
    17    53    54   ar
    18    61    63   ar
    19    61    60   ar
    20    63    64   ar
    21    34    33    2
    22    56    59    1
    23    56    57    1
    24    60    59    1
    25    60    62   ar
    26    57    58    2
    27    64    62   ar
    28    64    66   ar
    29    75    73    1
    30    33    32    1
    31    62    65   ar
    32    69    70    1
    33    66    68   ar
    34    29    28    2
    35    74    73    1
    36    73    70    1
    37    65    67   ar
    38    32    35    1
    39    32    31    1
    40    70    71    1
    41    68    67   ar
    42    28    31   am
    43    28    27    1
    44    35    36    1
    45    71    76   am
    46    71    72    2
    47    27    26    1
    48    27    30    1
    49    76    77    1
    50    83    82    1
    51    36    37    1
    52    81    82    1
    53    81    80    1
    54    38    37    1
    55    77    78    1
    56    77    80    1
    57    78    79    2
    58    21    20    2
    59    20    19    1
    60    16    15    2
    61    25    23    1
    62    15    14    1
    63    15    18   am
    64    19    18    1
    65    19    22    1
    66    14    13    1
    67    14    17    1
    68    23    22    1
    69    23    24    1
    70     4     3    2
    71     3     2    1
    72     2     1    1
    73     2     5    1
    74     5     6    1
    75     7     6   ar
    76     7     9   ar
    77     6     8   ar
    78     9    11   ar
    79     8    10   ar
    80    11    10   ar
    81    11    12    1
