@<TRIPOS>MOLECULE
tmp/3wmmC03.pdb
 156 153 0 0 0
SMALL
GASTEIGER

@<TRIPOS>ATOM
      1  N        -49.3800    4.5930  -55.9850 N.3    50  ILE50      -0.1245
      2  CA       -50.0570    4.6720  -54.6950 C.3    50  ILE50       0.1561
      3  C        -50.8200    5.9840  -54.5430 C.2    50  ILE50       0.2260
      4  O        -50.4040    7.0200  -55.0610 O.2    50  ILE50      -0.2867
      5  CB       -49.0390    4.5540  -53.5350 C.3    50  ILE50       0.0252
      6  CG1      -49.7390    4.7480  -52.1870 C.3    50  ILE50       0.0019
      7  CG2      -47.9380    5.5890  -53.7060 C.3    50  ILE50       0.0019
      8  CD1      -50.7830    3.7030  -51.8790 C.3    50  ILE50       0.0001
      9  N        -49.5850    9.4970  -42.9770 N.3    60  ILE60      -0.1245
     10  CA       -48.1950    9.1050  -43.1870 C.3    60  ILE60       0.1561
     11  C        -47.2500   10.0420  -42.4390 C.2    60  ILE60       0.2260
     12  O        -46.1590    9.6430  -42.0340 O.2    60  ILE60      -0.2867
     13  CB       -47.8340    9.1130  -44.6910 C.3    60  ILE60       0.0252
     14  CG1      -46.3490    8.7750  -44.8740 C.3    60  ILE60       0.0019
     15  CG2      -48.1630   10.4650  -45.2980 C.3    60  ILE60       0.0019
     16  CD1      -45.8990    8.7370  -46.3210 C.3    60  ILE60       0.0001
     17  N        -33.8620   -4.8020  -29.4490 N.3    90  PHE90      -0.1241
     18  CA       -34.9700   -5.5850  -28.9150 C.3    90  PHE90       0.1605
     19  C        -35.3590   -5.1110  -27.5180 C.2    90  PHE90       0.2264
     20  O        -36.5340   -4.8920  -27.2270 O.2    90  PHE90      -0.2867
     21  CB       -34.5910   -7.0670  -28.8630 C.3    90  PHE90       0.0534
     22  CG       -34.3610   -7.6840  -30.2140 C.ar   90  PHE90      -0.0203
     23  CD1      -35.4000   -7.7870  -31.1320 C.ar   90  PHE90      -0.0042
     24  CD2      -33.1040   -8.1650  -30.5680 C.ar   90  PHE90      -0.0042
     25  CE1      -35.1930   -8.3610  -32.3840 C.ar   90  PHE90      -0.0003
     26  CE2      -32.8850   -8.7400  -31.8170 C.ar   90  PHE90      -0.0003
     27  CZ       -33.9320   -8.8380  -32.7280 C.ar   90  PHE90      -0.0000
     28  N        -49.7500    8.2360  -32.5040 N.3   121  LEU121     -0.1245
     29  CA       -49.8720    6.8910  -33.0480 C.3   121  LEU121      0.1561
     30  C        -51.3180    6.4350  -32.9230 C.2   121  LEU121      0.2260
     31  O        -51.7570    5.5320  -33.6350 O.2   121  LEU121     -0.2867
     32  CB       -48.9580    5.9220  -32.2950 C.3   121  LEU121      0.0270
     33  CG       -48.9740    4.4740  -32.7910 C.3   121  LEU121      0.0019
     34  CD1      -48.5210    4.4230  -34.2420 C.3   121  LEU121      0.0001
     35  CD2      -48.0680    3.6240  -31.9190 C.3   121  LEU121      0.0001
     36  N        -55.7970    6.8030  -40.3880 N.3   128  TRP128     -0.1241
     37  CA       -55.5540    5.8170  -41.4310 C.3   128  TRP128      0.1605
     38  C        -56.8180    5.0210  -41.7300 C.2   128  TRP128      0.2264
     39  O        -56.9990    4.5330  -42.8460 O.2   128  TRP128     -0.2867
     40  CB       -54.4180    4.8740  -41.0230 C.3   128  TRP128      0.0550
     41  CG       -54.0710    3.8630  -42.0790 C.ar  128  TRP128      0.0003
     42  CD1      -54.6970    2.6710  -42.3150 C.ar  128  TRP128      0.0946
     43  CD2      -53.0340    3.9700  -43.0620 C.ar  128  TRP128      0.0152
     44  NE1      -54.1150    2.0310  -43.3820 N.ar  128  TRP128     -0.2442
     45  CE2      -53.0910    2.8060  -43.8600 C.ar  128  TRP128      0.0810
     46  CE3      -52.0610    4.9390  -43.3480 C.ar  128  TRP128      0.0012
     47  CZ2      -52.2110    2.5820  -44.9250 C.ar  128  TRP128      0.0191
     48  CZ3      -51.1860    4.7160  -44.4080 C.ar  128  TRP128      0.0001
     49  CH2      -51.2690    3.5460  -45.1820 C.ar  128  TRP128      0.0015
     50  N        -58.6200    6.9550  -44.1200 N.3   131  ARG131     -0.1245
     51  CA       -57.8630    6.8600  -45.3620 C.3   131  ARG131      0.1563
     52  C        -58.3440    5.6510  -46.1590 C.2   131  ARG131      0.2260
     53  O        -58.4260    5.6970  -47.3870 O.2   131  ARG131     -0.2867
     54  CB       -56.3710    6.7340  -45.0330 C.3   131  ARG131      0.0307
     55  CG       -55.4180    6.7050  -46.2220 C.3   131  ARG131      0.0489
     56  CD       -55.4030    5.3520  -46.9180 C.3   131  ARG131      0.2205
     57  NE       -54.1110    5.0690  -47.5360 N.pl3 131  ARG131     -0.0865
     58  CZ       -53.5230    5.8400  -48.4460 C.cat 131  ARG131      0.5346
     59  NH1      -54.1090    6.9570  -48.8560 N.pl3 131  ARG131      0.1354
     60  NH2      -52.3420    5.4960  -48.9440 N.pl3 131  ARG131      0.1354
     61  N        -59.4810   -3.1420  -30.0930 N.3   155  PHE155     -0.1227
     62  CA       -58.5610   -3.7700  -29.1560 C.3   155  PHE155      0.1736
     63  C        -57.3080   -2.9230  -28.9690 C.2   155  PHE155      0.2595
     64  O        -56.7150   -2.9110  -27.8910 O.2   155  PHE155     -0.2718
     65  CB       -58.1870   -5.1680  -29.6610 C.3   155  PHE155      0.0547
     66  CG       -57.1510   -5.8660  -28.8250 C.ar  155  PHE155     -0.0202
     67  CD1      -57.2860   -5.9470  -27.4430 C.ar  155  PHE155     -0.0042
     68  CD2      -56.0460   -6.4600  -29.4250 C.ar  155  PHE155     -0.0042
     69  CE1      -56.3330   -6.6120  -26.6690 C.ar  155  PHE155     -0.0003
     70  CE2      -55.0890   -7.1270  -28.6610 C.ar  155  PHE155     -0.0003
     71  CZ       -55.2350   -7.2020  -27.2800 C.ar  155  PHE155     -0.0000
     72  N        -56.9090   -2.2140  -30.0210 N.am  156  TYR156     -0.1976
     73  CA       -55.7320   -1.3550  -29.9540 C.3   156  TYR156      0.1639
     74  C        -55.9220   -0.2800  -28.8920 C.2   156  TYR156      0.2290
     75  O        -55.0270   -0.0220  -28.0870 O.2   156  TYR156     -0.2864
     76  CB       -55.4710   -0.6710  -31.2960 C.3   156  TYR156      0.0560
     77  CG       -54.5060    0.4910  -31.1880 C.ar  156  TYR156     -0.0198
     78  CD1      -53.1770    0.2880  -30.8200 C.ar  156  TYR156     -0.0009
     79  CD2      -54.9330    1.8000  -31.4180 C.ar  156  TYR156     -0.0009
     80  CE1      -52.2980    1.3580  -30.6830 C.ar  156  TYR156      0.0417
     81  CE2      -54.0620    2.8770  -31.2830 C.ar  156  TYR156      0.0417
     82  CZ       -52.7480    2.6490  -30.9150 C.ar  156  TYR156      0.1957
     83  OH       -51.8840    3.7110  -30.7830 O.3   156  TYR156     -0.2866
     84  N        -55.9450   -1.0270  -25.0680 N.3   159  LEU159     -0.1245
     85  CA       -54.6510   -1.0200  -24.4000 C.3   159  LEU159      0.1561
     86  C        -54.2250    0.3680  -23.9240 C.2   159  LEU159      0.2260
     87  O        -53.1160    0.5420  -23.4120 O.2   159  LEU159     -0.2867
     88  CB       -53.5910   -1.6010  -25.3390 C.3   159  LEU159      0.0270
     89  CG       -53.9830   -2.9160  -26.0270 C.3   159  LEU159      0.0019
     90  CD1      -52.8670   -3.3570  -26.9520 C.3   159  LEU159      0.0001
     91  CD2      -54.2700   -3.9900  -24.9910 C.3   159  LEU159      0.0001
     92  N        -49.2930   -0.4190  -22.5260 N.3   174  VAL174     -0.1245
     93  CA       -48.1660   -1.0910  -23.1600 C.3   174  VAL174      0.1561
     94  C        -47.0960   -0.0820  -23.5670 C.2   174  VAL174      0.2260
     95  O        -47.4080    1.0340  -23.9830 O.2   174  VAL174     -0.2867
     96  CB       -48.5980   -1.8900  -24.3820 C.3   174  VAL174      0.0252
     97  CG1      -47.4900   -2.8420  -24.7970 C.3   174  VAL174      0.0019
     98  CG2      -49.8780   -2.6510  -24.0850 C.3   174  VAL174      0.0019
     99  N        -39.9190   -3.6110  -28.4560 N.3   178  ILE178     -0.1231
    100  CA       -39.9950   -4.9620  -28.9980 C.3   178  ILE178      0.1692
    101  C        -40.0510   -6.0000  -27.8810 C.2   178  ILE178      0.2592
    102  O        -40.9750   -6.8060  -27.8170 O.2   178  ILE178     -0.2718
    103  CB       -38.7880   -5.2600  -29.9030 C.3   178  ILE178      0.0266
    104  CG1      -38.6920   -4.1970  -31.0000 C.3   178  ILE178      0.0019
    105  CG2      -38.9370   -6.6330  -30.5300 C.3   178  ILE178      0.0020
    106  CD1      -37.5360   -4.3980  -31.9510 C.3   178  ILE178      0.0001
    107  N        -39.0600   -5.9800  -27.0000 N.am  179  PHE179     -0.1976
    108  CA       -39.0270   -6.9240  -25.8940 C.3   179  PHE179      0.1639
    109  C        -39.8810   -6.4810  -24.7090 C.2   179  PHE179      0.2290
    110  O        -40.7870   -7.1980  -24.2890 O.2   179  PHE179     -0.2864
    111  CB       -37.5880   -7.1780  -25.4310 C.3   179  PHE179      0.0560
    112  CG       -36.9130   -8.3190  -26.1420 C.ar  179  PHE179     -0.0200
    113  CD1      -37.6370   -9.1700  -26.9710 C.ar  179  PHE179     -0.0042
    114  CD2      -35.5590   -8.5660  -25.9520 C.ar  179  PHE179     -0.0042
    115  CE1      -37.0240  -10.2480  -27.5970 C.ar  179  PHE179     -0.0003
    116  CE2      -34.9390   -9.6430  -26.5750 C.ar  179  PHE179     -0.0003
    117  CZ       -35.6740  -10.4840  -27.3980 C.ar  179  PHE179     -0.0000
    118  N        -42.4120   -4.8630  -24.3980 N.3   181  HIS181     -0.1226
    119  CA       -43.8520   -4.9600  -24.5920 C.3   181  HIS181      0.1752
    120  C        -44.2790   -6.4200  -24.4590 C.2   181  HIS181      0.2595
    121  O        -45.4460   -6.7170  -24.2000 O.2   181  HIS181     -0.2718
    122  CB       -44.2820   -4.3680  -25.9540 C.3   181  HIS181      0.0759
    123  CG       -44.5000   -5.3820  -27.0430 C.ar  181  HIS181      0.0818
    124  ND1      -43.5140   -6.2460  -27.4650 N.ar  181  HIS181     -0.2268
    125  CD2      -45.5810   -5.6390  -27.8230 C.ar  181  HIS181      0.1154
    126  CE1      -43.9750   -6.9900  -28.4560 C.ar  181  HIS181      0.1986
    127  NE2      -45.2270   -6.6440  -28.6920 N.ar  181  HIS181     -0.2212
    128  N        -43.3220   -7.3290  -24.6290 N.am  182  LEU182     -0.1980
    129  CA       -43.5970   -8.7550  -24.4820 C.3   182  LEU182      0.1596
    130  C        -43.7730   -8.9820  -22.9900 C.2   182  LEU182      0.2287
    131  O        -44.5550   -9.8270  -22.5600 O.2   182  LEU182     -0.2864
    132  CB       -42.4260   -9.6010  -24.9840 C.3   182  LEU182      0.0297
    133  CG       -42.1090   -9.5920  -26.4770 C.3   182  LEU182      0.0022
    134  CD1      -40.8710  -10.4330  -26.7250 C.3   182  LEU182      0.0001
    135  CD2      -43.2900  -10.1360  -27.2630 C.3   182  LEU182      0.0001
    136  N        -44.9050   -6.7400  -21.0030 N.3   184  TRP184     -0.1227
    137  CA       -46.1790   -6.1250  -20.6580 C.3   184  TRP184      0.1737
    138  C        -47.2400   -7.2150  -20.6220 C.2   184  TRP184      0.2596
    139  O        -47.8730   -7.4520  -19.5930 O.2   184  TRP184     -0.2718
    140  CB       -46.5690   -5.0780  -21.7020 C.3   184  TRP184      0.0564
    141  CG       -47.7550   -4.2680  -21.2930 C.ar  184  TRP184      0.0003
    142  CD1      -47.7470   -3.1090  -20.5710 C.ar  184  TRP184      0.0946
    143  CD2      -49.1300   -4.5870  -21.5260 C.ar  184  TRP184      0.0152
    144  NE1      -49.0340   -2.6850  -20.3400 N.ar  184  TRP184     -0.2442
    145  CE2      -49.9030   -3.5750  -20.9150 C.ar  184  TRP184      0.0810
    146  CE3      -49.7850   -5.6310  -22.1920 C.ar  184  TRP184      0.0012
    147  CZ2      -51.3010   -3.5770  -20.9490 C.ar  184  TRP184      0.0191
    148  CZ3      -51.1760   -5.6340  -22.2250 C.ar  184  TRP184      0.0001
    149  CH2      -51.9170   -4.6110  -21.6070 C.ar  184  TRP184      0.0015
    150  N        -47.4230   -7.8810  -21.7570 N.am  185  THR185     -0.1953
    151  CA       -48.3930   -8.9600  -21.8610 C.3   185  THR185      0.1897
    152  C        -48.0030  -10.0780  -20.8990 C.2   185  THR185      0.2313
    153  O        -48.8450  -10.8520  -20.4460 O.2   185  THR185     -0.2863
    154  CB       -48.4470   -9.5400  -23.2810 C.3   185  THR185      0.1794
    155  OG1      -49.2840  -10.7030  -23.2830 O.3   185  THR185     -0.2208
    156  CG2      -47.0580   -9.9190  -23.7570 C.3   185  THR185      0.0378
@<TRIPOS>BOND
     1     1     2    1
     2     4     3    2
     3     2     3    1
     4     2     5    1
     5     7     5    1
     6     5     6    1
     7     6     8    1
     8    60    58    1
     9    59    58    1
    10    58    57    2
    11    57    56    1
    12    53    52    2
    13    56    55    1
    14    16    14    1
    15    55    54    1
    16    52    51    1
    17    51    54    1
    18    51    50    1
    19    15    13    1
    20    49    47   ar
    21    49    48   ar
    22    47    45   ar
    23    14    13    1
    24    13    10    1
    25    48    46   ar
    26    45    44   ar
    27    45    43   ar
    28    44    42   ar
    29    46    43   ar
    30    10     9    1
    31    10    11    1
    32    43    41   ar
    33    39    38    2
    34    11    12    2
    35    42    41   ar
    36    41    40    1
    37    38    37    1
    38    37    40    1
    39    37    36    1
    40    34    33    1
    41    31    30    2
    42    29    30    1
    43    29    28    1
    44    29    32    1
    45    33    32    1
    46    33    35    1
    47    27    25   ar
    48    27    26   ar
    49    25    23   ar
    50   106   104    1
    51    26    24   ar
    52    79    81   ar
    53    79    77   ar
    54    76    77    1
    55    76    73    1
    56    81    82   ar
    57    77    78   ar
    58    23    22   ar
    59   104   103    1
    60    82    83    1
    61    82    80   ar
    62    78    80   ar
    63    24    22   ar
    64   105   103    1
    65    22    21    1
    66    61    62    1
    67    72    73    1
    68    72    63   am
    69    73    74    1
    70   103   100    1
    71    65    62    1
    72    65    66    1
    73    17    18    1
    74    68    66   ar
    75    68    70   ar
    76    62    63    1
    77   100    99    1
    78   100   101    1
    79    63    64    2
    80    18    21    1
    81    18    19    1
    82    74    75    2
    83    66    67   ar
    84   127   126   ar
    85   127   125   ar
    86    70    71   ar
    87   126   124   ar
    88   101   102    2
    89   101   107   am
    90   125   123   ar
    91   115   117   ar
    92   115   113   ar
    93    19    20    2
    94   124   123   ar
    95    67    69   ar
    96   117   116   ar
    97    71    69   ar
    98   135   133    1
    99   123   122    1
   100   107   108    1
   101   113   112   ar
   102    90    89    1
   103   134   133    1
   104   116   114   ar
   105   133   132    1
   106   112   114   ar
   107   112   111    1
   108    89    88    1
   109    89    91    1
   110   122   119    1
   111   108   111    1
   112   108   109    1
   113    88    85    1
   114    84    85    1
   115   132   129    1
   116    97    96    1
   117   109   110    2
   118   128   129    1
   119   128   120   am
   120   119   120    1
   121   119   118    1
   122   129   130    1
   123   120   121    2
   124    85    86    1
   125    96    98    1
   126    96    93    1
   127    95    94    2
   128    86    87    2
   129   156   154    1
   130    94    93    1
   131   155   154    1
   132   154   151    1
   133    93    92    1
   134   130   131    2
   135   148   146   ar
   136   148   149   ar
   137   146   143   ar
   138   151   150    1
   139   151   152    1
   140   150   138   am
   141   140   141    1
   142   140   137    1
   143   149   147   ar
   144   143   141   ar
   145   143   145   ar
   146   141   142   ar
   147   136   137    1
   148   147   145   ar
   149   145   144   ar
   150   152   153    2
   151   137   138    1
   152   138   139    2
   153   142   144   ar
