@<TRIPOS>MOLECULE
tmp/3wmrB00.pdb
 128 124 0 0 0
SMALL
GASTEIGER

@<TRIPOS>ATOM
      1  N          1.9970   85.2710   -3.6600 N.3    79  TRP79      -0.1227
      2  CA         1.0130   84.2020   -3.3700 C.3    79  TRP79       0.1737
      3  C          1.6850   82.8230   -3.3360 C.2    79  TRP79       0.2596
      4  O          1.8540   82.1750   -4.3530 O.2    79  TRP79      -0.2718
      5  CB        -0.1560   84.2670   -4.3540 C.3    79  TRP79       0.0564
      6  CG        -0.8190   85.6080   -4.3430 C.ar   79  TRP79       0.0003
      7  CD1       -0.7390   86.5680   -5.3070 C.ar   79  TRP79       0.0946
      8  CD2       -1.6480   86.1530   -3.3020 C.ar   79  TRP79       0.0152
      9  NE1       -1.4860   87.6710   -4.9440 N.ar   79  TRP79      -0.2442
     10  CE2       -2.0410   87.4470   -3.7140 C.ar   79  TRP79       0.0810
     11  CE3       -2.0990   85.6700   -2.0660 C.ar   79  TRP79       0.0012
     12  CZ2       -2.8630   88.2720   -2.9320 C.ar   79  TRP79       0.0191
     13  CZ3       -2.9110   86.4980   -1.2760 C.ar   79  TRP79       0.0001
     14  CH2       -3.3020   87.7750   -1.7270 C.ar   79  TRP79       0.0015
     15  N          2.0910   82.3990   -2.1470 N.am   80  THR80      -0.1939
     16  CA         2.8400   81.1710   -1.9880 C.3    80  THR80       0.2028
     17  C          2.1270   80.2620   -1.0120 C.2    80  THR80       0.2642
     18  O          1.3710   80.7310   -0.1740 O.2    80  THR80      -0.2714
     19  CB         4.2310   81.4610   -1.4050 C.3    80  THR80       0.1808
     20  OG1        4.1000   81.7620   -0.0180 O.3    80  THR80      -0.2208
     21  CG2        4.8540   82.6330   -2.1010 C.3    80  THR80       0.0379
     22  N          2.4330   78.9740   -1.0980 N.am   81  VAL81      -0.1963
     23  CA         1.9860   77.9810   -0.1290 C.3    81  VAL81       0.1727
     24  C          2.4110   78.3500    1.2960 C.2    81  VAL81       0.2616
     25  O          1.6130   78.2570    2.2270 O.2    81  VAL81      -0.2715
     26  CB         2.5340   76.5780   -0.4990 C.3    81  VAL81       0.0290
     27  CG1        2.1790   75.5550    0.5660 C.3    81  VAL81       0.0023
     28  CG2        1.9980   76.1320   -1.8670 C.3    81  VAL81       0.0023
     29  N          3.6590   78.7780    1.4730 N.am   82  GLN82      -0.1977
     30  CA         4.1370   79.2040    2.7940 C.3    82  GLN82       0.1601
     31  C          3.2420   80.3080    3.3990 C.2    82  GLN82       0.2287
     32  O          2.9480   80.2890    4.5900 O.2    82  GLN82      -0.2864
     33  CB         5.5850   79.6980    2.6970 C.3    82  GLN82       0.0394
     34  CG         6.2560   79.9940    4.0330 C.3    82  GLN82       0.0908
     35  CD         6.4980   78.7500    4.8560 C.2    82  GLN82       0.2608
     36  OE1        7.2300   77.8430    4.4430 O.2    82  GLN82      -0.2717
     37  NE2        5.9010   78.7040    6.0420 N.am   82  GLN82      -0.0878
     38  N          0.2340   78.6020    4.7690 N.3    85  GLU85      -0.1245
     39  CA         0.6650   77.8360    5.9490 C.3    85  GLU85       0.1567
     40  C          0.7640   78.7350    7.1790 C.2    85  GLU85       0.2260
     41  O          0.2730   78.3880    8.2480 O.2    85  GLU85      -0.2867
     42  CB         2.0340   77.1810    5.7280 C.3    85  GLU85       0.0388
     43  CG         2.0600   76.0490    4.7210 C.3    85  GLU85       0.1160
     44  CD         3.4540   75.4840    4.5140 C.2    85  GLU85       0.3649
     45  OE1        3.9590   74.8100    5.4270 O.co2  85  GLU85      -0.2457
     46  OE2        4.0300   75.7000    3.4340 O.co2  85  GLU85      -0.2457
     47  N          0.3350   69.4030    3.8260 N.3   115  VAL115     -0.1245
     48  CA         1.6330   70.0160    4.1490 C.3   115  VAL115      0.1561
     49  C          1.6990   70.3820    5.6340 C.2   115  VAL115      0.2260
     50  O          2.7060   70.1300    6.2870 O.2   115  VAL115     -0.2867
     51  CB         1.9180   71.2550    3.2670 C.3   115  VAL115      0.0252
     52  CG1        3.0940   72.0490    3.8020 C.3   115  VAL115      0.0019
     53  CG2        2.1900   70.8250    1.8330 C.3   115  VAL115      0.0019
     54  N          4.1250   68.3740    9.1110 N.3   119  ARG119     -0.1245
     55  CA         5.0290   68.9470   10.1220 C.3   119  ARG119      0.1563
     56  C          4.7960   68.3100   11.4860 C.2   119  ARG119      0.2260
     57  O          5.5180   68.6100   12.4310 O.2   119  ARG119     -0.2867
     58  CB         4.8360   70.4550   10.3150 C.3   119  ARG119      0.0307
     59  CG         4.7210   71.3000    9.0730 C.3   119  ARG119      0.0489
     60  CD         5.8760   71.0850    8.1260 C.3   119  ARG119      0.2205
     61  NE         5.6640   71.8910    6.9240 N.pl3 119  ARG119     -0.0865
     62  CZ         6.5210   72.7770    6.4230 C.cat 119  ARG119      0.5346
     63  NH1        7.7040   73.0050    7.0010 N.pl3 119  ARG119      0.1354
     64  NH2        6.1980   73.4320    5.3150 N.pl3 119  ARG119      0.1354
     65  N         -2.6110   81.5380   -8.8220 N.3   211  MET211     -0.1245
     66  CA        -2.1290   80.2590   -8.3200 C.3   211  MET211      0.1570
     67  C         -2.6560   79.0510   -9.0770 C.2   211  MET211      0.2261
     68  O         -1.9310   78.0760   -9.2470 O.2   211  MET211     -0.2867
     69  CB        -2.4090   80.1270   -6.8140 C.3   211  MET211      0.0387
     70  CG        -1.6850   81.1610   -5.9590 C.3   211  MET211      0.0595
     71  SD        -1.7630   80.8550   -4.1700 S.3   211  MET211     -0.1393
     72  CE        -0.3800   79.7680   -3.8430 C.3   211  MET211      0.0692
     73  N          0.4940   79.2230  -10.8380 N.3   222  THR222     -0.1203
     74  CA         1.8110   78.9080  -10.2690 C.3   222  THR222      0.1994
     75  C          1.8700   77.5510   -9.5550 C.2   222  THR222      0.2617
     76  O          2.9490   77.0210   -9.3560 O.2   222  THR222     -0.2717
     77  CB         2.3410   80.0480   -9.3720 C.3   222  THR222      0.1784
     78  OG1        1.4900   80.2360   -8.2420 O.3   222  THR222     -0.2211
     79  CG2        2.4250   81.3470  -10.1670 C.3   222  THR222      0.0376
     80  N          0.7220   76.9400   -9.2400 N.am  223  LEU223     -0.1979
     81  CA         0.7410   75.5840   -8.6620 C.3   223  LEU223      0.1596
     82  C          0.7170   74.4480   -9.6930 C.2   223  LEU223      0.2287
     83  O          0.5310   73.2760   -9.3420 O.2   223  LEU223     -0.2864
     84  CB        -0.4450   75.4060   -7.7120 C.3   223  LEU223      0.0297
     85  CG        -0.5570   76.3220   -6.4930 C.3   223  LEU223      0.0022
     86  CD1       -1.8140   75.9320   -5.7220 C.3   223  LEU223      0.0001
     87  CD2        0.6690   76.2170   -5.6050 C.3   223  LEU223      0.0001
     88  N          2.7780   71.4660   -8.9340 N.3   226  TRP226     -0.1227
     89  CA         2.9200   71.2290   -7.5170 C.3   226  TRP226      0.1737
     90  C          2.4100   69.8430   -7.0820 C.2   226  TRP226      0.2596
     91  O          1.3100   69.4110   -7.4780 O.2   226  TRP226     -0.2718
     92  CB         2.1930   72.3330   -6.7520 C.3   226  TRP226      0.0564
     93  CG         2.5040   72.3190   -5.3100 C.ar  226  TRP226      0.0003
     94  CD1        3.7490   72.2230   -4.7330 C.ar  226  TRP226      0.0946
     95  CD2        1.5700   72.3870   -4.2450 C.ar  226  TRP226      0.0152
     96  NE1        3.6300   72.2260   -3.3670 N.ar  226  TRP226     -0.2442
     97  CE2        2.3010   72.3220   -3.0420 C.ar  226  TRP226      0.0810
     98  CE3        0.1770   72.4890   -4.1870 C.ar  226  TRP226      0.0012
     99  CZ2        1.6900   72.3720   -1.8020 C.ar  226  TRP226      0.0191
    100  CZ3       -0.4340   72.5350   -2.9370 C.ar  226  TRP226      0.0001
    101  CH2        0.3210   72.4770   -1.7650 C.ar  226  TRP226      0.0015
    102  N          3.2110   69.1670   -6.2600 N.am  227  SER227     -0.1938
    103  CA         2.8470   67.8920   -5.6530 C.3   227  SER227      0.2055
    104  C          3.1470   67.8500   -4.1480 C.2   227  SER227      0.2642
    105  O          4.2030   68.3350   -3.6940 O.2   227  SER227     -0.2714
    106  CB         3.5910   66.7550   -6.3570 C.3   227  SER227      0.2130
    107  OG         3.3650   65.5200   -5.6990 O.3   227  SER227     -0.2179
    108  N          2.2440   67.2620   -3.3650 N.am  228  VAL228     -0.1977
    109  CA         2.5100   67.1090   -1.9260 C.3   228  VAL228      0.1596
    110  C          2.9360   65.6940   -1.5470 C.2   228  VAL228      0.2287
    111  O          3.1210   65.4100   -0.3660 O.2   228  VAL228     -0.2864
    112  CB         1.3370   67.5550   -1.0240 C.3   228  VAL228      0.0276
    113  CG1        1.0220   69.0250   -1.2380 C.3   228  VAL228      0.0022
    114  CG2        0.0970   66.6900   -1.2450 C.3   228  VAL228      0.0022
    115  N          5.6730   64.0900   -1.5490 N.3   230  ASP230     -0.1225
    116  CA         6.9090   64.0140   -0.7570 C.3   230  ASP230      0.1805
    117  C          6.6390   63.9480    0.7520 C.2   230  ASP230      0.2598
    118  O          7.3760   63.2940    1.4900 O.2   230  ASP230     -0.2718
    119  CB         7.8150   65.2170   -1.0730 C.3   230  ASP230      0.1424
    120  CG         7.1550   66.5770   -0.7370 C.2   230  ASP230      0.3668
    121  OD1        5.8980   66.6960   -0.7710 O.co2 230  ASP230     -0.2456
    122  OD2        7.8990   67.5360   -0.4510 O.co2 230  ASP230     -0.2456
    123  N          5.5860   64.6230    1.2170 N.am  231  CYS231     -0.1970
    124  CA         5.3860   64.7670    2.6490 C.3   231  CYS231      0.1712
    125  C          4.3430   63.8260    3.2490 C.2   231  CYS231      0.2296
    126  O          4.2250   63.7540    4.4740 O.2   231  CYS231     -0.2864
    127  CB         5.0620   66.2190    2.9810 C.3   231  CYS231      0.0983
    128  SG         3.3710   66.7020    2.5830 S.3   231  CYS231     -0.0798
@<TRIPOS>BOND
     1    73    74    1
     2    74    75    1
     3    74    77    1
     4    79    77    1
     5    82    83    2
     6    82    81    1
     7    75    76    2
     8    75    80   am
     9    77    78    1
    10    68    67    2
    11    80    81    1
    12    67    66    1
    13    88    89    1
    14    65    66    1
    15    81    84    1
    16    66    69    1
    17    84    85    1
    18    89    90    1
    19    89    92    1
    20    91    90    2
    21    90   102   am
    22    69    70    1
    23    92    93    1
    24    85    86    1
    25    85    87    1
    26   106   107    1
    27   106   103    1
    28   102   103    1
    29    70    71    1
    30   103   104    1
    31    93    94   ar
    32    93    95   ar
    33     7     9   ar
    34     7     6   ar
    35     9    10   ar
    36    94    96   ar
    37     5     6    1
    38     5     2    1
    39     4     3    2
    40     6     8   ar
    41    95    98   ar
    42    95    97   ar
    43    98   100   ar
    44    71    72    1
    45   104   105    2
    46   104   108   am
    47    10     8   ar
    48    10    12   ar
    49     1     2    1
    50     2     3    1
    51    96    97   ar
    52   108   109    1
    53     3    15   am
    54     8    11   ar
    55    97    99   ar
    56   100   101   ar
    57    12    14   ar
    58    15    16    1
    59    21    19    1
    60    11    13   ar
    61    16    19    1
    62    16    17    1
    63   109   110    1
    64   109   112    1
    65    28    26    1
    66    99   101   ar
    67    14    13   ar
    68   115   116    1
    69   110   111    2
    70    19    20    1
    71   114   112    1
    72   113   112    1
    73    22    17   am
    74    22    23    1
    75   119   116    1
    76   119   120    1
    77    17    18    2
    78   121   120   ar
    79   116   117    1
    80   120   122   ar
    81    26    23    1
    82    26    27    1
    83    23    24    1
    84   117   123   am
    85   117   118    2
    86   123   124    1
    87    24    29   am
    88    24    25    2
    89    29    30    1
    90    53    51    1
    91   128   127    1
    92   124   127    1
    93   124   125    1
    94    33    30    1
    95    33    34    1
    96    30    31    1
    97   125   126    2
    98    51    52    1
    99    51    48    1
   100    31    32    2
   101    46    44   ar
   102    47    48    1
   103    34    35    1
   104    48    49    1
   105    36    35    2
   106    44    43    1
   107    44    45   ar
   108    43    42    1
   109    38    39    1
   110    35    37   am
   111    64    62    1
   112    49    50    2
   113    42    39    1
   114    39    40    1
   115    62    61    2
   116    62    63    1
   117    61    60    1
   118    40    41    2
   119    60    59    1
   120    59    58    1
   121    54    55    1
   122    55    58    1
   123    55    56    1
   124    56    57    2
