@<TRIPOS>MOLECULE
tmp/3wmtA00.pdb
 87 85 0 0 0
SMALL
GASTEIGER

@<TRIPOS>ATOM
      1  N         28.6580   41.4760   43.6000 N.3    21  HIS21      -0.1241
      2  CA        28.6680   40.4870   42.5540 C.3    21  HIS21       0.1621
      3  C         27.4800   40.6080   41.6090 C.2    21  HIS21       0.2264
      4  O         27.5760   40.4690   40.3710 O.2    21  HIS21      -0.2867
      5  CB        28.6500   39.0880   43.1460 C.3    21  HIS21       0.0745
      6  CG        29.6490   38.8500   44.2400 C.ar   21  HIS21       0.0817
      7  ND1       30.9900   39.1280   44.0670 N.ar   21  HIS21      -0.2268
      8  CD2       29.5320   38.2570   45.4820 C.ar   21  HIS21       0.1154
      9  CE1       31.6410   38.8130   45.1750 C.ar   21  HIS21       0.1986
     10  NE2       30.7800   38.2360   46.0260 N.ar   21  HIS21      -0.2212
     11  N         25.1900   31.0160   44.2720 N.3    36  ASP36      -0.1239
     12  CA        26.2140   31.4260   45.2170 C.3    36  ASP36       0.1674
     13  C         26.1680   30.5950   46.5240 C.2    36  ASP36       0.2266
     14  O         27.0130   30.8850   47.4450 O.2    36  ASP36      -0.2867
     15  CB        26.1630   32.8760   45.6080 C.3    36  ASP36       0.1410
     16  CG        26.3220   33.8090   44.4370 C.2    36  ASP36       0.3668
     17  OD1       27.0760   33.4760   43.5240 O.co2  36  ASP36      -0.2456
     18  OD2       25.7070   34.8980   44.3810 O.co2  36  ASP36      -0.2456
     19  N         30.6220   40.4700   48.3600 N.3    58  ASN58      -0.1240
     20  CA        31.6670   40.1470   49.3760 C.3    58  ASN58       0.1653
     21  C         32.0710   41.4030   50.0400 C.2    58  ASN58       0.2266
     22  O         31.9790   42.4790   49.4350 O.2    58  ASN58      -0.2867
     23  CB        32.8620   39.4450   48.8200 C.3    58  ASN58       0.1155
     24  CG        32.6510   37.9270   48.8460 C.2    58  ASN58       0.2627
     25  OD1       31.5510   37.4400   48.5030 O.2    58  ASN58      -0.2716
     26  ND2       33.6870   37.1570   49.2230 N.am   58  ASN58      -0.0877
     27  N         37.1790   37.7480   54.8330 N.3    66  GLN66      -0.1231
     28  CA        36.0890   38.3870   54.1110 C.3    66  GLN66       0.1698
     29  C         34.8370   37.5950   54.3260 C.2    66  GLN66       0.2592
     30  O         34.8830   36.3630   54.5210 O.2    66  GLN66      -0.2718
     31  CB        36.4160   38.5120   52.6110 C.3    66  GLN66       0.0381
     32  CG        36.5380   37.2540   51.8830 C.3    66  GLN66       0.0905
     33  CD        36.9390   37.4870   50.4450 C.2    66  GLN66       0.2608
     34  OE1       36.2340   38.2130   49.7360 O.2    66  GLN66      -0.2717
     35  NE2       37.9230   36.7770   49.9840 N.am   66  GLN66      -0.0878
     36  N         33.6980   38.2700   54.0890 N.am   67  ILE67      -0.1966
     37  CA        32.4470   37.6070   54.1080 C.3    67  ILE67       0.1727
     38  C         31.7920   37.6130   52.7350 C.2    67  ILE67       0.2616
     39  O         32.0150   38.5070   51.9050 O.2    67  ILE67      -0.2715
     40  CB        31.4730   38.2330   55.1210 C.3    67  ILE67       0.0290
     41  CG1       31.0930   39.6830   54.7630 C.3    67  ILE67       0.0022
     42  CG2       32.0160   38.2160   56.5620 C.3    67  ILE67       0.0023
     43  CD1       29.9600   40.2360   55.6170 C.3    67  ILE67       0.0001
     44  N         30.8790   36.6610   52.5480 N.am   68  PHE68      -0.1974
     45  CA        29.8750   36.7130   51.4840 C.3    68  PHE68       0.1639
     46  C         28.5800   37.0650   52.1820 C.2    68  PHE68       0.2290
     47  O         28.2720   36.4930   53.2380 O.2    68  PHE68      -0.2864
     48  CB        29.7250   35.3550   50.7800 C.3    68  PHE68       0.0560
     49  CG        28.5370   35.2980   49.8070 C.ar   68  PHE68      -0.0200
     50  CD1       28.6610   35.8090   48.5210 C.ar   68  PHE68      -0.0042
     51  CD2       27.3370   34.8100   50.1830 C.ar   68  PHE68      -0.0042
     52  CE1       27.5780   35.8460   47.6680 C.ar   68  PHE68      -0.0003
     53  CE2       26.2530   34.8720   49.3470 C.ar   68  PHE68      -0.0003
     54  CZ        26.3500   35.3930   48.1610 C.ar   68  PHE68      -0.0000
     55  N         27.7000   34.5520   55.2540 N.3   112  ASN112     -0.1240
     56  CA        28.2930   33.2170   55.4940 C.3   112  ASN112      0.1653
     57  C         29.1510   33.1340   56.7860 C.2   112  ASN112      0.2266
     58  O         29.7240   32.1200   57.0020 O.2   112  ASN112     -0.2867
     59  CB        29.1250   32.7850   54.2650 C.3   112  ASN112      0.1155
     60  CG        30.4130   33.5570   54.0690 C.2   112  ASN112      0.2627
     61  OD1       30.6550   34.5470   54.7520 O.2   112  ASN112     -0.2716
     62  ND2       31.2450   33.0900   53.1350 N.am  112  ASN112     -0.0877
     63  N         31.9340   34.5190   57.4570 N.3   114  GLY114     -0.1210
     64  CA        33.3270   34.5430   57.1320 C.3   114  GLY114      0.1956
     65  C         34.0140   33.3910   56.5040 C.2   114  GLY114      0.2612
     66  O         35.2620   33.4590   56.2390 O.2   114  GLY114     -0.2717
     67  N         33.2910   32.3200   56.1580 N.am  115  HIS115     -0.1961
     68  CA        33.8520   31.2470   55.4000 C.3   115  HIS115      0.1787
     69  C         32.7010   30.4750   54.8200 C.2   115  HIS115      0.2620
     70  O         31.5330   30.7500   55.1860 O.2   115  HIS115     -0.2715
     71  CB        34.7320   30.3350   56.3080 C.3   115  HIS115      0.0785
     72  CG        33.9680   29.6750   57.4430 C.ar  115  HIS115      0.0821
     73  ND1       33.8950   30.2460   58.6980 N.ar  115  HIS115     -0.2267
     74  CD2       33.3340   28.4800   57.5510 C.ar  115  HIS115      0.1154
     75  CE1       33.2120   29.4360   59.5050 C.ar  115  HIS115      0.1986
     76  NE2       32.8240   28.3850   58.8090 N.ar  115  HIS115     -0.2212
     77  N         32.9610   29.4610   54.0430 N.am  116  PHE116     -0.1974
     78  CA        31.9010   28.5680   53.5490 C.3   116  PHE116      0.1639
     79  C         32.0580   27.1670   54.1460 C.2   116  PHE116      0.2290
     80  O         33.1290   26.5610   54.1260 O.2   116  PHE116     -0.2864
     81  CB        31.8520   28.4920   52.0490 C.3   116  PHE116      0.0560
     82  CG        31.2140   29.7000   51.3760 C.ar  116  PHE116     -0.0200
     83  CD1       29.8590   29.9560   51.5900 C.ar  116  PHE116     -0.0042
     84  CD2       31.8700   30.4700   50.5050 C.ar  116  PHE116     -0.0042
     85  CE1       29.2450   30.9960   50.9340 C.ar  116  PHE116     -0.0003
     86  CE2       31.2460   31.5370   49.8210 C.ar  116  PHE116     -0.0003
     87  CZ        29.9280   31.7840   50.0310 C.ar  116  PHE116     -0.0000
@<TRIPOS>BOND
     1     4     3    2
     2     3     2    1
     3     2     5    1
     4     2     1    1
     5     5     6    1
     6    17    16   ar
     7     7     6   ar
     8     7     9   ar
     9     6     8   ar
    10    11    12    1
    11    18    16   ar
    12    16    15    1
    13     9    10   ar
    14    12    15    1
    15    12    13    1
    16     8    10   ar
    17    13    14    2
    18    52    54   ar
    19    52    50   ar
    20    54    53   ar
    21    19    20    1
    22    25    24    2
    23    50    49   ar
    24    23    24    1
    25    23    20    1
    26    24    26   am
    27    53    51   ar
    28    20    21    1
    29    22    21    2
    30    34    33    2
    31    49    51   ar
    32    49    48    1
    33    86    87   ar
    34    86    84   ar
    35    35    33   am
    36    87    85   ar
    37    33    32    1
    38    84    82   ar
    39    48    45    1
    40    85    83   ar
    41    82    83   ar
    42    82    81    1
    43    45    46    1
    44    45    44    1
    45    32    31    1
    46    39    38    2
    47    81    78    1
    48    46    47    2
    49    44    38   am
    50    31    28    1
    51    38    37    1
    52    62    60   am
    53    78    77    1
    54    78    79    1
    55    77    69   am
    56    60    59    1
    57    60    61    2
    58    36    37    1
    59    36    29   am
    60    37    40    1
    61    28    29    1
    62    28    27    1
    63    80    79    2
    64    59    56    1
    65    29    30    2
    66    41    40    1
    67    41    43    1
    68    69    70    2
    69    69    68    1
    70    40    42    1
    71    55    56    1
    72    68    67    1
    73    68    71    1
    74    56    57    1
    75    67    65   am
    76    66    65    2
    77    71    72    1
    78    65    64    1
    79    57    58    2
    80    64    63    1
    81    72    74   ar
    82    72    73   ar
    83    74    76   ar
    84    73    75   ar
    85    76    75   ar
