@<TRIPOS>MOLECULE
tmp/3wmtA01.pdb
 98 92 0 0 0
SMALL
GASTEIGER

@<TRIPOS>ATOM
      1  N         28.2050   30.9170   76.2110 N.3   194  ASN194     -0.1240
      2  CA        29.1780   30.1230   76.9910 C.3   194  ASN194      0.1653
      3  C         29.8930   29.2420   76.0170 C.2   194  ASN194      0.2266
      4  O         30.0500   28.0100   76.2210 O.2   194  ASN194     -0.2867
      5  CB        28.5150   29.3280   78.1510 C.3   194  ASN194      0.1155
      6  CG        29.4930   28.7920   79.1490 C.2   194  ASN194      0.2627
      7  OD1       30.6990   29.1540   79.0890 O.2   194  ASN194     -0.2716
      8  ND2       29.0530   27.9490   80.0250 N.am  194  ASN194     -0.0877
      9  N         32.9860   26.7450   76.7390 N.3   197  ASN197     -0.1240
     10  CA        32.6120   25.6250   77.6150 C.3   197  ASN197      0.1653
     11  C         31.5390   24.6960   77.0220 C.2   197  ASN197      0.2266
     12  O         31.5710   23.4730   77.2100 O.2   197  ASN197     -0.2867
     13  CB        32.1630   26.1340   78.9600 C.3   197  ASN197      0.1155
     14  CG        33.2660   26.6950   79.7720 C.2   197  ASN197      0.2627
     15  OD1       34.3000   26.2160   79.6520 O.2   197  ASN197     -0.2716
     16  ND2       33.0660   27.5300   80.6280 N.am  197  ASN197     -0.0877
     17  N         35.5630   22.3520   86.3480 N.3   289  GLY289     -0.1210
     18  CA        36.9600   22.3800   85.8980 C.3   289  GLY289      0.1956
     19  C         38.0000   22.4450   86.9680 C.2   289  GLY289      0.2608
     20  O         37.7700   22.2070   88.1690 O.2   289  GLY289     -0.2717
     21  N         39.1600   22.9620   86.5420 N.am  290  LEU290     -0.2032
     22  CA        40.2130   23.2320   87.6190 C.3   290  LEU290      0.1282
     23  C         39.7550   24.2460   88.6400 C.3   290  LEU290      0.2036
     24  O         38.9490   25.2290   88.3440 O.3   290  LEU290     -0.2185
     25  CB        41.4510   23.8330   86.8640 C.3   290  LEU290      0.0244
     26  CG        42.0150   22.9800   85.7550 C.3   290  LEU290      0.0018
     27  CD1       43.3210   23.7240   85.2280 C.3   290  LEU290      0.0001
     28  CD2       42.3940   21.6070   86.2350 C.3   290  LEU290      0.0001
     29  N         35.6670   25.0420   89.4130 N.3   293  SER293     -0.1202
     30  CA        34.8120   26.0740   88.8660 C.3   293  SER293      0.2020
     31  C         33.7760   25.4490   87.8690 C.2   293  SER293      0.2619
     32  O         34.0760   24.5060   87.1760 O.2   293  SER293     -0.2717
     33  CB        35.6480   27.0880   88.0870 C.3   293  SER293      0.2103
     34  OG        36.5680   26.4050   87.2500 O.3   293  SER293     -0.2182
     35  N         32.5710   25.9490   87.9840 N.am  294  PHE294     -0.1961
     36  CA        31.5300   25.5320   87.0190 C.3   294  PHE294      0.1771
     37  C         31.9500   25.8180   85.5870 C.2   294  PHE294      0.2619
     38  O         32.3550   26.9000   85.2750 O.2   294  PHE294     -0.2715
     39  CB        30.2760   26.3580   87.3310 C.3   294  PHE294      0.0574
     40  CG        29.0360   25.9390   86.4900 C.ar  294  PHE294     -0.0200
     41  CD1       28.2030   24.9660   86.9100 C.ar  294  PHE294     -0.0042
     42  CD2       28.7770   26.6100   85.3260 C.ar  294  PHE294     -0.0042
     43  CE1       27.0200   24.6370   86.1830 C.ar  294  PHE294     -0.0003
     44  CE2       27.5840   26.2850   84.5640 C.ar  294  PHE294     -0.0003
     45  CZ        26.7680   25.2950   85.0130 C.ar  294  PHE294     -0.0000
     46  N         31.7680   24.8300   84.7070 N.am  295  LEU295     -0.1977
     47  CA        32.1110   24.9250   83.2940 C.3   295  LEU295      0.1596
     48  C         30.8040   24.9320   82.4310 C.2   295  LEU295      0.2287
     49  O         30.5810   25.8410   81.7220 O.2   295  LEU295     -0.2864
     50  CB        32.9560   23.7670   82.8910 C.3   295  LEU295      0.0297
     51  CG        34.3210   24.0010   82.3740 C.3   295  LEU295      0.0022
     52  CD1       34.8530   24.9510   83.4580 C.3   295  LEU295      0.0001
     53  CD2       35.3230   22.9060   82.2270 C.3   295  LEU295      0.0001
     54  N         39.8430   18.5550   81.4670 N.3   341  VAL341     -0.1245
     55  CA        39.5380   19.8830   82.0080 C.3   341  VAL341      0.1561
     56  C         40.7390   20.8280   81.9390 C.2   341  VAL341      0.2260
     57  O         40.5300   22.0430   81.8920 O.2   341  VAL341     -0.2867
     58  CB        38.9570   19.8850   83.4470 C.3   341  VAL341      0.0252
     59  CG1       37.6270   19.1860   83.4250 C.3   341  VAL341      0.0019
     60  CG2       39.8550   19.2000   84.4210 C.3   341  VAL341      0.0019
     61  N         40.3390   22.4160   78.7130 N.3   344  ALA344     -0.1231
     62  CA        39.2690   23.3890   78.7390 C.3   344  ALA344      0.1694
     63  C         39.7130   24.6790   79.4100 C.2   344  ALA344      0.2591
     64  O         39.2750   25.7820   79.0590 O.2   344  ALA344     -0.2718
     65  CB        38.1120   22.7700   79.4640 C.3   344  ALA344      0.0304
     66  N         40.5680   24.6150   80.4020 N.am  345  ALA345     -0.1980
     67  CA        41.1000   25.7960   81.0870 C.3   345  ALA345      0.1597
     68  C         41.9320   26.6570   80.0830 C.2   345  ALA345      0.2287
     69  O         41.8350   27.8630   80.0740 O.2   345  ALA345     -0.2864
     70  CB        41.9700   25.4640   82.2970 C.3   345  ALA345      0.0319
     71  N         39.4790   28.3230   77.7180 N.3   348  ASN348     -0.1240
     72  CA        38.7420   29.4070   78.3640 C.3   348  ASN348      0.1653
     73  C         39.5470   30.6670   78.5310 C.2   348  ASN348      0.2266
     74  O         39.0600   31.7800   78.3460 O.2   348  ASN348     -0.2867
     75  CB        38.1720   28.9730   79.7190 C.3   348  ASN348      0.1155
     76  CG        37.2510   30.0030   80.3250 C.2   348  ASN348      0.2627
     77  OD1       36.1670   30.1990   79.8040 O.2   348  ASN348     -0.2716
     78  ND2       37.6390   30.6450   81.3900 N.am  348  ASN348     -0.0877
     79  N         33.0470   33.4980   74.0630 N.3   356  SER356     -0.1217
     80  CA        32.2340   33.0430   75.1990 C.3   356  SER356      0.1889
     81  C         30.8670   33.6910   75.2470 C.2   356  SER356      0.2288
     82  O         29.9040   32.9830   75.5410 O.2   356  SER356     -0.2866
     83  CB        33.0130   33.3320   76.4850 C.3   356  SER356      0.2089
     84  OG        33.2980   34.6880   76.6460 O.3   356  SER356     -0.2183
     85  N         29.2510   35.7940   77.2570 N.3   358  TRP358     -0.1241
     86  CA        28.6560   35.5460   78.5810 C.3   358  TRP358      0.1605
     87  C         28.5270   36.8080   79.3550 C.2   358  TRP358      0.2264
     88  O         28.2870   36.7590   80.5290 O.2   358  TRP358     -0.2867
     89  CB        29.4930   34.4430   79.3170 C.3   358  TRP358      0.0550
     90  CG        28.7970   33.8620   80.4630 C.ar  358  TRP358      0.0003
     91  CD1       29.1200   34.0170   81.7470 C.ar  358  TRP358      0.0946
     92  CD2       27.7290   32.9420   80.4210 C.ar  358  TRP358      0.0152
     93  NE1       28.2580   33.3510   82.5820 N.ar  358  TRP358     -0.2442
     94  CE2       27.3960   32.6610   81.7710 C.ar  358  TRP358      0.0810
     95  CE3       26.9640   32.3670   79.3860 C.ar  358  TRP358      0.0012
     96  CZ2       26.3420   31.8000   82.0630 C.ar  358  TRP358      0.0191
     97  CZ3       25.9480   31.4970   79.7100 C.ar  358  TRP358      0.0001
     98  CH2       25.6630   31.2070   81.0150 C.ar  358  TRP358      0.0015
@<TRIPOS>BOND
     1    79    80    1
     2    80    81    1
     3    80    83    1
     4    81    82    2
     5     3     4    2
     6     3     2    1
     7     1     2    1
     8    83    84    1
     9     9    10    1
    10     2     5    1
    11    11    12    2
    12    11    10    1
    13    85    86    1
    14    10    13    1
    15    71    72    1
    16     5     6    1
    17    74    73    2
    18    72    73    1
    19    72    75    1
    20    86    89    1
    21    86    87    1
    22    61    62    1
    23    62    63    1
    24    62    65    1
    25    13    14    1
    26    64    63    2
    27     7     6    2
    28     6     8   am
    29    89    90    1
    30    87    88    2
    31    95    97   ar
    32    95    92   ar
    33    63    66   am
    34    15    14    2
    35    97    98   ar
    36    75    76    1
    37    14    16   am
    38    77    76    2
    39    69    68    2
    40    68    67    1
    41    76    78   am
    42    66    67    1
    43    92    90   ar
    44    92    94   ar
    45    90    91   ar
    46    98    96   ar
    47    67    70    1
    48    54    55    1
    49    49    48    2
    50    91    93   ar
    51    94    96   ar
    52    94    93   ar
    53    57    56    2
    54    56    55    1
    55    55    58    1
    56    53    51    1
    57    51    50    1
    58    51    52    1
    59    48    47    1
    60    50    47    1
    61    47    46    1
    62    59    58    1
    63    58    60    1
    64    44    45   ar
    65    44    42   ar
    66    46    37   am
    67    45    43   ar
    68    27    26    1
    69    38    37    2
    70    42    40   ar
    71    37    36    1
    72    26    28    1
    73    26    25    1
    74    18    17    1
    75    18    19    1
    76    43    41   ar
    77    40    41   ar
    78    40    39    1
    79    21    19   am
    80    21    22    1
    81    25    22    1
    82    19    20    2
    83    36    39    1
    84    36    35    1
    85    32    31    2
    86    34    33    1
    87    22    23    1
    88    31    35   am
    89    31    30    1
    90    33    30    1
    91    24    23    1
    92    30    29    1
