@<TRIPOS>MOLECULE
tmp/3wmvA01.pdb
 89 86 0 0 0
SMALL
GASTEIGER

@<TRIPOS>ATOM
      1  N         -7.0500    2.5650   26.7390 N.3    16  HIS16      -0.1227
      2  CA        -8.0920    3.2800   27.3990 C.3    16  HIS16       0.1737
      3  C         -7.8340    3.3290   28.9050 C.2    16  HIS16       0.2438
      4  O         -7.3090    2.3650   29.4500 O.2    16  HIS16      -0.2733
      5  CB        -9.4410    2.5410   27.3170 C.3    16  HIS16       0.0758
      6  CG       -10.1410    2.5790   25.9800 C.ar   16  HIS16       0.0818
      7  ND1      -11.4560    3.0130   25.9070 N.ar   16  HIS16      -0.2268
      8  CD2       -9.7280    2.1960   24.7380 C.ar   16  HIS16       0.1154
      9  CE1      -11.8120    2.8410   24.6480 C.ar   16  HIS16       0.1986
     10  NE2      -10.7980    2.3550   23.9140 N.ar   16  HIS16      -0.2212
     11  N         -8.3100    4.3660   29.6140 N.am   17  PRO17      -0.2718
     12  CA        -8.4680    4.1630   31.1120 C.3    17  PRO17       0.1535
     13  C         -9.5540    3.1270   31.3240 C.2    17  PRO17       0.2598
     14  O        -10.6250    3.2460   30.6630 O.2    17  PRO17      -0.2715
     15  CB        -8.8770    5.5670   31.5440 C.3    17  PRO17       0.0310
     16  CG        -9.6560    6.1320   30.3480 C.3    17  PRO17       0.0237
     17  CD        -8.9810    5.5620   29.1270 C.3    17  PRO17       0.0939
     18  N         -9.3700    2.2160   32.2600 N.am   18  LYS18      -0.1964
     19  CA       -10.4290    1.2810   32.6020 C.3    18  LYS18       0.1728
     20  C        -11.6530    2.0240   33.0640 C.2    18  LYS18       0.2617
     21  O        -11.5860    2.8790   33.9830 O.2    18  LYS18      -0.2715
     22  CB        -9.9510    0.3020   33.6690 C.3    18  LYS18       0.0311
     23  CG       -10.9580   -0.7650   33.9770 C.3    18  LYS18       0.0038
     24  CD       -10.4840   -1.8730   34.7970 C.3    18  LYS18       0.0206
     25  CE       -11.6110   -2.9320   34.9270 C.3    18  LYS18       0.1093
     26  NZ       -11.7180   -3.9450   33.7770 N.3    18  LYS18      -0.1314
     27  N        -12.7980    1.7910   32.4260 N.am   19  GLY19      -0.1940
     28  CA       -14.0130    2.4980   32.6950 C.3    19  GLY19       0.2014
     29  C        -14.2930    3.6840   31.7810 C.2    19  GLY19       0.2639
     30  O        -15.4310    4.1600   31.7750 O.2    19  GLY19      -0.2714
     31  N        -13.2980    4.1750   31.0850 N.am   20  GLY20      -0.1954
     32  CA       -13.5270    5.1710   30.0640 C.3    20  GLY20       0.1869
     33  C        -13.9360    6.5290   30.5430 C.2    20  GLY20       0.2309
     34  O        -14.5470    7.3170   29.8020 O.2    20  GLY20      -0.2863
     35  N         -6.1160   -0.1750   30.0810 N.3    31  VAL31      -0.1245
     36  CA        -6.5360   -1.4120   29.4580 C.3    31  VAL31       0.1561
     37  C         -6.5490   -1.2500   27.9250 C.2    31  VAL31       0.2260
     38  O         -6.4930   -0.1310   27.4200 O.2    31  VAL31      -0.2867
     39  CB        -7.9240   -1.8590   29.9690 C.3    31  VAL31       0.0252
     40  CG1       -7.8610   -2.1230   31.4720 C.3    31  VAL31       0.0019
     41  CG2       -9.0370   -0.9070   29.5780 C.3    31  VAL31       0.0019
     42  N         -9.0670   -1.7320   24.6330 N.3    33  HIS33      -0.1241
     43  CA       -10.4920   -1.7890   24.3040 C.3    33  HIS33       0.1621
     44  C        -10.6720   -1.3380   22.8740 C.2    33  HIS33       0.2264
     45  O         -9.9440   -0.4920   22.3600 O.2    33  HIS33      -0.2867
     46  CB       -11.2800   -0.9220   25.3040 C.3    33  HIS33       0.0745
     47  CG       -12.7840   -1.1100   25.3180 C.ar   33  HIS33       0.0817
     48  ND1      -13.5960   -0.7070   24.3120 N.ar   33  HIS33      -0.2268
     49  CD2      -13.5210   -1.6820   26.2860 C.ar   33  HIS33       0.1154
     50  CE1      -14.8020   -1.0130   24.6930 C.ar   33  HIS33       0.1986
     51  NE2      -14.8150   -1.6060   25.8800 N.ar   33  HIS33      -0.2212
     52  N        -13.2810    0.3820   21.4910 N.3    35  ASP35      -0.1239
     53  CA       -14.0600    1.5830   21.1950 C.3    35  ASP35       0.1674
     54  C        -13.1070    2.7610   20.8980 C.2    35  ASP35       0.2266
     55  O        -11.9870    2.8410   21.4440 O.2    35  ASP35      -0.2867
     56  CB       -14.9800    2.0260   22.4300 C.3    35  ASP35       0.1410
     57  CG       -16.2580    1.2520   22.6340 C.2    35  ASP35       0.3668
     58  OD1      -16.6190    0.4260   21.8110 O.co2  35  ASP35      -0.2456
     59  OD2      -16.9130    1.5070   23.6850 O.co2  35  ASP35      -0.2456
     60  N        -13.4360    6.9910   21.2600 N.3    37  HIS37      -0.1241
     61  CA       -14.1460    8.1210   21.7520 C.3    37  HIS37       0.1621
     62  C        -13.1310    9.0650   22.4200 C.2    37  HIS37       0.2264
     63  O        -11.9640    8.7170   22.6060 O.2    37  HIS37      -0.2867
     64  CB       -15.2750    7.7510   22.7540 C.3    37  HIS37       0.0745
     65  CG       -14.7790    6.9120   23.8730 C.ar   37  HIS37       0.0817
     66  ND1      -13.8930    7.3740   24.8280 N.ar   37  HIS37      -0.2268
     67  CD2      -15.1380    5.6420   24.1980 C.ar   37  HIS37       0.1154
     68  CE1      -13.7450    6.3710   25.6820 C.ar   37  HIS37       0.1986
     69  NE2      -14.4690    5.3090   25.3110 N.ar   37  HIS37      -0.2212
     70  N        -12.5380   10.0390   25.3410 N.3    39  ARG39      -0.1245
     71  CA       -11.9740    9.6270   26.6130 C.3    39  ARG39       0.1563
     72  C        -10.8900    8.5770   26.4590 C.2    39  ARG39       0.2260
     73  O        -10.3500    8.0870   27.4740 O.2    39  ARG39      -0.2867
     74  CB       -13.0560    9.2660   27.6040 C.3    39  ARG39       0.0307
     75  CG       -13.9850   10.4280   27.8890 C.3    39  ARG39       0.0489
     76  CD       -15.3540   10.0240   28.3560 C.3    39  ARG39       0.2205
     77  NE       -16.1060    9.5390   27.1940 N.pl3  39  ARG39      -0.0865
     78  CZ       -16.5890    8.3440   26.8870 C.cat  39  ARG39       0.5346
     79  NH1      -16.3530    7.3200   27.6970 N.pl3  39  ARG39       0.1354
     80  NH2      -17.3160    8.1680   25.8140 N.pl3  39  ARG39       0.1354
     81  N        -10.7210   -5.0320   27.8500 N.3   119  GLU119     -0.1245
     82  CA       -10.4380   -4.9020   29.2810 C.3   119  GLU119      0.1567
     83  C         -9.1450   -5.5560   29.6840 C.2   119  GLU119      0.2260
     84  O         -8.7800   -5.5310   30.8810 O.2   119  GLU119     -0.2867
     85  CB       -11.6150   -5.3660   30.2050 C.3   119  GLU119      0.0388
     86  CG       -12.9040   -4.7020   29.8890 C.3   119  GLU119      0.1160
     87  CD       -12.8710   -3.2340   30.2530 C.2   119  GLU119      0.3649
     88  OE1      -13.3540   -2.4320   29.4800 O.co2 119  GLU119     -0.2457
     89  OE2      -12.2450   -2.8440   31.2910 O.co2 119  GLU119     -0.2457
@<TRIPOS>BOND
     1    54    53    1
     2    54    55    2
     3    53    52    1
     4    53    56    1
     5    60    61    1
     6    61    62    1
     7    61    64    1
     8    58    57   ar
     9    45    44    2
    10    62    63    2
    11    56    57    1
    12    57    59   ar
    13    64    65    1
    14    44    43    1
    15    65    67   ar
    16    65    66   ar
    17    10     9   ar
    18    10     8   ar
    19    67    69   ar
    20    43    42    1
    21    43    46    1
    22    48    50   ar
    23    48    47   ar
    24     9     7   ar
    25    50    51   ar
    26     8     6   ar
    27    66    68   ar
    28    46    47    1
    29    69    68   ar
    30    47    49   ar
    31    70    71    1
    32    80    78    1
    33    51    49   ar
    34     7     6   ar
    35     6     5    1
    36    72    71    1
    37    72    73    2
    38    71    74    1
    39     1     2    1
    40    78    77    2
    41    78    79    1
    42    77    76    1
    43     5     2    1
    44     2     3    1
    45    38    37    2
    46    74    75    1
    47    81    82    1
    48    75    76    1
    49    37    36    1
    50     3     4    2
    51     3    11   am
    52    17    11    1
    53    17    16    1
    54    82    83    1
    55    82    85    1
    56    36    39    1
    57    36    35    1
    58    88    87   ar
    59    41    39    1
    60    11    12    1
    61    83    84    2
    62    34    33    2
    63    86    85    1
    64    86    87    1
    65    39    40    1
    66    32    33    1
    67    32    31    1
    68    87    89   ar
    69    16    15    1
    70    14    13    2
    71    31    29   am
    72    12    13    1
    73    12    15    1
    74    13    18   am
    75    30    29    2
    76    29    28    1
    77    18    19    1
    78    27    28    1
    79    27    20   am
    80    19    20    1
    81    19    22    1
    82    20    21    2
    83    22    23    1
    84    26    25    1
    85    23    24    1
    86    24    25    1
