@<TRIPOS>MOLECULE
tmp/3wmvA00.pdb
 78 76 0 0 0
SMALL
GASTEIGER

@<TRIPOS>ATOM
      1  N          5.7330   -7.0730   34.7700 N.3    75  GLU75      -0.1245
      2  CA         4.3610   -7.2410   35.1550 C.3    75  GLU75       0.1567
      3  C          3.8450   -6.0650   35.9850 C.2    75  GLU75       0.2260
      4  O          2.6890   -6.0760   36.3890 O.2    75  GLU75      -0.2867
      5  CB         4.0290   -8.5470   35.8740 C.3    75  GLU75       0.0388
      6  CG         4.6290   -9.7470   35.2150 C.3    75  GLU75       0.1160
      7  CD         4.1420   -9.9920   33.8050 C.2    75  GLU75       0.3649
      8  OE1        3.1340   -9.5000   33.3740 O.co2  75  GLU75      -0.2457
      9  OE2        4.8320  -10.8410   33.1470 O.co2  75  GLU75      -0.2457
     10  N          3.1540   -3.5560   27.4010 N.3   108  HIS108     -0.1227
     11  CA         2.6130   -4.8170   26.8960 C.3   108  HIS108      0.1737
     12  C          1.1600   -4.9670   27.3030 C.2   108  HIS108      0.2438
     13  O          0.7750   -4.5680   28.3950 O.2   108  HIS108     -0.2733
     14  CB         3.3010   -6.0040   27.5260 C.3   108  HIS108      0.0758
     15  CG         4.6860   -6.3090   27.0060 C.ar  108  HIS108      0.0818
     16  ND1        4.9630   -7.5350   26.4450 N.ar  108  HIS108     -0.2268
     17  CD2        5.8220   -5.5540   26.9930 C.ar  108  HIS108      0.1154
     18  CE1        6.2280   -7.4850   26.0860 C.ar  108  HIS108      0.1986
     19  NE2        6.7880   -6.3000   26.4240 N.ar  108  HIS108     -0.2212
     20  N          0.3750   -5.7180   26.5130 N.am  109  PRO109     -0.2718
     21  CA        -0.8250   -6.3100   27.1020 C.3   109  PRO109      0.1535
     22  C         -0.4400   -7.4180   28.0530 C.2   109  PRO109      0.2598
     23  O          0.4730   -8.1670   27.7270 O.2   109  PRO109     -0.2715
     24  CB        -1.5710   -6.8810   25.8600 C.3   109  PRO109      0.0310
     25  CG        -0.4560   -7.2590   24.9400 C.3   109  PRO109      0.0237
     26  CD         0.6970   -6.2560   25.1770 C.3   109  PRO109      0.0939
     27  N         -1.1320   -7.5630   29.1620 N.am  110  LYS110     -0.1964
     28  CA        -0.8330   -8.6270   30.1280 C.3   110  LYS110      0.1728
     29  C         -0.9720   -9.9900   29.4470 C.2   110  LYS110      0.2617
     30  O         -2.0410  -10.2860   28.8970 O.2   110  LYS110     -0.2715
     31  CB        -1.7950   -8.5240   31.3030 C.3   110  LYS110      0.0311
     32  CG        -1.6670   -9.6130   32.3440 C.3   110  LYS110      0.0038
     33  CD        -2.5310   -9.4620   33.4770 C.3   110  LYS110      0.0206
     34  CE        -2.4270  -10.7490   34.3790 C.3   110  LYS110      0.1093
     35  NZ        -3.5150  -10.7690   35.3630 N.3   110  LYS110     -0.1314
     36  N          0.0440  -10.7930   29.5040 N.am  111  GLY111     -0.1940
     37  CA         0.0430  -12.0830   28.8490 C.3   111  GLY111      0.2014
     38  C          0.5890  -12.0920   27.4310 C.2   111  GLY111      0.2639
     39  O          0.8520  -13.1680   26.8950 O.2   111  GLY111     -0.2714
     40  N          0.7270  -10.9260   26.8010 N.am  112  GLY112     -0.1954
     41  CA         1.3930  -10.8800   25.5320 C.3   112  GLY112      0.1869
     42  C          0.5960  -11.4600   24.3930 C.2   112  GLY112      0.2309
     43  O          1.2470  -11.9660   23.4530 O.2   112  GLY112     -0.2863
     44  N          0.7620   -3.7220   31.1370 N.3   123  VAL123     -0.1245
     45  CA         1.8740   -3.8680   32.1290 C.3   123  VAL123      0.1561
     46  C          3.1910   -3.5120   31.4410 C.2   123  VAL123      0.2260
     47  O          3.3000   -3.4690   30.1980 O.2   123  VAL123     -0.2867
     48  CB         1.9420   -5.3440   32.6550 C.3   123  VAL123      0.0252
     49  CG1        0.6560   -5.7410   33.3080 C.3   123  VAL123      0.0019
     50  CG2        2.3400   -6.3060   31.5680 C.3   123  VAL123      0.0019
     51  N          6.9900   -4.7790   30.5900 N.3   125  HIS125     -0.1241
     52  CA         7.7440   -6.0050   30.4330 C.3   125  HIS125      0.1621
     53  C          8.9210   -5.7440   29.5430 C.2   125  HIS125      0.2264
     54  O          8.8280   -4.9970   28.5230 O.2   125  HIS125     -0.2867
     55  CB         6.8790   -7.1570   29.9200 C.3   125  HIS125      0.0745
     56  CG         7.4050   -8.4960   30.2410 C.ar  125  HIS125      0.0817
     57  ND1        8.4800   -8.9960   29.5530 N.ar  125  HIS125     -0.2268
     58  CD2        7.0010   -9.4170   31.1000 C.ar  125  HIS125      0.1154
     59  CE1        8.7250  -10.2190   30.0250 C.ar  125  HIS125      0.1986
     60  NE2        7.8320  -10.5020   30.9670 N.ar  125  HIS125     -0.2212
     61  N         10.3700   -7.8920   27.4730 N.3   127  ASP127     -0.1239
     62  CA        10.4310   -8.6130   26.2230 C.3   127  ASP127      0.1674
     63  C          9.9920   -7.7560   25.0530 C.2   127  ASP127      0.2266
     64  O          9.1850   -6.8060   25.1580 O.2   127  ASP127     -0.2867
     65  CB         9.4280   -9.8260   26.2870 C.3   127  ASP127      0.1410
     66  CG         9.8750  -11.0030   27.0850 C.2   127  ASP127      0.3668
     67  OD1       10.9930  -10.9920   27.6260 O.co2 127  ASP127     -0.2456
     68  OD2        9.0370  -11.9550   27.1570 O.co2 127  ASP127     -0.2456
     69  N          8.4800   -8.3600   21.0850 N.3   129  HIS129     -0.1241
     70  CA         7.8180   -9.2830   20.1950 C.3   129  HIS129      0.1621
     71  C          6.6790   -8.5530   19.5410 C.2   129  HIS129      0.2264
     72  O          6.3830   -7.3920   19.8390 O.2   129  HIS129     -0.2867
     73  CB         7.2900  -10.5890   20.9610 C.3   129  HIS129      0.0745
     74  CG         6.4900  -10.3450   22.1350 C.ar  129  HIS129      0.0817
     75  ND1        5.2780   -9.6610   22.0920 N.ar  129  HIS129     -0.2268
     76  CD2        6.6930  -10.7400   23.4080 C.ar  129  HIS129      0.1154
     77  CE1        4.8170   -9.6640   23.3070 C.ar  129  HIS129      0.1986
     78  NE2        5.6360  -10.3320   24.1390 N.ar  129  HIS129     -0.2212
@<TRIPOS>BOND
     1    71    72    2
     2    71    70    1
     3    70    73    1
     4    70    69    1
     5    73    74    1
     6    75    74   ar
     7    75    77   ar
     8    74    76   ar
     9    77    78   ar
    10    76    78   ar
    11    43    42    2
    12    42    41    1
    13    25    26    1
    14    25    24    1
    15    63    64    2
    16    63    62    1
    17    26    20    1
    18    41    40    1
    19    24    21    1
    20    18    19   ar
    21    18    16   ar
    22    62    65    1
    23    62    61    1
    24    65    66    1
    25    19    17   ar
    26    16    15   ar
    27    20    21    1
    28    20    12   am
    29    40    38   am
    30    39    38    2
    31    11    12    1
    32    11    10    1
    33    11    14    1
    34    17    15   ar
    35    15    14    1
    36    66    68   ar
    37    66    67   ar
    38    21    22    1
    39    12    13    2
    40    38    37    1
    41    23    22    2
    42    22    27   am
    43    54    53    2
    44    37    36    1
    45    30    29    2
    46    27    28    1
    47    29    36   am
    48    29    28    1
    49    53    52    1
    50    57    59   ar
    51    57    56   ar
    52    55    56    1
    53    55    52    1
    54    59    60   ar
    55    28    31    1
    56    47    46    2
    57    56    58   ar
    58    52    51    1
    59    60    58   ar
    60    44    45    1
    61    31    32    1
    62    46    45    1
    63    50    48    1
    64    45    48    1
    65    32    33    1
    66    48    49    1
    67     9     7   ar
    68     8     7   ar
    69    33    34    1
    70     7     6    1
    71    34    35    1
    72     1     2    1
    73     2     5    1
    74     2     3    1
    75     6     5    1
    76     3     4    2
