@<TRIPOS>MOLECULE
tmp/3wmvA02.pdb
 96 93 0 0 0
SMALL
GASTEIGER

@<TRIPOS>ATOM
      1  N         -4.3960    6.1840   39.8390 N.3    27  ASP27      -0.1239
      2  CA        -4.0740    4.7710   39.8510 C.3    27  ASP27       0.1674
      3  C         -5.1110    3.9240   39.0880 C.2    27  ASP27       0.2266
      4  O         -5.0790    2.6860   39.2210 O.2    27  ASP27      -0.2867
      5  CB        -3.7660    4.2130   41.2430 C.3    27  ASP27       0.1410
      6  CG        -2.4110    4.7010   41.7520 C.2    27  ASP27       0.3668
      7  OD1       -1.6040    5.2260   40.9640 O.co2  27  ASP27      -0.2456
      8  OD2       -2.1750    4.5050   42.9520 O.co2  27  ASP27      -0.2456
      9  N          1.8500    6.1310   34.3400 N.3    64  HIS64      -0.1227
     10  CA         2.8740    5.7700   35.2850 C.3    64  HIS64       0.1737
     11  C          2.9300    4.2520   35.4180 C.2    64  HIS64       0.2438
     12  O          1.9040    3.5760   35.3720 O.2    64  HIS64      -0.2733
     13  CB         2.5260    6.2370   36.7460 C.3    64  HIS64       0.0758
     14  CG         2.6420    7.6900   36.9570 C.ar   64  HIS64       0.0818
     15  ND1        3.4690    8.2080   37.9580 N.ar   64  HIS64      -0.2268
     16  CD2        1.9910    8.7140   36.3360 C.ar   64  HIS64       0.1154
     17  CE1        3.3230    9.5220   37.8860 C.ar   64  HIS64       0.1986
     18  NE2        2.4290    9.8740   36.9400 N.ar   64  HIS64      -0.2212
     19  N          4.1070    3.7030   35.7400 N.am   65  PRO65      -0.2718
     20  CA         4.1350    2.3860   36.4250 C.3    65  PRO65       0.1535
     21  C          3.4210    2.5270   37.7800 C.2    65  PRO65       0.2598
     22  O          3.7490    3.4780   38.5170 O.2    65  PRO65      -0.2715
     23  CB         5.6600    2.1190   36.6200 C.3    65  PRO65       0.0310
     24  CG         6.3850    3.3110   36.1260 C.3    65  PRO65       0.0237
     25  CD         5.4410    4.3990   35.8450 C.3    65  PRO65       0.0939
     26  N          2.5530    1.5980   38.1300 N.am   66  LEU66      -0.1964
     27  CA         1.8540    1.6790   39.4220 C.3    66  LEU66       0.1728
     28  C          2.9110    1.6850   40.5170 C.2    66  LEU66       0.2617
     29  O          3.7860    0.7890   40.5830 O.2    66  LEU66      -0.2715
     30  CB         0.9620    0.4610   39.5750 C.3    66  LEU66       0.0311
     31  CG         0.2440    0.3560   40.9270 C.3    66  LEU66       0.0022
     32  CD1       -0.6360    1.5510   41.2330 C.3    66  LEU66       0.0001
     33  CD2       -0.6060   -0.9330   40.9880 C.3    66  LEU66       0.0001
     34  N          2.8330    2.6530   41.4190 N.am   67  GLY67      -0.1940
     35  CA         3.7090    2.7860   42.5250 C.3    67  GLY67       0.2014
     36  C          4.8390    3.7420   42.2050 C.2    67  GLY67       0.2639
     37  O          5.5980    4.1700   43.1180 O.2    67  GLY67      -0.2714
     38  N          5.0810    4.0630   40.9310 N.am   68  GLY68      -0.1939
     39  CA         6.0330    5.0590   40.5930 C.3    68  GLY68       0.2014
     40  C          7.4860    4.8050   40.8170 C.2    68  GLY68       0.2638
     41  O          8.2490    5.7850   40.9940 O.2    68  GLY68      -0.2714
     42  N          7.9550    3.5820   40.7760 N.am   69  LYS69      -0.1977
     43  CA         9.3730    3.3130   40.9750 C.3    69  LYS69       0.1596
     44  C         10.1730    3.5510   39.7170 C.2    69  LYS69       0.2287
     45  O          9.6650    3.3930   38.5840 O.2    69  LYS69      -0.2864
     46  CB         9.5810    1.8920   41.4840 C.3    69  LYS69       0.0298
     47  CG         8.8290    1.6150   42.7840 C.3    69  LYS69       0.0038
     48  CD         9.2580    2.6260   43.7800 C.3    69  LYS69       0.0206
     49  CE         8.7150    2.3900   45.1270 C.3    69  LYS69       0.1093
     50  NZ         9.5340    3.2800   46.0190 N.3    69  LYS69      -0.1314
     51  N         -0.8480    2.6110   34.8950 N.3    79  VAL79      -0.1245
     52  CA        -1.9840    3.3610   35.4270 C.3    79  VAL79       0.1561
     53  C         -1.8790    4.7960   35.0080 C.2    79  VAL79       0.2260
     54  O         -0.8330    5.2560   34.5350 O.2    79  VAL79      -0.2867
     55  CB        -2.0370    3.2250   36.9450 C.3    79  VAL79       0.0252
     56  CG1       -2.1460    1.7660   37.3890 C.3    79  VAL79       0.0019
     57  CG2       -0.8590    3.9110   37.6280 C.3    79  VAL79       0.0019
     58  N         -1.9750    8.6770   36.5810 N.3    81  HIS81      -0.1241
     59  CA        -1.7960    9.4330   37.8190 C.3    81  HIS81       0.1621
     60  C         -1.4850   10.8600   37.4620 C.2    81  HIS81       0.2264
     61  O         -0.8270   11.1640   36.4690 O.2    81  HIS81      -0.2867
     62  CB        -0.6610    8.8110   38.6600 C.3    81  HIS81       0.0745
     63  CG        -0.6510    9.2440   40.1010 C.ar   81  HIS81       0.0817
     64  ND1       -0.2280   10.5100   40.5080 N.ar   81  HIS81      -0.2268
     65  CD2       -1.0840    8.5790   41.1830 C.ar   81  HIS81       0.1154
     66  CE1       -0.4540   10.5330   41.8220 C.ar   81  HIS81       0.1986
     67  NE2       -0.9330    9.3780   42.2670 N.ar   81  HIS81      -0.2212
     68  N          0.5620   12.9720   38.9720 N.3    83  ASP83      -0.1239
     69  CA         1.8670   13.4940   39.2670 C.3    83  ASP83       0.1674
     70  C          2.7710   13.4990   38.0450 C.2    83  ASP83       0.2266
     71  O          2.7900   12.5790   37.2180 O.2    83  ASP83      -0.2867
     72  CB         2.5550   12.6960   40.3820 C.3    83  ASP83       0.1410
     73  CG         1.9720   12.9160   41.7590 C.2    83  ASP83       0.3668
     74  OD1        1.1390   13.8140   41.9440 O.co2  83  ASP83      -0.2456
     75  OD2        2.3900   12.1300   42.6460 O.co2  83  ASP83      -0.2456
     76  N          6.7760   13.4550   37.2920 N.3    85  HIS85      -0.1241
     77  CA         8.1320   13.2320   37.8150 C.3    85  HIS85       0.1621
     78  C          8.8110   12.3010   36.8830 C.2    85  HIS85       0.2264
     79  O          8.2610   11.7590   35.9320 O.2    85  HIS85      -0.2867
     80  CB         8.1000   12.7030   39.2830 C.3    85  HIS85       0.0745
     81  CG         7.3160   11.4460   39.4620 C.ar   85  HIS85       0.0817
     82  ND1        7.6190   10.2710   38.8040 N.ar   85  HIS85      -0.2268
     83  CD2        6.2890   11.2120   40.2980 C.ar   85  HIS85       0.1154
     84  CE1        6.7180    9.3980   39.2370 C.ar   85  HIS85       0.1986
     85  NE2        5.9200    9.9020   40.1440 N.ar   85  HIS85      -0.2212
     86  N          9.9480    9.3160   37.0340 N.3    87  ARG87      -0.1245
     87  CA         9.6850    7.9010   36.9060 C.3    87  ARG87       0.1563
     88  C          8.5230    7.6410   35.9850 C.2    87  ARG87       0.2260
     89  O          8.2010    6.4810   35.7150 O.2    87  ARG87      -0.2867
     90  CB         9.5180    7.2450   38.2610 C.3    87  ARG87       0.0307
     91  CG        10.6550    7.3610   39.2440 C.3    87  ARG87       0.0489
     92  CD        10.4620    8.5450   40.3230 C.3    87  ARG87       0.2205
     93  NE         9.3920    8.1570   41.2320 N.pl3  87  ARG87      -0.0865
     94  CZ         8.8290    9.0000   42.0770 C.cat  87  ARG87       0.5346
     95  NH1        9.2030   10.2710   42.1250 N.pl3  87  ARG87       0.1354
     96  NH2        7.8300    8.5010   42.8180 N.pl3  87  ARG87       0.1354
@<TRIPOS>BOND
     1     9    10    1
     2    54    53    2
     3    51    52    1
     4    53    52    1
     5    10    11    1
     6    10    13    1
     7    12    11    2
     8    11    19   am
     9    52    55    1
    10    89    88    2
    11    19    25    1
    12    19    20    1
    13    25    24    1
    14    79    78    2
    15    88    87    1
    16    24    23    1
    17    16    18   ar
    18    16    14   ar
    19    20    23    1
    20    20    21    1
    21    61    60    2
    22    58    59    1
    23    13    14    1
    24    78    77    1
    25    87    86    1
    26    87    90    1
    27    18    17   ar
    28    55    56    1
    29    55    57    1
    30    14    15   ar
    31    71    70    2
    32    76    77    1
    33    60    59    1
    34    21    26   am
    35    21    22    2
    36    77    80    1
    37    59    62    1
    38    17    15   ar
    39    70    69    1
    40    26    27    1
    41    90    91    1
    42    45    44    2
    43    62    63    1
    44    82    84   ar
    45    82    81   ar
    46    68    69    1
    47     3     4    2
    48     3     2    1
    49    84    85   ar
    50    91    92    1
    51    69    72    1
    52    80    81    1
    53    27    30    1
    54    27    28    1
    55    81    83   ar
    56    30    31    1
    57    44    43    1
    58     1     2    1
    59     2     5    1
    60    63    64   ar
    61    63    65   ar
    62    85    83   ar
    63    92    93    1
    64    72    73    1
    65    64    66   ar
    66    28    29    2
    67    28    34   am
    68    39    40    1
    69    39    38    1
    70    42    40   am
    71    42    43    1
    72    40    41    2
    73    31    33    1
    74    31    32    1
    75    38    36   am
    76     7     6   ar
    77    43    46    1
    78    65    67   ar
    79    93    94    2
    80     5     6    1
    81    34    35    1
    82    46    47    1
    83     6     8   ar
    84    73    74   ar
    85    73    75   ar
    86    66    67   ar
    87    94    95    1
    88    94    96    1
    89    36    35    1
    90    36    37    2
    91    47    48    1
    92    48    49    1
    93    49    50    1
