@<TRIPOS>MOLECULE
tmp/3wmzA00.pdb
 135 129 0 0 0
SMALL
GASTEIGER

@<TRIPOS>ATOM
      1  N         22.7690   40.3860    7.7080 N.3    28  LYS28      -0.1231
      2  CA        23.6020   40.4350    8.9080 C.3    28  LYS28       0.1693
      3  C         23.2890   41.6090    9.8440 C.2    28  LYS28       0.2592
      4  O         22.6690   42.5960    9.4350 O.2    28  LYS28      -0.2718
      5  CB        25.0770   40.5790    8.4990 C.3    28  LYS28       0.0285
      6  CG        25.7050   39.4050    7.7600 C.3    28  LYS28       0.0035
      7  CD        27.2120   39.6230    7.6180 C.3    28  LYS28       0.0206
      8  CE        27.9370   39.3390    8.9310 C.3    28  LYS28       0.1093
      9  NZ        29.4130   39.5290    8.8120 N.3    28  LYS28      -0.1314
     10  N         23.7700   41.4970   11.0880 N.am   29  ASP29      -0.1974
     11  CA        23.9610   42.6420   11.9910 C.3    29  ASP29       0.1709
     12  C         22.6860   43.4490   12.2270 C.2    29  ASP29       0.2293
     13  O         22.7060   44.6840   12.1700 O.2    29  ASP29      -0.2864
     14  CB        25.0510   43.5870   11.4460 C.3    29  ASP29       0.1436
     15  CG        26.3560   42.8630   11.0920 C.2    29  ASP29       0.3671
     16  OD1       26.6740   41.8240   11.7080 O.co2  29  ASP29      -0.2456
     17  OD2       27.0660   43.3500   10.1880 O.co2  29  ASP29      -0.2456
     18  N         30.3930   44.7370    1.3160 N.3    51  TYR51      -0.1241
     19  CA        29.3090   44.9030    2.2740 C.3    51  TYR51       0.1605
     20  C         28.4240   46.0710    1.8830 C.2    51  TYR51       0.2264
     21  O         28.8980   47.0820    1.3600 O.2    51  TYR51      -0.2867
     22  CB        29.8610   45.1420    3.6800 C.3    51  TYR51       0.0534
     23  CG        30.3390   43.9010    4.3930 C.ar   51  TYR51      -0.0201
     24  CD1       29.4710   43.1510    5.1840 C.ar   51  TYR51      -0.0009
     25  CD2       31.6640   43.4800    4.2890 C.ar   51  TYR51      -0.0009
     26  CE1       29.9070   42.0130    5.8470 C.ar   51  TYR51       0.0417
     27  CE2       32.1090   42.3430    4.9500 C.ar   51  TYR51       0.0417
     28  CZ        31.2250   41.6140    5.7250 C.ar   51  TYR51       0.1957
     29  OH        31.6580   40.4890    6.3830 O.3    51  TYR51      -0.2866
     30  N         27.0060   49.9330    7.2040 N.3    78  VAL78      -0.1231
     31  CA        27.3870   48.6370    7.7740 C.3    78  VAL78       0.1692
     32  C         27.2400   48.5880    9.2990 C.2    78  VAL78       0.2591
     33  O         27.5980   49.5470   10.0060 O.2    78  VAL78      -0.2718
     34  CB        28.8110   48.2220    7.3420 C.3    78  VAL78       0.0266
     35  CG1       29.2010   46.8890    7.9680 C.3    78  VAL78       0.0020
     36  CG2       28.8990   48.1260    5.8190 C.3    78  VAL78       0.0020
     37  N         26.7100   47.4650    9.7860 N.am   79  ALA79      -0.1980
     38  CA        26.4430   47.2320   11.2140 C.3    79  ALA79       0.1597
     39  C         25.6380   48.3940   11.8370 C.2    79  ALA79       0.2287
     40  O         26.1160   49.0710   12.7630 O.2    79  ALA79      -0.2864
     41  CB        27.7490   46.9730   11.9720 C.3    79  ALA79       0.0319
     42  N         29.1430   52.0750   10.7190 N.3    96  GLN96      -0.1231
     43  CA        30.5940   52.1420   10.5810 C.3    96  GLN96       0.1698
     44  C         31.0120   52.1700    9.1140 C.2    96  GLN96       0.2592
     45  O         30.2130   51.8710    8.2270 O.2    96  GLN96      -0.2718
     46  CB        31.2470   50.9550   11.2910 C.3    96  GLN96       0.0381
     47  CG        30.9590   49.6000   10.6370 C.3    96  GLN96       0.0905
     48  CD        31.2540   48.4280   11.5480 C.2    96  GLN96       0.2608
     49  OE1       30.9820   48.4770   12.7450 O.2    96  GLN96      -0.2717
     50  NE2       31.8180   47.3610   10.9820 N.am   96  GLN96      -0.0878
     51  N         32.2780   52.5120    8.8830 N.am   97  TRP97      -0.1976
     52  CA        32.8940   52.5070    7.5430 C.3    97  TRP97       0.1640
     53  C         32.3210   53.6000    6.6450 C.2    97  TRP97       0.2290
     54  O         31.1820   53.5180    6.1760 O.2    97  TRP97      -0.2864
     55  CB        32.8320   51.1260    6.8660 C.3    97  TRP97       0.0576
     56  CG        33.4110   49.9890    7.6820 C.ar   97  TRP97       0.0006
     57  CD1       34.1740   50.0870    8.8110 C.ar   97  TRP97       0.0946
     58  CD2       33.2940   48.5880    7.4010 C.ar   97  TRP97       0.0152
     59  NE1       34.5230   48.8380    9.2580 N.ar   97  TRP97      -0.2442
     60  CE2       33.9950   47.8990    8.4120 C.ar   97  TRP97       0.0810
     61  CE3       32.6570   47.8480    6.3920 C.ar   97  TRP97       0.0012
     62  CZ2       34.0810   46.5020    8.4510 C.ar   97  TRP97       0.0191
     63  CZ3       32.7440   46.4550    6.4280 C.ar   97  TRP97       0.0001
     64  CH2       33.4520   45.7990    7.4540 C.ar   97  TRP97       0.0015
     65  N         40.7100   45.7070   13.3930 N.3   132  THR132     -0.1218
     66  CA        39.5050   46.2530   12.7590 C.3   132  THR132      0.1862
     67  C         39.3200   47.7510   12.9850 C.2   132  THR132      0.2287
     68  O         38.7000   48.4350   12.1720 O.2   132  THR132     -0.2866
     69  CB        38.2370   45.5300   13.2640 C.3   132  THR132      0.1770
     70  OG1       38.1520   45.6550   14.6890 O.3   132  THR132     -0.2211
     71  CG2       38.2710   44.0430   12.8890 C.3   132  THR132      0.0375
     72  N         34.4260   49.0550   16.0330 N.3   135  ILE135     -0.1231
     73  CA        33.3640   48.3790   15.2840 C.3   135  ILE135      0.1692
     74  C         32.1320   48.1530   16.1470 C.2   135  ILE135      0.2592
     75  O         32.2080   48.2000   17.3770 O.2   135  ILE135     -0.2718
     76  CB        33.8190   46.9990   14.7560 C.3   135  ILE135      0.0266
     77  CG1       34.4050   46.1680   15.9050 C.3   135  ILE135      0.0019
     78  CG2       34.7890   47.1610   13.5830 C.3   135  ILE135      0.0020
     79  CD1       34.3940   44.6800   15.6600 C.3   135  ILE135      0.0001
     80  N         31.0070   47.8950   15.4800 N.am  136  ASP136     -0.1974
     81  CA        29.7580   47.4820   16.1240 C.3   136  ASP136      0.1709
     82  C         29.2960   48.4320   17.2240 C.2   136  ASP136      0.2293
     83  O         29.0370   48.0130   18.3540 O.2   136  ASP136     -0.2864
     84  CB        29.8680   46.0490   16.6430 C.3   136  ASP136      0.1436
     85  CG        30.1150   45.0410   15.5200 C.2   136  ASP136      0.3671
     86  OD1       30.0380   45.4280   14.3340 O.co2 136  ASP136     -0.2456
     87  OD2       30.3810   43.8710   15.8300 O.co2 136  ASP136     -0.2456
     88  N         37.1190   43.8630   18.2430 N.3   153  ASP153     -0.1239
     89  CA        37.5980   42.5140   17.9220 C.3   153  ASP153      0.1674
     90  C         38.8830   42.1880   18.6930 C.2   153  ASP153      0.2266
     91  O         39.7820   41.5410   18.1580 O.2   153  ASP153     -0.2867
     92  CB        37.8470   42.3760   16.4120 C.3   153  ASP153      0.1410
     93  CG        36.6050   41.9420   15.6390 C.2   153  ASP153      0.3668
     94  OD1       35.4970   41.9530   16.2120 O.co2 153  ASP153     -0.2456
     95  OD2       36.7440   41.5870   14.4530 O.co2 153  ASP153     -0.2456
     96  N         32.7940   41.2360   19.7790 N.3   188  GLU188     -0.1245
     97  CA        32.1240   42.2810   18.9950 C.3   188  GLU188      0.1567
     98  C         30.6220   42.2750   19.2730 C.2   188  GLU188      0.2260
     99  O         30.1920   41.6990   20.2720 O.2   188  GLU188     -0.2867
    100  CB        32.4380   42.1380   17.4920 C.3   188  GLU188      0.0388
    101  CG        31.9500   40.8400   16.8620 C.3   188  GLU188      0.1160
    102  CD        32.4700   40.6050   15.4490 C.2   188  GLU188      0.3649
    103  OE1       33.4460   41.2560   15.0100 O.co2 188  GLU188     -0.2457
    104  OE2       31.8840   39.7440   14.7640 O.co2 188  GLU188     -0.2457
    105  N         25.6360   38.5460   16.0130 N.3   254  HIS254     -0.1241
    106  CA        25.2250   39.9600   15.8970 C.3   254  HIS254      0.1621
    107  C         23.7650   40.2380   15.5150 C.2   254  HIS254      0.2264
    108  O         23.3500   40.0260   14.3660 O.2   254  HIS254     -0.2867
    109  CB        26.1500   40.6720   14.8960 C.3   254  HIS254      0.0745
    110  CG        26.1710   42.1670   15.0350 C.ar  254  HIS254      0.0817
    111  ND1       27.2620   42.9290   14.6720 N.ar  254  HIS254     -0.2268
    112  CD2       25.2410   43.0410   15.4940 C.ar  254  HIS254      0.1154
    113  CE1       26.9990   44.2070   14.8880 C.ar  254  HIS254      0.1986
    114  NE2       25.7820   44.3030   15.3950 N.ar  254  HIS254     -0.2212
    115  N         21.5940   36.8110   13.9590 N.3   278  GLN278     -0.1245
    116  CA        22.0720   36.1520   12.7560 C.3   278  GLN278      0.1566
    117  C         22.6350   34.7720   13.1040 C.2   278  GLN278      0.2260
    118  O         23.3150   34.5800   14.1280 O.2   278  GLN278     -0.2867
    119  CB        23.0950   37.0080   12.0000 C.3   278  GLN278      0.0367
    120  CG        24.4500   37.1340   12.6910 C.3   278  GLN278      0.0905
    121  CD        25.4080   38.0580   11.9640 C.2   278  GLN278      0.2608
    122  OE1       25.0050   38.8350   11.1130 O.2   278  GLN278     -0.2717
    123  NE2       26.6850   37.9800   12.3080 N.am  278  GLN278     -0.0878
    124  N         35.1590   34.2400    5.7670 N.3   288  TYR288     -0.1241
    125  CA        34.1860   34.8510    6.6770 C.3   288  TYR288      0.1605
    126  C         33.1840   35.7480    5.9550 C.2   288  TYR288      0.2264
    127  O         31.9800   35.6650    6.2040 O.2   288  TYR288     -0.2867
    128  CB        34.8760   35.6330    7.8150 C.3   288  TYR288      0.0534
    129  CG        33.8770   36.3730    8.6810 C.ar  288  TYR288     -0.0201
    130  CD1       33.2440   35.7340    9.7500 C.ar  288  TYR288     -0.0009
    131  CD2       33.5270   37.6970    8.4010 C.ar  288  TYR288     -0.0009
    132  CE1       32.3070   36.4000   10.5300 C.ar  288  TYR288      0.0417
    133  CE2       32.5860   38.3690    9.1720 C.ar  288  TYR288      0.0417
    134  CZ        31.9800   37.7160   10.2320 C.ar  288  TYR288      0.1957
    135  OH        31.0450   38.3810   10.9960 O.3   288  TYR288     -0.2866
@<TRIPOS>BOND
     1    18    19    1
     2    21    20    2
     3    20    19    1
     4    19    22    1
     5    22    23    1
     6    25    23   ar
     7    25    27   ar
     8    23    24   ar
     9    27    28   ar
    10    24    26   ar
    11    28    26   ar
    12    28    29    1
    13   124   125    1
    14    36    34    1
    15   126   127    2
    16   126   125    1
    17    54    53    2
    18    61    63   ar
    19    61    58   ar
    20    63    64   ar
    21    53    52    1
    22   125   128    1
    23    55    52    1
    24    55    56    1
    25    30    31    1
    26    34    31    1
    27    34    35    1
    28    58    56   ar
    29    58    60   ar
    30    64    62   ar
    31    52    51    1
    32     7     6    1
    33     7     8    1
    34    56    57   ar
    35     1     2    1
    36     6     5    1
    37    31    32    1
    38   128   129    1
    39    45    44    2
    40   131   129   ar
    41   131   133   ar
    42    60    62   ar
    43    60    59   ar
    44     5     2    1
    45   129   130   ar
    46    57    59   ar
    47     9     8    1
    48    51    44   am
    49     2     3    1
    50    44    43    1
    51   133   134   ar
    52    32    37   am
    53    32    33    2
    54     4     3    2
    55   130   132   ar
    56    37    38    1
    57     3    10   am
    58    17    15   ar
    59   134   132   ar
    60   134   135    1
    61    43    42    1
    62    43    46    1
    63    47    46    1
    64    47    48    1
    65    50    48   am
    66    10    11    1
    67    15    14    1
    68    15    16   ar
    69   122   121    2
    70    38    39    1
    71    38    41    1
    72    14    11    1
    73    48    49    2
    74    39    40    2
    75   121   123   am
    76   121   120    1
    77    11    12    1
    78   119   120    1
    79   119   116    1
    80    13    12    2
    81    68    67    2
    82   116   117    1
    83   116   115    1
    84    66    67    1
    85    66    69    1
    86    66    65    1
    87    71    69    1
    88   117   118    2
    89    69    70    1
    90    78    76    1
    91    86    85   ar
    92   108   107    2
    93    95    93   ar
    94   111   113   ar
    95   111   110   ar
    96    76    73    1
    97    76    77    1
    98   104   102   ar
    99   113   114   ar
   100   109   110    1
   101   109   106    1
   102   103   102   ar
   103   110   112   ar
   104    73    72    1
   105    73    74    1
   106   114   112   ar
   107   102   101    1
   108    80    81    1
   109    80    74   am
   110   107   106    1
   111    85    87   ar
   112    85    84    1
   113    93    94   ar
   114    93    92    1
   115    79    77    1
   116   106   105    1
   117    81    84    1
   118    81    82    1
   119    74    75    2
   120    92    89    1
   121   101   100    1
   122    82    83    2
   123   100    97    1
   124    89    88    1
   125    89    90    1
   126    91    90    2
   127    97    98    1
   128    97    96    1
   129    98    99    2
