@<TRIPOS>MOLECULE
tmp/3wn0A00.pdb
 126 121 0 0 0
SMALL
GASTEIGER

@<TRIPOS>ATOM
      1  N         22.9630   41.1410    7.4600 N.3    28  LYS28      -0.1231
      2  CA        23.7740   41.1910    8.6780 C.3    28  LYS28       0.1693
      3  C         23.4610   42.3720    9.6130 C.2    28  LYS28       0.2592
      4  O         22.8240   43.3470    9.2040 O.2    28  LYS28      -0.2718
      5  CB        25.2590   41.3030    8.2910 C.3    28  LYS28       0.0285
      6  CG        25.8680   40.0970    7.5820 C.3    28  LYS28       0.0035
      7  CD        27.3740   40.2710    7.4490 C.3    28  LYS28       0.0206
      8  CE        28.0820   40.0840    8.7850 C.3    28  LYS28       0.1093
      9  NZ        29.5520   40.3110    8.6520 N.3    28  LYS28      -0.1314
     10  N         23.9400   42.2680   10.8600 N.am   29  ASP29      -0.1974
     11  CA        24.1150   43.4240   11.7610 C.3    29  ASP29       0.1709
     12  C         22.8280   44.2210   11.9530 C.2    29  ASP29       0.2293
     13  O         22.8340   45.4540   11.8980 O.2    29  ASP29      -0.2864
     14  CB        25.1990   44.3870   11.2360 C.3    29  ASP29       0.1436
     15  CG        26.4990   43.6930   10.8340 C.2    29  ASP29       0.3671
     16  OD1       26.8960   42.6900   11.4570 O.co2  29  ASP29      -0.2456
     17  OD2       27.1470   44.1940    9.8900 O.co2  29  ASP29      -0.2456
     18  N         23.2490   45.4410    7.3850 N.3    44  SER44      -0.1217
     19  CA        24.3280   45.4150    6.4210 C.3    44  SER44       0.1889
     20  C         24.0190   44.3690    5.3560 C.2    44  SER44       0.2288
     21  O         23.2420   43.4370    5.5860 O.2    44  SER44      -0.2866
     22  CB        25.6490   45.0570    7.1020 C.3    44  SER44       0.2089
     23  OG        25.9290   45.9420    8.1740 O.3    44  SER44      -0.2183
     24  N         30.7240   45.4470    1.3840 N.3    51  TYR51      -0.1241
     25  CA        29.6160   45.6040    2.3210 C.3    51  TYR51       0.1605
     26  C         28.7670   46.8170    1.9760 C.2    51  TYR51       0.2264
     27  O         29.2910   47.8870    1.6500 O.2    51  TYR51      -0.2867
     28  CB        30.1280   45.7480    3.7550 C.3    51  TYR51       0.0534
     29  CG        30.6430   44.4740    4.3770 C.ar   51  TYR51      -0.0201
     30  CD1       29.7750   43.5740    5.0010 C.ar   51  TYR51      -0.0009
     31  CD2       32.0020   44.1720    4.3560 C.ar   51  TYR51      -0.0009
     32  CE1       30.2520   42.4040    5.5770 C.ar   51  TYR51       0.0417
     33  CE2       32.4870   43.0070    4.9340 C.ar   51  TYR51       0.0417
     34  CZ        31.6110   42.1290    5.5390 C.ar   51  TYR51       0.1957
     35  OH        32.1070   40.9810    6.1050 O.3    51  TYR51      -0.2866
     36  N         27.0410   50.7230    7.0120 N.3    78  VAL78      -0.1231
     37  CA        27.4020   49.4150    7.5620 C.3    78  VAL78       0.1692
     38  C         27.2360   49.3620    9.0860 C.2    78  VAL78       0.2591
     39  O         27.5920   50.3100    9.7930 O.2    78  VAL78      -0.2718
     40  CB        28.8280   48.9920    7.1310 C.3    78  VAL78       0.0266
     41  CG1       29.2000   47.6430    7.7300 C.3    78  VAL78       0.0020
     42  CG2       28.9270   48.9260    5.6080 C.3    78  VAL78       0.0020
     43  N         26.6940   48.2440    9.5730 N.am   79  ALA79      -0.1980
     44  CA        26.4440   48.0260   11.0030 C.3    79  ALA79       0.1597
     45  C         25.6490   49.1980   11.5980 C.2    79  ALA79       0.2287
     46  O         26.1320   49.8940   12.5030 O.2    79  ALA79      -0.2864
     47  CB        27.7600   47.7970   11.7540 C.3    79  ALA79       0.0319
     48  N         29.1500   52.8730   10.5300 N.3    96  GLN96      -0.1231
     49  CA        30.6000   52.9160   10.3810 C.3    96  GLN96       0.1698
     50  C         30.9930   52.8960    8.9050 C.2    96  GLN96       0.2592
     51  O         30.1640   52.6090    8.0380 O.2    96  GLN96      -0.2718
     52  CB        31.2370   51.7260   11.0970 C.3    96  GLN96       0.0381
     53  CG        30.9660   50.3820   10.4200 C.3    96  GLN96       0.0905
     54  CD        31.1770   49.1930   11.3340 C.2    96  GLN96       0.2608
     55  OE1       30.9870   49.2780   12.5520 O.2    96  GLN96      -0.2717
     56  NE2       31.5610   48.0620   10.7450 N.am   96  GLN96      -0.0878
     57  N         32.2680   53.1850    8.6510 N.am   97  TRP97      -0.1976
     58  CA        32.8870   53.1580    7.3150 C.3    97  TRP97       0.1640
     59  C         32.3620   54.2830    6.4190 C.2    97  TRP97       0.2290
     60  O         31.2810   54.1940    5.8360 O.2    97  TRP97      -0.2864
     61  CB        32.7980   51.7740    6.6460 C.3    97  TRP97       0.0576
     62  CG        33.3310   50.6300    7.5120 C.ar   97  TRP97       0.0006
     63  CD1       34.0790   50.7370    8.6600 C.ar   97  TRP97       0.0946
     64  CD2       33.1730   49.2230    7.2740 C.ar   97  TRP97       0.0152
     65  NE1       34.3740   49.4910    9.1540 N.ar   97  TRP97      -0.2442
     66  CE2       33.8320   48.5440    8.3240 C.ar   97  TRP97       0.0810
     67  CE3       32.5370   48.4710    6.2730 C.ar   97  TRP97       0.0012
     68  CZ2       33.8750   47.1470    8.4060 C.ar   97  TRP97       0.0191
     69  CZ3       32.5800   47.0750    6.3570 C.ar   97  TRP97       0.0001
     70  CH2       33.2440   46.4320    7.4180 C.ar   97  TRP97       0.0015
     71  N         34.4150   49.8480   15.9570 N.3   135  ILE135     -0.1231
     72  CA        33.4720   49.0220   15.2080 C.3   135  ILE135      0.1692
     73  C         32.1850   48.8370   16.0170 C.2   135  ILE135      0.2592
     74  O         32.2100   48.8650   17.2550 O.2   135  ILE135     -0.2718
     75  CB        34.1200   47.6540   14.8470 C.3   135  ILE135      0.0266
     76  CG1       33.3460   46.9270   13.7380 C.3   135  ILE135      0.0019
     77  CG2       34.2880   46.7680   16.0800 C.3   135  ILE135      0.0020
     78  CD1       34.1100   45.7740   13.1010 C.3   135  ILE135      0.0001
     79  N         31.0680   48.6660   15.3090 N.am  136  ASP136     -0.1974
     80  CA        29.7860   48.2990   15.9150 C.3   136  ASP136      0.1709
     81  C         29.3230   49.2600   17.0080 C.2   136  ASP136      0.2293
     82  O         29.0750   48.8540   18.1480 O.2   136  ASP136     -0.2864
     83  CB        29.8270   46.8560   16.4290 C.3   136  ASP136      0.1436
     84  CG        29.9790   45.8490   15.3040 C.2   136  ASP136      0.3671
     85  OD1       29.7990   46.2430   14.1230 O.co2 136  ASP136     -0.2456
     86  OD2       30.2810   44.6750   15.6030 O.co2 136  ASP136     -0.2456
     87  N         32.8080   42.0840   19.5390 N.3   188  GLU188     -0.1245
     88  CA        32.1060   43.1130   18.7610 C.3   188  GLU188      0.1567
     89  C         30.6000   43.0890   19.0370 C.2   188  GLU188      0.2260
     90  O         30.1710   42.4870   20.0190 O.2   188  GLU188     -0.2867
     91  CB        32.4270   42.9630   17.2590 C.3   188  GLU188      0.0388
     92  CG        32.0100   41.6330   16.6390 C.3   188  GLU188      0.1160
     93  CD        32.5950   41.3980   15.2530 C.2   188  GLU188      0.3649
     94  OE1       33.4820   42.1620   14.8120 O.co2 188  GLU188     -0.2457
     95  OE2       32.1730   40.4300   14.5920 O.co2 188  GLU188     -0.2457
     96  N         25.7440   39.3430   15.7690 N.3   254  HIS254     -0.1241
     97  CA        25.3300   40.7590   15.6860 C.3   254  HIS254      0.1621
     98  C         23.8720   41.0470   15.2720 C.2   254  HIS254      0.2264
     99  O         23.4870   40.8470   14.1170 O.2   254  HIS254     -0.2867
    100  CB        26.2820   41.5070   14.7400 C.3   254  HIS254      0.0745
    101  CG        26.2170   43.0040   14.8500 C.ar  254  HIS254      0.0817
    102  ND1       27.2040   43.8220   14.3470 N.ar  254  HIS254     -0.2268
    103  CD2       25.2960   43.8260   15.4060 C.ar  254  HIS254      0.1154
    104  CE1       26.8940   45.0850   14.5850 C.ar  254  HIS254      0.1986
    105  NE2       25.7410   45.1150   15.2250 N.ar  254  HIS254     -0.2212
    106  N         21.7630   37.6500   13.6370 N.3   278  GLN278     -0.1245
    107  CA        22.2600   36.9950   12.4350 C.3   278  GLN278      0.1566
    108  C         22.8180   35.6200   12.8080 C.2   278  GLN278      0.2260
    109  O         23.4680   35.4510   13.8520 O.2   278  GLN278     -0.2867
    110  CB        23.3110   37.8500   11.7110 C.3   278  GLN278      0.0367
    111  CG        24.6240   38.0200   12.4730 C.3   278  GLN278      0.0905
    112  CD        25.6310   38.9200   11.7760 C.2   278  GLN278      0.2608
    113  OE1       25.2940   39.6610   10.8630 O.2   278  GLN278     -0.2717
    114  NE2       26.8790   38.8670   12.2240 N.am  278  GLN278     -0.0878
    115  N         35.4660   34.8690    5.6360 N.3   288  TYR288     -0.1241
    116  CA        34.4540   35.4700    6.5070 C.3   288  TYR288      0.1605
    117  C         33.4850   36.3970    5.7560 C.2   288  TYR288      0.2264
    118  O         32.2750   36.3670    5.9930 O.2   288  TYR288     -0.2867
    119  CB        35.1070   36.2250    7.6800 C.3   288  TYR288      0.0534
    120  CG        34.0810   36.9610    8.5150 C.ar  288  TYR288     -0.0201
    121  CD1       33.4120   36.3190    9.5610 C.ar  288  TYR288     -0.0009
    122  CD2       33.7360   38.2850    8.2220 C.ar  288  TYR288     -0.0009
    123  CE1       32.4500   36.9850   10.3090 C.ar  288  TYR288      0.0417
    124  CE2       32.7730   38.9550    8.9590 C.ar  288  TYR288      0.0417
    125  CZ        32.1370   38.3020    9.9960 C.ar  288  TYR288      0.1957
    126  OH        31.1830   38.9720   10.7230 O.3   288  TYR288     -0.2866
@<TRIPOS>BOND
     1    24    25    1
     2    27    26    2
     3    26    25    1
     4    25    28    1
     5    28    29    1
     6    31    29   ar
     7    31    33   ar
     8    29    30   ar
     9    33    34   ar
    10    30    32   ar
    11    20    21    2
    12    20    19    1
    13    34    32   ar
    14    34    35    1
    15    42    40    1
    16   115   116    1
    17   117   118    2
    18   117   116    1
    19    60    59    2
    20    67    69   ar
    21    67    64   ar
    22    69    70   ar
    23    59    58    1
    24    19    22    1
    25    19    18    1
    26   116   119    1
    27    61    58    1
    28    61    62    1
    29    36    37    1
    30    22    23    1
    31    40    37    1
    32    40    41    1
    33    64    62   ar
    34    64    66   ar
    35    58    57    1
    36    70    68   ar
    37     7     6    1
    38     7     8    1
    39     1     2    1
    40    62    63   ar
    41    37    38    1
    42     6     5    1
    43   119   120    1
    44    51    50    2
    45   122   120   ar
    46   122   124   ar
    47     5     2    1
    48    66    68   ar
    49    66    65   ar
    50   120   121   ar
    51    57    50   am
    52     9     8    1
    53    63    65   ar
    54     2     3    1
    55    50    49    1
    56   124   125   ar
    57    38    43   am
    58    38    39    2
    59     4     3    2
    60   121   123   ar
    61    43    44    1
    62     3    10   am
    63    17    15   ar
    64   125   123   ar
    65   125   126    1
    66    49    48    1
    67    49    52    1
    68    53    52    1
    69    53    54    1
    70    56    54   am
    71    15    14    1
    72    15    16   ar
    73    10    11    1
    74   113   112    2
    75    44    45    1
    76    44    47    1
    77    14    11    1
    78    54    55    2
    79    45    46    2
    80   110   107    1
    81   110   111    1
    82    11    12    1
    83   112   114   am
    84   112   111    1
    85    13    12    2
    86   107   108    1
    87   107   106    1
    88   108   109    2
    89    78    76    1
    90    76    75    1
    91    99    98    2
    92    85    84   ar
    93   102   104   ar
    94   102   101   ar
    95   104   105   ar
    96    95    93   ar
    97   100   101    1
    98   100    97    1
    99    94    93   ar
   100    75    72    1
   101    75    77    1
   102   101   103   ar
   103    72    71    1
   104    72    73    1
   105   105   103   ar
   106    93    92    1
   107    98    97    1
   108    84    86   ar
   109    84    83    1
   110    79    80    1
   111    79    73   am
   112    97    96    1
   113    80    83    1
   114    80    81    1
   115    73    74    2
   116    92    91    1
   117    81    82    2
   118    91    88    1
   119    88    89    1
   120    88    87    1
   121    89    90    2
