@<TRIPOS>MOLECULE
tmp/3wn1A01.pdb
 125 120 0 0 0
SMALL
GASTEIGER

@<TRIPOS>ATOM
      1  N         30.6570   44.8230    2.0360 N.3    51  TYR51      -0.1241
      2  CA        29.4400   44.9950    2.8260 C.3    51  TYR51       0.1605
      3  C         28.6710   46.2390    2.4210 C.2    51  TYR51       0.2264
      4  O         29.2570   47.2940    2.2000 O.2    51  TYR51      -0.2867
      5  CB        29.7590   45.0710    4.3220 C.3    51  TYR51       0.0534
      6  CG        30.3550   43.8150    4.8810 C.ar   51  TYR51      -0.0201
      7  CD1       29.5490   42.7330    5.2130 C.ar   51  TYR51      -0.0009
      8  CD2       31.7350   43.6990    5.0670 C.ar   51  TYR51      -0.0009
      9  CE1       30.0940   41.5710    5.7240 C.ar   51  TYR51       0.0417
     10  CE2       32.2920   42.5380    5.5750 C.ar   51  TYR51       0.0417
     11  CZ        31.4640   41.4810    5.8990 C.ar   51  TYR51       0.1957
     12  OH        31.9980   40.3280    6.4040 O.3    51  TYR51      -0.2866
     13  N         32.2030   52.8860    8.9340 N.3    97  TRP97      -0.1241
     14  CA        32.8760   52.8860    7.6210 C.3    97  TRP97       0.1605
     15  C         32.3760   53.9630    6.6630 C.2    97  TRP97       0.2264
     16  O         31.2550   53.9020    6.1570 O.2    97  TRP97      -0.2867
     17  CB        32.8710   51.5080    6.9470 C.3    97  TRP97       0.0550
     18  CG        33.4110   50.3780    7.8070 C.ar   97  TRP97       0.0003
     19  CD1       34.0860   50.4830    9.0000 C.ar   97  TRP97       0.0946
     20  CD2       33.3430   48.9790    7.5100 C.ar   97  TRP97       0.0152
     21  NE1       34.4230   49.2350    9.4630 N.ar   97  TRP97      -0.2442
     22  CE2       33.9780   48.2940    8.5680 C.ar   97  TRP97       0.0810
     23  CE3       32.8030   48.2370    6.4470 C.ar   97  TRP97       0.0012
     24  CZ2       34.0800   46.9020    8.6020 C.ar   97  TRP97       0.0191
     25  CZ3       32.9090   46.8550    6.4780 C.ar   97  TRP97       0.0001
     26  CH2       33.5440   46.2010    7.5490 C.ar   97  TRP97       0.0015
     27  N         42.7490   45.0050   15.0380 N.3   131  ASP131     -0.1225
     28  CA        42.8430   44.8220   13.5870 C.3   131  ASP131      0.1805
     29  C         41.7410   45.5740   12.8410 C.2   131  ASP131      0.2598
     30  O         41.9010   45.9070   11.6620 O.2   131  ASP131     -0.2718
     31  CB        42.7750   43.3290   13.2260 C.3   131  ASP131      0.1424
     32  CG        43.9680   42.5400   13.7520 C.2   131  ASP131      0.3668
     33  OD1       45.0970   43.0710   13.7080 O.co2 131  ASP131     -0.2456
     34  OD2       43.7770   41.3870   14.2070 O.co2 131  ASP131     -0.2456
     35  N         40.6330   45.8480   13.5260 N.am  132  THR132     -0.1953
     36  CA        39.4520   46.4380   12.8760 C.3   132  THR132      0.1897
     37  C         39.3120   47.9450   13.0780 C.2   132  THR132      0.2313
     38  O         38.6950   48.6340   12.2610 O.2   132  THR132     -0.2863
     39  CB        38.1500   45.7670   13.3730 C.3   132  THR132      0.1794
     40  OG1       38.0730   45.8570   14.8030 O.3   132  THR132     -0.2208
     41  CG2       38.1080   44.2970   12.9670 C.3   132  THR132      0.0378
     42  N         34.4080   49.2160   16.1850 N.3   135  ILE135     -0.1245
     43  CA        33.4540   48.3850   15.4470 C.3   135  ILE135      0.1561
     44  C         32.1480   48.2330   16.2370 C.2   135  ILE135      0.2260
     45  O         32.1510   48.2500   17.4810 O.2   135  ILE135     -0.2867
     46  CB        34.0890   47.0030   15.1040 C.3   135  ILE135      0.0252
     47  CG1       33.3640   46.2990   13.9430 C.3   135  ILE135      0.0019
     48  CG2       34.1760   46.1030   16.3300 C.3   135  ILE135      0.0019
     49  CD1       34.1470   45.1420   13.3380 C.3   135  ILE135      0.0001
     50  N         37.0530   44.1940   18.3020 N.3   153  ASP153     -0.1239
     51  CA        37.5340   42.8490   17.9760 C.3   153  ASP153      0.1674
     52  C         38.7980   42.4910   18.7710 C.2   153  ASP153      0.2266
     53  O         39.6940   41.8150   18.2560 O.2   153  ASP153     -0.2867
     54  CB        37.7820   42.7160   16.4680 C.3   153  ASP153      0.1410
     55  CG        36.5210   42.3490   15.7030 C.2   153  ASP153      0.3668
     56  OD1       35.4070   42.5830   16.2350 O.co2 153  ASP153     -0.2456
     57  OD2       36.6490   41.8340   14.5710 O.co2 153  ASP153     -0.2456
     58  N         40.1400   38.4570   23.7100 N.3   183  LYS183     -0.1245
     59  CA        39.4940   38.7140   22.4290 C.3   183  LYS183      0.1561
     60  C         38.2250   37.8680   22.2710 C.2   183  LYS183      0.2260
     61  O         37.1870   38.3720   21.8300 O.2   183  LYS183     -0.2867
     62  CB        40.4800   38.4350   21.2890 C.3   183  LYS183      0.0271
     63  CG        39.9420   38.6830   19.8870 C.3   183  LYS183      0.0035
     64  CD        40.9110   38.1960   18.8200 C.3   183  LYS183      0.0206
     65  CE        42.2140   38.9840   18.8500 C.3   183  LYS183      0.1093
     66  NZ        43.1690   38.5550   17.7840 N.3   183  LYS183     -0.1314
     67  N         34.2150   40.2890   22.1270 N.3   187  PHE187     -0.1227
     68  CA        34.6570   40.4010   20.7480 C.3   187  PHE187      0.1736
     69  C         34.0500   41.5930   19.9940 C.2   187  PHE187      0.2595
     70  O         34.7880   42.4960   19.5780 O.2   187  PHE187     -0.2718
     71  CB        34.4610   39.0660   20.0100 C.3   187  PHE187      0.0547
     72  CG        35.1860   38.9900   18.6910 C.ar  187  PHE187     -0.0202
     73  CD1       36.5530   39.2710   18.6110 C.ar  187  PHE187     -0.0042
     74  CD2       34.5080   38.6300   17.5320 C.ar  187  PHE187     -0.0042
     75  CE1       37.2210   39.2050   17.3990 C.ar  187  PHE187     -0.0003
     76  CE2       35.1750   38.5530   16.3160 C.ar  187  PHE187     -0.0003
     77  CZ        36.5290   38.8470   16.2470 C.ar  187  PHE187     -0.0000
     78  N         32.7240   41.5990   19.8240 N.am  188  GLU188     -0.1979
     79  CA        32.0400   42.6090   18.9920 C.3   188  GLU188      0.1602
     80  C         30.5260   42.5740   19.2440 C.2   188  GLU188      0.2287
     81  O         30.0870   41.9970   20.2340 O.2   188  GLU188     -0.2864
     82  CB        32.3840   42.4220   17.4950 C.3   188  GLU188      0.0415
     83  CG        31.9540   41.0810   16.9040 C.3   188  GLU188      0.1163
     84  CD        32.4650   40.8270   15.4880 C.2   188  GLU188      0.3649
     85  OE1       33.3560   41.5510   14.9970 O.co2 188  GLU188     -0.2457
     86  OE2       31.9760   39.8740   14.8480 O.co2 188  GLU188     -0.2457
     87  N         33.2550   34.6730   20.9840 N.3   208  MET208     -0.1245
     88  CA        33.5700   33.5150   20.1580 C.3   208  MET208      0.1570
     89  C         33.7200   32.3100   21.0700 C.2   208  MET208      0.2261
     90  O         34.6860   32.2180   21.8320 O.2   208  MET208     -0.2867
     91  CB        34.8530   33.7410   19.3580 C.3   208  MET208      0.0387
     92  CG        34.7530   34.8380   18.3090 C.3   208  MET208      0.0595
     93  SD        36.2900   35.0590   17.3890 S.3   208  MET208     -0.1393
     94  CE        37.3770   35.6740   18.6720 C.3   208  MET208      0.0692
     95  N         29.4160   31.4220   17.7650 N.3   213  ARG213     -0.1245
     96  CA        29.1760   32.7500   18.3190 C.3   213  ARG213      0.1563
     97  C         28.0510   32.6870   19.3500 C.2   213  ARG213      0.2260
     98  O         27.0520   31.9640   19.1710 O.2   213  ARG213     -0.2867
     99  CB        28.8410   33.7540   17.2100 C.3   213  ARG213      0.0307
    100  CG        29.9030   33.9140   16.1260 C.3   213  ARG213      0.0489
    101  CD        31.2550   34.3640   16.6870 C.3   213  ARG213      0.2205
    102  NE        32.2160   34.6870   15.6260 N.pl3 213  ARG213     -0.0865
    103  CZ        32.4120   35.9040   15.1160 C.cat 213  ARG213      0.5346
    104  NH1       31.7120   36.9550   15.5560 N.pl3 213  ARG213      0.1354
    105  NH2       33.3140   36.0770   14.1580 N.pl3 213  ARG213      0.1354
    106  N         35.3560   34.3660    6.1480 N.3   288  TYR288     -0.1227
    107  CA        34.3270   35.0110    6.9750 C.3   288  TYR288      0.1736
    108  C         33.3820   35.8890    6.1550 C.2   288  TYR288      0.2595
    109  O         32.1650   35.8200    6.3290 O.2   288  TYR288     -0.2718
    110  CB        34.9400   35.8310    8.1230 C.3   288  TYR288      0.0548
    111  CG        33.8860   36.5790    8.9190 C.ar  288  TYR288     -0.0200
    112  CD1       33.2260   35.9660    9.9830 C.ar  288  TYR288     -0.0009
    113  CD2       33.5260   37.8850    8.5790 C.ar  288  TYR288     -0.0009
    114  CE1       32.2520   36.6410   10.7050 C.ar  288  TYR288      0.0417
    115  CE2       32.5470   38.5670    9.2870 C.ar  288  TYR288      0.0417
    116  CZ        31.9190   37.9410   10.3460 C.ar  288  TYR288      0.1957
    117  OH        30.9540   38.6130   11.0470 O.3   288  TYR288     -0.2866
    118  N         33.9390   36.7020    5.2630 N.am  289  ASN289     -0.1974
    119  CA        33.1510   37.6720    4.5060 C.3   289  ASN289      0.1688
    120  C         32.1230   37.0510    3.5540 C.2   289  ASN289      0.2292
    121  O         31.2130   37.7360    3.0870 O.2   289  ASN289     -0.2864
    122  CB        34.0580   38.6590    3.7460 C.3   289  ASN289      0.1181
    123  CG        34.8280   39.5950    4.6770 C.2   289  ASN289      0.2629
    124  OD1       34.4470   39.8180    5.8330 O.2   289  ASN289     -0.2716
    125  ND2       35.9150   40.1570    4.1680 N.am  289  ASN289     -0.0877
@<TRIPOS>BOND
     1     1     2    1
     2     4     3    2
     3     3     2    1
     4     2     5    1
     5   121   120    2
     6   120   119    1
     7   122   119    1
     8   122   123    1
     9   125   123   am
    10     5     6    1
    11   119   118    1
    12   123   124    2
    13     6     8   ar
    14     6     7   ar
    15     8    10   ar
    16     7     9   ar
    17   118   108   am
    18    10    11   ar
    19     9    11   ar
    20    11    12    1
    21   106   107    1
    22   108   109    2
    23   108   107    1
    24    16    15    2
    25    23    25   ar
    26    23    20   ar
    27    25    26   ar
    28    15    14    1
    29    17    14    1
    30    17    18    1
    31   107   110    1
    32    20    18   ar
    33    20    22   ar
    34    26    24   ar
    35    14    13    1
    36    18    19   ar
    37   110   111    1
    38    22    24   ar
    39    22    21   ar
    40   113   111   ar
    41   113   115   ar
    42   111   112   ar
    43    19    21   ar
    44   115   116   ar
    45   112   114   ar
    46   116   114   ar
    47   116   117    1
    48    30    29    2
    49    38    37    2
    50    29    35   am
    51    29    28    1
    52    36    37    1
    53    36    39    1
    54    36    35    1
    55    41    39    1
    56    31    28    1
    57    31    32    1
    58    49    47    1
    59    39    40    1
    60    28    27    1
    61    33    32   ar
    62    32    34   ar
    63    47    46    1
    64   105   103    1
    65    57    55   ar
    66    86    84   ar
    67    85    84   ar
    68    46    43    1
    69    46    48    1
    70   103   104    1
    71   103   102    2
    72    43    42    1
    73    43    44    1
    74    84    83    1
    75   102   101    1
    76    55    56   ar
    77    55    54    1
    78   100   101    1
    79   100    99    1
    80    44    45    2
    81    77    76   ar
    82    77    75   ar
    83    76    74   ar
    84    54    51    1
    85    83    82    1
    86    99    96    1
    87    93    92    1
    88    93    94    1
    89    75    73   ar
    90    82    79    1
    91    74    72   ar
    92    95    96    1
    93    66    65    1
    94    51    50    1
    95    51    52    1
    96    53    52    2
    97    92    91    1
    98    96    97    1
    99    73    72   ar
   100    72    71    1
   101    64    65    1
   102    64    63    1
   103    79    80    1
   104    79    78    1
   105    98    97    2
   106    80    81    2
   107    91    88    1
   108    70    69    2
   109    78    69   am
   110    63    62    1
   111    69    68    1
   112    71    68    1
   113    88    87    1
   114    88    89    1
   115    68    67    1
   116    89    90    2
   117    62    59    1
   118    61    60    2
   119    60    59    1
   120    59    58    1
