@<TRIPOS>MOLECULE
tmp/3wn2A01.pdb
 129 124 0 0 0
SMALL
GASTEIGER

@<TRIPOS>ATOM
      1  N         30.5590   44.4970    2.0210 N.3    51  TYR51      -0.1241
      2  CA        29.3370   44.6870    2.7830 C.3    51  TYR51       0.1605
      3  C         28.5950   45.9230    2.3320 C.2    51  TYR51       0.2264
      4  O         29.2020   46.9250    1.9760 O.2    51  TYR51      -0.2867
      5  CB        29.6360   44.7830    4.2750 C.3    51  TYR51       0.0534
      6  CG        30.2580   43.5410    4.8360 C.ar   51  TYR51      -0.0201
      7  CD1       29.4690   42.4690    5.2220 C.ar   51  TYR51      -0.0009
      8  CD2       31.6440   43.4330    4.9770 C.ar   51  TYR51      -0.0009
      9  CE1       30.0340   41.3220    5.7440 C.ar   51  TYR51       0.0417
     10  CE2       32.2240   42.2860    5.4960 C.ar   51  TYR51       0.0417
     11  CZ        31.4090   41.2350    5.8770 C.ar   51  TYR51       0.1957
     12  OH        31.9540   40.0870    6.3960 O.3    51  TYR51      -0.2866
     13  N         32.2760   52.6660    8.9430 N.3    97  TRP97      -0.1227
     14  CA        33.0040   52.6940    7.6560 C.3    97  TRP97       0.1737
     15  C         32.5100   53.7560    6.6830 C.2    97  TRP97       0.2596
     16  O         31.3610   53.7310    6.2330 O.2    97  TRP97      -0.2718
     17  CB        33.0430   51.3240    6.9610 C.3    97  TRP97       0.0564
     18  CG        33.4970   50.1780    7.8350 C.ar   97  TRP97       0.0003
     19  CD1       34.1520   50.2530    9.0330 C.ar   97  TRP97       0.0946
     20  CD2       33.3570   48.7820    7.5420 C.ar   97  TRP97       0.0152
     21  NE1       34.4080   48.9920    9.5130 N.ar   97  TRP97      -0.2442
     22  CE2       33.9280   48.0710    8.6170 C.ar   97  TRP97       0.0810
     23  CE3       32.7950   48.0660    6.4760 C.ar   97  TRP97       0.0012
     24  CZ2       33.9510   46.6740    8.6620 C.ar   97  TRP97       0.0191
     25  CZ3       32.8220   46.6760    6.5190 C.ar   97  TRP97       0.0001
     26  CH2       33.3960   45.9970    7.6050 C.ar   97  TRP97       0.0015
     27  N         33.4200   54.6610    6.3420 N.am   98  GLY98      -0.1957
     28  CA        33.1490   55.7800    5.4480 C.3    98  GLY98       0.1869
     29  C         34.1780   56.8360    5.7810 C.2    98  GLY98       0.2309
     30  O         35.3160   56.4990    6.0970 O.2    98  GLY98      -0.2863
     31  N         42.7130   44.6830   14.8420 N.3   131  ASP131     -0.1225
     32  CA        42.8590   44.5370   13.3880 C.3   131  ASP131      0.1805
     33  C         41.7650   45.2840   12.6450 C.2   131  ASP131      0.2598
     34  O         41.9270   45.6170   11.4650 O.2   131  ASP131     -0.2718
     35  CB        42.8360   43.0600   12.9790 C.3   131  ASP131      0.1424
     36  CG        43.9840   42.2650   13.5850 C.2   131  ASP131      0.3668
     37  OD1       45.1090   42.8080   13.6660 O.co2 131  ASP131     -0.2456
     38  OD2       43.7590   41.0990   13.9810 O.co2 131  ASP131     -0.2456
     39  N         40.6550   45.5520   13.3300 N.am  132  THR132     -0.1953
     40  CA        39.4710   46.1310   12.6820 C.3   132  THR132      0.1897
     41  C         39.3190   47.6360   12.8890 C.2   132  THR132      0.2313
     42  O         38.7130   48.3150   12.0650 O.2   132  THR132     -0.2863
     43  CB        38.1730   45.4650   13.1900 C.3   132  THR132      0.1794
     44  OG1       38.0980   45.5920   14.6160 O.3   132  THR132     -0.2208
     45  CG2       38.1290   43.9790   12.8020 C.3   132  THR132      0.0378
     46  N         34.4370   48.9610   16.1010 N.3   135  ILE135     -0.1245
     47  CA        33.4840   48.1140   15.3820 C.3   135  ILE135      0.1561
     48  C         32.1850   47.9710   16.1790 C.2   135  ILE135      0.2260
     49  O         32.2010   48.0110   17.4190 O.2   135  ILE135     -0.2867
     50  CB        34.1230   46.7280   15.0390 C.3   135  ILE135      0.0252
     51  CG1       33.3380   45.9900   13.9430 C.3   135  ILE135      0.0019
     52  CG2       34.3170   45.8640   16.2800 C.3   135  ILE135      0.0019
     53  CD1       34.0660   44.7860   13.3600 C.3   135  ILE135      0.0001
     54  N         37.0690   43.9270   18.2180 N.3   153  ASP153     -0.1239
     55  CA        37.5170   42.5770   17.8800 C.3   153  ASP153      0.1674
     56  C         38.7970   42.2160   18.6470 C.2   153  ASP153      0.2266
     57  O         39.6770   41.5440   18.1120 O.2   153  ASP153     -0.2867
     58  CB        37.7390   42.4380   16.3640 C.3   153  ASP153      0.1410
     59  CG        36.4580   42.0850   15.6050 C.2   153  ASP153      0.3668
     60  OD1       35.3450   42.3420   16.1180 O.co2 153  ASP153     -0.2456
     61  OD2       36.5740   41.5620   14.4770 O.co2 153  ASP153     -0.2456
     62  N         40.1740   38.2380   23.6280 N.3   183  LYS183     -0.1245
     63  CA        39.5070   38.4940   22.3600 C.3   183  LYS183      0.1561
     64  C         38.2360   37.6370   22.1960 C.2   183  LYS183      0.2260
     65  O         37.1810   38.1500   21.7900 O.2   183  LYS183     -0.2867
     66  CB        40.5150   38.2680   21.2230 C.3   183  LYS183      0.0271
     67  CG        39.9610   38.2450   19.8110 C.3   183  LYS183      0.0035
     68  CD        41.0910   38.0420   18.8070 C.3   183  LYS183      0.0206
     69  CE        40.5430   37.6840   17.4320 C.3   183  LYS183      0.1093
     70  NZ        41.5200   37.9340   16.3320 N.3   183  LYS183     -0.1314
     71  N         34.2350   39.9830   22.0380 N.3   187  PHE187     -0.1227
     72  CA        34.6770   40.0960   20.6550 C.3   187  PHE187      0.1736
     73  C         34.0730   41.2960   19.9070 C.2   187  PHE187      0.2595
     74  O         34.8050   42.2200   19.5240 O.2   187  PHE187     -0.2718
     75  CB        34.4830   38.7600   19.9170 C.3   187  PHE187      0.0547
     76  CG        35.1780   38.6980   18.5860 C.ar  187  PHE187     -0.0202
     77  CD1       36.5380   38.9960   18.4780 C.ar  187  PHE187     -0.0042
     78  CD2       34.4760   38.3340   17.4420 C.ar  187  PHE187     -0.0042
     79  CE1       37.1710   38.9500   17.2490 C.ar  187  PHE187     -0.0003
     80  CE2       35.1070   38.2750   16.2100 C.ar  187  PHE187     -0.0003
     81  CZ        36.4560   38.5890   16.1110 C.ar  187  PHE187     -0.0000
     82  N         32.7520   41.2980   19.7180 N.am  188  GLU188     -0.1979
     83  CA        32.0810   42.3400   18.9300 C.3   188  GLU188      0.1602
     84  C         30.5780   42.3100   19.2050 C.2   188  GLU188      0.2287
     85  O         30.1500   41.7430   20.2170 O.2   188  GLU188     -0.2864
     86  CB        32.3840   42.1630   17.4260 C.3   188  GLU188      0.0415
     87  CG        31.8860   40.8420   16.8470 C.3   188  GLU188      0.1163
     88  CD        32.4020   40.5450   15.4410 C.2   188  GLU188      0.3649
     89  OE1       33.2930   41.2560   14.9290 O.co2 188  GLU188     -0.2457
     90  OE2       31.9040   39.5760   14.8350 O.co2 188  GLU188     -0.2457
     91  N         33.2720   34.4230   20.9330 N.3   208  MET208     -0.1245
     92  CA        33.5710   33.2450   20.1250 C.3   208  MET208      0.1570
     93  C         33.6720   32.0460   21.0600 C.2   208  MET208      0.2261
     94  O         34.5800   31.9640   21.8880 O.2   208  MET208     -0.2867
     95  CB        34.8670   33.4310   19.3240 C.3   208  MET208      0.0387
     96  CG        34.7690   34.4630   18.2090 C.3   208  MET208      0.0595
     97  SD        36.2830   34.6690   17.2340 S.3   208  MET208     -0.1393
     98  CE        37.3820   35.3880   18.4550 C.3   208  MET208      0.0692
     99  N         29.4210   31.2150   17.7350 N.3   213  ARG213     -0.1245
    100  CA        29.1620   32.5280   18.3100 C.3   213  ARG213      0.1563
    101  C         28.0370   32.4420   19.3400 C.2   213  ARG213      0.2260
    102  O         27.0520   31.7220   19.1500 O.2   213  ARG213     -0.2867
    103  CB        28.8170   33.5430   17.2180 C.3   213  ARG213      0.0307
    104  CG        29.8600   33.6740   16.1140 C.3   213  ARG213      0.0489
    105  CD        31.2190   34.1190   16.6490 C.3   213  ARG213      0.2205
    106  NE        32.1690   34.4260   15.5750 N.pl3 213  ARG213     -0.0865
    107  CZ        32.3590   35.6350   15.0450 C.cat 213  ARG213      0.5346
    108  NH1       31.6630   36.6920   15.4740 N.pl3 213  ARG213      0.1354
    109  NH2       33.2500   35.7910   14.0780 N.pl3 213  ARG213      0.1354
    110  N         35.2490   34.1020    6.0830 N.3   288  TYR288     -0.1227
    111  CA        34.2590   34.7860    6.9330 C.3   288  TYR288      0.1736
    112  C         33.3040   35.6690    6.1310 C.2   288  TYR288      0.2595
    113  O         32.0900   35.5720    6.2990 O.2   288  TYR288     -0.2718
    114  CB        34.9050   35.6010    8.0720 C.3   288  TYR288      0.0548
    115  CG        33.8550   36.3240    8.8960 C.ar  288  TYR288     -0.0200
    116  CD1       33.2260   35.6980    9.9770 C.ar  288  TYR288     -0.0009
    117  CD2       33.4530   37.6120    8.5550 C.ar  288  TYR288     -0.0009
    118  CE1       32.2440   36.3540   10.7110 C.ar  288  TYR288      0.0417
    119  CE2       32.4710   38.2750    9.2780 C.ar  288  TYR288      0.0417
    120  CZ        31.8720   37.6470   10.3480 C.ar  288  TYR288      0.1957
    121  OH        30.8960   38.3200   11.0400 O.3   288  TYR288     -0.2866
    122  N         33.8450   36.5090    5.2530 N.am  289  ASN289     -0.1974
    123  CA        33.0320   37.4810    4.5210 C.3   289  ASN289      0.1688
    124  C         32.0050   36.8540    3.5660 C.2   289  ASN289      0.2292
    125  O         31.0840   37.5330    3.1130 O.2   289  ASN289     -0.2864
    126  CB        33.9180   38.4980    3.7720 C.3   289  ASN289      0.1181
    127  CG        34.7180   39.4090    4.7160 C.2   289  ASN289      0.2629
    128  OD1       34.3820   39.5940    5.8930 O.2   289  ASN289     -0.2716
    129  ND2       35.7850   39.9920    4.1870 N.am  289  ASN289     -0.0877
@<TRIPOS>BOND
     1     4     3    2
     2     1     2    1
     3     3     2    1
     4     2     5    1
     5   125   124    2
     6   124   123    1
     7   126   123    1
     8   126   127    1
     9   129   127   am
    10     5     6    1
    11   123   122    1
    12   127   128    2
    13     6     8   ar
    14     6     7   ar
    15     8    10   ar
    16     7     9   ar
    17   122   112   am
    18    28    29    1
    19    28    27    1
    20    10    11   ar
    21     9    11   ar
    22    29    30    2
    23    11    12    1
    24   110   111    1
    25   112   113    2
    26   112   111    1
    27    16    15    2
    28    27    15   am
    29    23    25   ar
    30    23    20   ar
    31    25    26   ar
    32    15    14    1
    33   111   114    1
    34    17    14    1
    35    17    18    1
    36    20    18   ar
    37    20    22   ar
    38    26    24   ar
    39    14    13    1
    40    18    19   ar
    41   114   115    1
    42   117   115   ar
    43   117   119   ar
    44    22    24   ar
    45    22    21   ar
    46   115   116   ar
    47    19    21   ar
    48   119   120   ar
    49   116   118   ar
    50   120   118   ar
    51   120   121    1
    52    34    33    2
    53    42    41    2
    54    33    39   am
    55    33    32    1
    56    40    41    1
    57    40    43    1
    58    40    39    1
    59    45    43    1
    60    35    32    1
    61    35    36    1
    62    43    44    1
    63    53    51    1
    64    32    31    1
    65    36    37   ar
    66    36    38   ar
    67    51    50    1
    68   109   107    1
    69    61    59   ar
    70    90    88   ar
    71    89    88   ar
    72    50    47    1
    73    50    52    1
    74   107   108    1
    75   107   106    2
    76    47    46    1
    77    47    48    1
    78    88    87    1
    79   106   105    1
    80    59    60   ar
    81    59    58    1
    82    81    80   ar
    83    81    79   ar
    84   104   105    1
    85   104   103    1
    86    48    49    2
    87    80    78   ar
    88    70    69    1
    89    58    55    1
    90    87    86    1
    91   103   100    1
    92    97    96    1
    93    97    98    1
    94    79    77   ar
    95    86    83    1
    96    69    68    1
    97    78    76   ar
    98    99   100    1
    99    55    54    1
   100    55    56    1
   101    57    56    2
   102    96    95    1
   103   100   101    1
   104    77    76   ar
   105    76    75    1
   106    68    67    1
   107    83    84    1
   108    83    82    1
   109   102   101    2
   110    84    85    2
   111    95    92    1
   112    74    73    2
   113    82    73   am
   114    67    66    1
   115    73    72    1
   116    75    72    1
   117    92    91    1
   118    92    93    1
   119    72    71    1
   120    93    94    2
   121    66    63    1
   122    65    64    2
   123    64    63    1
   124    63    62    1
