@<TRIPOS>MOLECULE
tmp/3wn4A01.pdb
 110 107 0 0 0
SMALL
GASTEIGER

@<TRIPOS>ATOM
      1  N         20.1860   13.7120   34.1500 N.3   215  PHE215     -0.1227
      2  CA        19.0720   14.1790   35.0040 C.3   215  PHE215      0.1736
      3  C         17.7380   13.5240   34.6190 C.2   215  PHE215      0.2595
      4  O         17.3020   13.5610   33.4480 O.2   215  PHE215     -0.2718
      5  CB        18.8890   15.6520   34.9240 C.3   215  PHE215      0.0547
      6  CG        17.7050   16.1420   35.7270 C.ar  215  PHE215     -0.0202
      7  CD1       17.6540   15.9750   37.1170 C.ar  215  PHE215     -0.0042
      8  CD2       16.6280   16.7380   35.0890 C.ar  215  PHE215     -0.0042
      9  CE1       16.5360   16.3860   37.8320 C.ar  215  PHE215     -0.0003
     10  CE2       15.5270   17.1960   35.7910 C.ar  215  PHE215     -0.0003
     11  CZ        15.4680   17.0270   37.1610 C.ar  215  PHE215     -0.0000
     12  N         17.0390   12.9690   35.6020 N.am  216  ASN216     -0.1974
     13  CA        15.7640   12.3480   35.3530 C.3   216  ASN216      0.1688
     14  C         15.7350   11.1980   34.3650 C.2   216  ASN216      0.2292
     15  O         14.6440   10.9080   33.7680 O.2   216  ASN216     -0.2864
     16  CB        14.6870   13.4180   34.9770 C.3   216  ASN216      0.1181
     17  CG        13.2610   12.8750   35.1200 C.2   216  ASN216      0.2629
     18  OD1       12.8870   12.2030   36.1060 O.2   216  ASN216     -0.2716
     19  ND2       12.4640   13.1250   34.0680 N.am  216  ASN216     -0.0877
     20  N         13.6310   17.9260   24.3650 N.3   300  PHE300     -0.1241
     21  CA        14.2600   17.7880   25.6830 C.3   300  PHE300      0.1605
     22  C         15.6190   18.4800   25.8520 C.2   300  PHE300      0.2264
     23  O         16.5920   17.8900   26.2730 O.2   300  PHE300     -0.2867
     24  CB        14.2730   16.3320   26.1420 C.3   300  PHE300      0.0534
     25  CG        12.8830   15.8410   26.3830 C.ar  300  PHE300     -0.0203
     26  CD1       12.1650   16.2760   27.4700 C.ar  300  PHE300     -0.0042
     27  CD2       12.2320   15.0370   25.3970 C.ar  300  PHE300     -0.0042
     28  CE1       10.8800   15.8550   27.7020 C.ar  300  PHE300     -0.0003
     29  CE2       10.9460   14.5980   25.6430 C.ar  300  PHE300     -0.0003
     30  CZ        10.2550   15.0310   26.7720 C.ar  300  PHE300     -0.0000
     31  N         15.5410   21.4490   27.4370 N.3   302  TYR302     -0.1241
     32  CA        15.1850   22.4260   28.5130 C.3   302  TYR302      0.1605
     33  C         16.3590   22.6670   29.4250 C.2   302  TYR302      0.2264
     34  O         17.2170   21.7710   29.6520 O.2   302  TYR302     -0.2867
     35  CB        13.9910   21.9260   29.3560 C.3   302  TYR302      0.0534
     36  CG        14.3140   20.6370   30.1070 C.ar  302  TYR302     -0.0201
     37  CD1       14.1680   19.4080   29.4970 C.ar  302  TYR302     -0.0009
     38  CD2       14.6910   20.6720   31.4550 C.ar  302  TYR302     -0.0009
     39  CE1       14.4650   18.2100   30.1820 C.ar  302  TYR302      0.0417
     40  CE2       14.9600   19.4990   32.1420 C.ar  302  TYR302      0.0417
     41  CZ        14.8720   18.2870   31.5170 C.ar  302  TYR302      0.1957
     42  OH        15.0890   17.1120   32.2210 O.3   302  TYR302     -0.2866
     43  N         17.2780   23.0310   33.1680 N.3   304  LYS304     -0.1231
     44  CA        16.6760   22.6020   34.3930 C.3   304  LYS304      0.1693
     45  C         16.3620   23.8060   35.3050 C.2   304  LYS304      0.2593
     46  O         17.1640   24.6900   35.4920 O.2   304  LYS304     -0.2718
     47  CB        17.6130   21.6000   35.0890 C.3   304  LYS304      0.0285
     48  CG        17.0340   21.0210   36.3740 C.3   304  LYS304      0.0035
     49  CD        18.1370   20.1900   37.0140 C.3   304  LYS304      0.0206
     50  CE        17.6830   19.6830   38.3210 C.3   304  LYS304      0.1093
     51  NZ        18.7490   19.0250   39.1200 N.3   304  LYS304     -0.1314
     52  N         15.1650   23.8200   35.8400 N.am  305  GLY305     -0.1942
     53  CA        14.6810   24.9020   36.6800 C.3   305  GLY305      0.2014
     54  C         14.2130   26.1350   35.9510 C.2   305  GLY305      0.2640
     55  O         13.8770   27.1210   36.5950 O.2   305  GLY305     -0.2714
     56  N         14.2530   26.1480   34.6270 N.am  306  SER306     -0.1935
     57  CA        13.8940   27.3560   33.8900 C.3   306  SER306      0.2055
     58  C         12.5840   27.2300   33.1170 C.2   306  SER306      0.2643
     59  O         12.3640   26.2330   32.4510 O.2   306  SER306     -0.2714
     60  CB        15.0940   27.7260   32.9850 C.3   306  SER306      0.2130
     61  OG        14.8670   28.8890   32.2070 O.3   306  SER306     -0.2179
     62  N         11.7050   28.2420   33.2480 N.am  307  TYR307     -0.1973
     63  CA        10.4270   28.2680   32.6320 C.3   307  TYR307      0.1639
     64  C         10.2780   29.5940   31.9690 C.2   307  TYR307      0.2290
     65  O          9.4880   30.4060   32.4040 O.2   307  TYR307     -0.2864
     66  CB         9.2960   27.9920   33.6790 C.3   307  TYR307      0.0560
     67  CG         7.8430   27.7120   33.2200 C.ar  307  TYR307     -0.0198
     68  CD1        7.5420   27.1310   31.9920 C.ar  307  TYR307     -0.0009
     69  CD2        6.7680   27.9720   34.0960 C.ar  307  TYR307     -0.0009
     70  CE1        6.2430   26.7610   31.6560 C.ar  307  TYR307      0.0417
     71  CE2        5.4690   27.6920   33.7680 C.ar  307  TYR307      0.0417
     72  CZ         5.1940   27.0870   32.5290 C.ar  307  TYR307      0.1957
     73  OH         3.8940   26.7150   32.3080 O.3   307  TYR307     -0.2866
     74  N         10.2230   23.7690   27.2360 N.3   332  VAL332     -0.1245
     75  CA         9.5930   24.1900   28.4960 C.3   332  VAL332      0.1561
     76  C          9.5110   25.7120   28.4920 C.2   332  VAL332      0.2260
     77  O         10.5140   26.3920   28.6310 O.2   332  VAL332     -0.2867
     78  CB        10.2560   23.6120   29.7540 C.3   332  VAL332      0.0252
     79  CG1        9.5560   24.0650   30.9850 C.3   332  VAL332      0.0019
     80  CG2       10.2610   22.0800   29.6960 C.3   332  VAL332      0.0019
     81  N          4.6390   18.5720   25.4080 N.3   357  ILE357     -0.1245
     82  CA         5.3130   18.4780   26.6750 C.3   357  ILE357      0.1561
     83  C          6.1980   19.7220   26.8550 C.2   357  ILE357      0.2260
     84  O          7.3790   19.5640   27.1190 O.2   357  ILE357     -0.2867
     85  CB         6.1400   17.2150   26.7870 C.3   357  ILE357      0.0252
     86  CG1        5.3390   16.0080   26.2880 C.3   357  ILE357      0.0019
     87  CG2        6.5200   16.9690   28.2470 C.3   357  ILE357      0.0019
     88  CD1        6.1140   14.7190   26.4250 C.3   357  ILE357      0.0001
     89  N          4.6850   22.5100   28.7530 N.3   359  PHE359     -0.1241
     90  CA         3.9060   23.2420   29.7520 C.3   359  PHE359      0.1605
     91  C          3.4250   24.5920   29.3080 C.2   359  PHE359      0.2264
     92  O          3.3390   25.5500   30.1280 O.2   359  PHE359     -0.2867
     93  CB         4.6500   23.2970   31.0960 C.3   359  PHE359      0.0534
     94  CG         4.9280   21.8980   31.6540 C.ar  359  PHE359     -0.0203
     95  CD1        3.9450   21.2380   32.4270 C.ar  359  PHE359     -0.0042
     96  CD2        6.0600   21.2060   31.3360 C.ar  359  PHE359     -0.0042
     97  CE1        4.1770   19.9550   32.9250 C.ar  359  PHE359     -0.0003
     98  CE2        6.2960   19.8970   31.8430 C.ar  359  PHE359     -0.0003
     99  CZ         5.3040   19.2620   32.5730 C.ar  359  PHE359     -0.0000
    100  N         -0.3190   22.8910   29.0120 N.3   383  ARG383     -0.1245
    101  CA        -1.1690   23.4290   30.0790 C.3   383  ARG383      0.1563
    102  C         -2.0850   24.4870   29.5070 C.2   383  ARG383      0.2260
    103  O         -2.3950   25.4800   30.1900 O.2   383  ARG383     -0.2867
    104  CB        -0.3080   23.9800   31.2300 C.3   383  ARG383      0.0307
    105  CG         0.5250   22.9820   32.0330 C.3   383  ARG383      0.0489
    106  CD        -0.2450   21.8200   32.6610 C.3   383  ARG383      0.2205
    107  NE        -1.3940   22.3430   33.3890 N.pl3 383  ARG383     -0.0865
    108  CZ        -2.6630   22.0800   33.1180 C.cat 383  ARG383      0.5346
    109  NH1       -3.6310   22.7500   33.7640 N.pl3 383  ARG383      0.1354
    110  NH2       -2.9990   21.2300   32.1150 N.pl3 383  ARG383      0.1354
@<TRIPOS>BOND
     1    20    21    1
     2    27    29   ar
     3    27    25   ar
     4    81    82    1
     5    29    30   ar
     6    21    22    1
     7    21    24    1
     8    22    23    2
     9    24    25    1
    10    86    88    1
    11    86    85    1
    12    25    26   ar
    13    82    85    1
    14    82    83    1
    15    30    28   ar
    16    85    87    1
    17    83    84    2
    18    74    75    1
    19    31    32    1
    20    26    28   ar
    21    76    75    1
    22    76    77    2
    23    75    78    1
    24    32    35    1
    25    32    33    1
    26    89    90    1
    27   100   101    1
    28    91    90    1
    29    91    92    2
    30    35    36    1
    31    33    34    2
    32    37    36   ar
    33    37    39   ar
    34   102   101    1
    35   102   103    2
    36    80    78    1
    37    90    93    1
    38    78    79    1
    39   101   104    1
    40    36    38   ar
    41    39    41   ar
    42    93    94    1
    43   104   105    1
    44    96    94   ar
    45    96    98   ar
    46    38    40   ar
    47    41    40   ar
    48    41    42    1
    49    94    95   ar
    50    70    68   ar
    51    70    72   ar
    52    98    99   ar
    53    64    65    2
    54    64    63    1
    55    68    67   ar
    56   105   106    1
    57   110   108    1
    58    61    60    1
    59    73    72    1
    60    95    97   ar
    61    59    58    2
    62    72    71   ar
    63    99    97   ar
    64    63    62    1
    65    63    66    1
    66   106   107    1
    67    60    57    1
    68    58    62   am
    69    58    57    1
    70   108   107    2
    71   108   109    1
    72    43    44    1
    73    67    66    1
    74    67    69   ar
    75     4     3    2
    76    71    69   ar
    77    15    14    2
    78    57    56    1
    79    19    17   am
    80     1     2    1
    81    14    13    1
    82    44    47    1
    83    44    45    1
    84     3     2    1
    85     3    12   am
    86    56    54   am
    87     5     2    1
    88     5     6    1
    89    16    17    1
    90    16    13    1
    91     8     6   ar
    92     8    10   ar
    93    47    48    1
    94    17    18    2
    95    45    46    2
    96    45    52   am
    97    13    12    1
    98     6     7   ar
    99    10    11   ar
   100    52    53    1
   101    54    55    2
   102    54    53    1
   103    48    49    1
   104    49    50    1
   105     7     9   ar
   106    11     9   ar
   107    50    51    1
