@<TRIPOS>MOLECULE
tmp/3wn6A02.pdb
 84 83 0 0 0
SMALL
GASTEIGER

@<TRIPOS>ATOM
      1  N         83.5400    4.7570   18.4820 N.3   214  ASP214     -0.1225
      2  CA        83.2960    3.9620   17.2650 C.3   214  ASP214      0.1805
      3  C         82.5990    4.7150   16.0930 C.2   214  ASP214      0.2598
      4  O         82.2030    4.0980   15.1080 O.2   214  ASP214     -0.2718
      5  CB        82.4880    2.7140   17.6230 C.3   214  ASP214      0.1424
      6  CG        81.0390    3.0270   17.9680 C.2   214  ASP214      0.3668
      7  OD1       80.6870    4.2120   18.2020 O.co2 214  ASP214     -0.2456
      8  OD2       80.2400    2.0640   18.0220 O.co2 214  ASP214     -0.2456
      9  N         82.4410    6.0250   16.2210 N.am  215  GLY215     -0.1942
     10  CA        81.8950    6.8670   15.1550 C.3   215  GLY215      0.2014
     11  C         80.3920    6.8330   15.0030 C.2   215  GLY215      0.2639
     12  O         79.8320    7.5890   14.2100 O.2   215  GLY215     -0.2714
     13  N         79.7320    5.9760   15.7640 N.am  216  LYS216     -0.1963
     14  CA        78.2670    5.9030   15.7440 C.3   216  LYS216      0.1713
     15  C         77.6570    6.8920   16.7100 C.2   216  LYS216      0.2458
     16  O         78.2870    7.2470   17.6940 O.2   216  LYS216     -0.2730
     17  CB        77.8090    4.4870   16.0550 C.3   216  LYS216      0.0311
     18  CG        77.9300    3.5730   14.8510 C.3   216  LYS216      0.0038
     19  CD        78.1050    2.1010   15.1750 C.3   216  LYS216      0.0206
     20  CE        78.1020    1.3140   13.8720 C.3   216  LYS216      0.1093
     21  NZ        79.3330    1.5550   13.0650 N.3   216  LYS216     -0.1314
     22  N         76.4160    7.3420   16.4330 N.am  217  PRO217     -0.2727
     23  CA        75.7260    8.2500   17.3730 C.3   217  PRO217      0.1402
     24  C         75.5700    7.6240   18.7400 C.2   217  PRO217      0.2269
     25  O         75.3860    6.4080   18.8270 O.2   217  PRO217     -0.2865
     26  CB        74.3480    8.4360   16.7480 C.3   217  PRO217      0.0296
     27  CG        74.5320    8.1370   15.2860 C.3   217  PRO217      0.0237
     28  CD        75.6020    7.0800   15.2290 C.3   217  PRO217      0.0939
     29  N         68.6820   10.1700   12.3670 N.3   251  GLY251     -0.1225
     30  CA        70.0710    9.8140   12.7110 C.3   251  GLY251      0.1811
     31  C         70.1840    8.4870   13.4330 C.2   251  GLY251      0.2280
     32  O         71.1130    7.7090   13.2070 O.2   251  GLY251     -0.2866
     33  N         69.1140    5.5400   10.9900 N.3   254  ASN254     -0.1225
     34  CA        70.2360    5.2560   10.0500 C.3   254  ASN254      0.1785
     35  C         71.1880    4.1610   10.5620 C.2   254  ASN254      0.2597
     36  O         71.5960    3.2210    9.8340 O.2   254  ASN254     -0.2718
     37  CB        71.1240    6.4970    9.8840 C.3   254  ASN254      0.1169
     38  CG        70.6670    7.4870    8.8170 C.2   254  ASN254      0.2627
     39  OD1       71.1870    8.6280    8.7800 O.2   254  ASN254     -0.2716
     40  ND2       69.7890    7.0920    7.9390 N.am  254  ASN254     -0.0877
     41  N         71.5740    4.3090   11.8400 N.am  255  VAL255     -0.1980
     42  CA        72.4490    3.3330   12.4670 C.3   255  VAL255      0.1595
     43  C         71.7080    2.1010   13.0490 C.2   255  VAL255      0.2287
     44  O         72.2700    1.0140   13.0800 O.2   255  VAL255     -0.2864
     45  CB        73.3770    3.9780   13.5060 C.3   255  VAL255      0.0276
     46  CG1       72.6240    4.5600   14.6780 C.3   255  VAL255      0.0022
     47  CG2       74.3640    2.9680   14.0240 C.3   255  VAL255      0.0022
     48  N         71.2890   -1.0780   11.1140 N.3   258  GLU258     -0.1245
     49  CA        72.4700   -1.9020   10.8120 C.3   258  GLU258      0.1567
     50  C         72.8060   -2.8610   11.9720 C.2   258  GLU258      0.2260
     51  O         73.8580   -2.7610   12.5900 O.2   258  GLU258     -0.2867
     52  CB        73.6800   -1.0250   10.4700 C.3   258  GLU258      0.0388
     53  CG        73.5290   -0.1850    9.1980 C.3   258  GLU258      0.1160
     54  CD        73.3390   -1.0160    7.9370 C.2   258  GLU258      0.3649
     55  OE1       74.3240   -1.4540    7.3400 O.co2 258  GLU258     -0.2457
     56  OE2       72.2170   -1.2600    7.5520 O.co2 258  GLU258     -0.2457
     57  N         73.8370   12.0920    4.3140 N.3   298  TRP298     -0.1228
     58  CA        73.4650   11.2610    5.4750 C.3   298  TRP298      0.1722
     59  C         72.5090   10.1650    5.0730 C.2   298  TRP298      0.2437
     60  O         71.4270   10.0550    5.6290 O.2   298  TRP298     -0.2733
     61  CB        72.8730   12.1350    6.5890 C.3   298  TRP298      0.0563
     62  CG        73.2140   11.7190    8.0340 C.ar  298  TRP298      0.0003
     63  CD1       74.1840   10.8260    8.4590 C.ar  298  TRP298      0.0946
     64  CD2       72.5650   12.1780    9.2090 C.ar  298  TRP298      0.0152
     65  NE1       74.1850   10.7150    9.8600 N.ar  298  TRP298     -0.2442
     66  CE2       73.1820   11.5280   10.3320 C.ar  298  TRP298      0.0810
     67  CE3       71.4810   13.0370    9.4340 C.ar  298  TRP298      0.0012
     68  CZ2       72.7940   11.7790   11.6530 C.ar  298  TRP298      0.0191
     69  CZ3       71.1080   13.3080   10.7770 C.ar  298  TRP298      0.0001
     70  CH2       71.7670   12.6580   11.8700 C.ar  298  TRP298      0.0015
     71  N         72.9320    9.2950    4.1440 N.am  299  PRO299     -0.2729
     72  CA        71.9490    8.4130    3.5110 C.3   299  PRO299      0.1401
     73  C         71.4860    7.2790    4.4210 C.2   299  PRO299      0.2269
     74  O         72.2620    6.7470    5.1820 O.2   299  PRO299     -0.2865
     75  CB        72.7150    7.8200    2.3260 C.3   299  PRO299      0.0296
     76  CG        74.1350    7.8800    2.7350 C.3   299  PRO299      0.0237
     77  CD        74.2610    9.1530    3.5410 C.3   299  PRO299      0.0939
     78  N         70.7760    3.5060    4.9820 N.3   301  PRO301     -0.2116
     79  CA        71.1540    2.2710    4.3270 C.3   301  PRO301      0.1372
     80  C         70.1740    1.8830    3.1740 C.2   301  PRO301      0.2244
     81  O         68.9790    1.6130    3.3910 O.2   301  PRO301     -0.2868
     82  CB        71.2120    1.2360    5.5050 C.3   301  PRO301      0.0268
     83  CG        71.5760    2.0750    6.6910 C.3   301  PRO301      0.0207
     84  CD        70.8820    3.4120    6.4610 C.3   301  PRO301      0.0892
@<TRIPOS>BOND
     1    75    76    1
     2    75    72    1
     3    76    77    1
     4    80    81    2
     5    80    79    1
     6    72    71    1
     7    72    73    1
     8    77    71    1
     9    71    59   am
    10    57    58    1
    11    79    78    1
    12    79    82    1
    13    73    74    2
    14    78    84    1
    15    59    58    1
    16    59    60    2
    17    58    61    1
    18    82    83    1
    19    84    83    1
    20    61    62    1
    21    55    54   ar
    22    56    54   ar
    23    54    53    1
    24    40    38   am
    25    62    63   ar
    26    62    64   ar
    27    63    65   ar
    28    39    38    2
    29    38    37    1
    30    53    52    1
    31    64    67   ar
    32    64    66   ar
    33    67    69   ar
    34    36    35    2
    35    65    66   ar
    36    37    34    1
    37    34    35    1
    38    34    33    1
    39    66    68   ar
    40    52    49    1
    41    35    41   am
    42    69    70   ar
    43    49    48    1
    44    49    50    1
    45    68    70   ar
    46    41    42    1
    47    50    51    2
    48    29    30    1
    49    42    43    1
    50    42    45    1
    51    30    31    1
    52    43    44    2
    53    21    20    1
    54    32    31    2
    55    45    47    1
    56    45    46    1
    57    20    19    1
    58    12    11    2
    59    18    19    1
    60    18    17    1
    61    11    10    1
    62    11    13   am
    63     4     3    2
    64    10     9    1
    65    28    27    1
    66    28    22    1
    67    27    26    1
    68    14    13    1
    69    14    17    1
    70    14    15    1
    71     3     9   am
    72     3     2    1
    73    22    15   am
    74    22    23    1
    75    15    16    2
    76    26    23    1
    77     2     5    1
    78     2     1    1
    79    23    24    1
    80     5     6    1
    81     6     8   ar
    82     6     7   ar
    83    24    25    2
