@<TRIPOS>MOLECULE
tmp/3wn6D00.pdb
 84 81 0 0 0
SMALL
GASTEIGER

@<TRIPOS>ATOM
      1  N         35.0250  -10.0400  -14.4520 N.3   139  THR139     -0.1203
      2  CA        34.2650   -9.4490  -15.5450 C.3   139  THR139      0.1994
      3  C         34.5320   -7.9200  -15.6190 C.2   139  THR139      0.2618
      4  O         34.1320   -7.2830  -16.5480 O.2   139  THR139     -0.2717
      5  CB        32.7650   -9.6670  -15.2860 C.3   139  THR139      0.1784
      6  OG1       32.4230   -9.1050  -13.9990 O.3   139  THR139     -0.2211
      7  CG2       32.4270  -11.1510  -15.3200 C.3   139  THR139      0.0376
      8  N         35.1900   -7.3630  -14.5930 N.am  140  GLY140     -0.1942
      9  CA        35.5350   -5.9530  -14.5570 C.3   140  GLY140      0.2014
     10  C         36.8530   -5.7320  -13.8630 C.2   140  GLY140      0.2638
     11  O         37.6820   -6.6270  -13.7820 O.2   140  GLY140     -0.2714
     12  N         37.0350   -4.5530  -13.3100 N.am  141  ALA141     -0.1977
     13  CA        38.2910   -4.2410  -12.6510 C.3   141  ALA141      0.1597
     14  C         38.4510   -4.9320  -11.2890 C.2   141  ALA141      0.2287
     15  O         37.4690   -5.3320  -10.6470 O.2   141  ALA141     -0.2864
     16  CB        38.4350   -2.7390  -12.4790 C.3   141  ALA141      0.0319
     17  N         31.1230    0.0500   -9.3560 N.3   181  ALA181     -0.1231
     18  CA        30.4390   -0.6790  -10.4410 C.3   181  ALA181      0.1694
     19  C         31.3670   -1.0490  -11.6190 C.2   181  ALA181      0.2591
     20  O         31.0160   -1.8990  -12.4500 O.2   181  ALA181     -0.2718
     21  CB        29.2440    0.1420  -10.9400 C.3   181  ALA181      0.0304
     22  N         32.5030   -0.3730  -11.7430 N.am  182  LYS182     -0.1980
     23  CA        33.5210   -0.7320  -12.7610 C.3   182  LYS182      0.1596
     24  C         34.1890   -2.0530  -12.4590 C.2   182  LYS182      0.2287
     25  O         34.8650   -2.6080  -13.3070 O.2   182  LYS182     -0.2864
     26  CB        34.6360    0.3190  -12.8590 C.3   182  LYS182      0.0298
     27  CG        34.2540    1.5440  -13.6530 C.3   182  LYS182      0.0038
     28  CD        35.3250    2.6300  -13.5660 C.3   182  LYS182      0.0206
     29  CE        36.5640    2.2330  -14.3410 C.3   182  LYS182      0.1093
     30  NZ        37.5100    3.3640  -14.4350 N.3   182  LYS182     -0.1314
     31  N         32.8480   -4.9600  -12.0260 N.3   184  TYR184     -0.1227
     32  CA        32.2010   -6.1050  -12.6890 C.3   184  TYR184      0.1736
     33  C         31.4380   -5.5960  -13.8940 C.2   184  TYR184      0.2596
     34  O         31.2110   -4.4050  -13.9820 O.2   184  TYR184     -0.2718
     35  CB        31.2980   -6.8780  -11.7160 C.3   184  TYR184      0.0548
     36  CG        30.3360   -6.0500  -10.8780 C.ar  184  TYR184     -0.0200
     37  CD1       30.6890   -5.6240   -9.6070 C.ar  184  TYR184     -0.0009
     38  CD2       29.0470   -5.7540  -11.3320 C.ar  184  TYR184     -0.0009
     39  CE1       29.8010   -4.8950   -8.8180 C.ar  184  TYR184      0.0417
     40  CE2       28.1560   -5.0310  -10.5580 C.ar  184  TYR184      0.0417
     41  CZ        28.5310   -4.6070   -9.3020 C.ar  184  TYR184      0.1957
     42  OH        27.6510   -3.8710   -8.5130 O.3   184  TYR184     -0.2866
     43  N         31.0320   -6.4700  -14.7950 N.am  185  SER185     -0.1938
     44  CA        30.4430   -5.9980  -16.0530 C.3   185  SER185      0.2055
     45  C         28.9900   -5.5310  -15.8660 C.2   185  SER185      0.2642
     46  O         28.3200   -5.8920  -14.9050 O.2   185  SER185     -0.2714
     47  CB        30.5210   -7.0680  -17.1290 C.3   185  SER185      0.2130
     48  OG        29.5800   -8.0870  -16.8930 O.3   185  SER185     -0.2179
     49  N         28.5140   -4.7160  -16.8010 N.am  186  ALA186     -0.1977
     50  CA        27.1340   -4.2840  -16.7990 C.3   186  ALA186      0.1597
     51  C         26.1690   -5.4650  -16.9490 C.2   186  ALA186      0.2287
     52  O         25.0410   -5.4260  -16.4510 O.2   186  ALA186     -0.2864
     53  CB        26.8950   -3.2780  -17.9290 C.3   186  ALA186      0.0319
     54  N         30.4580    4.6760  -11.2330 N.3   205  ILE205     -0.1245
     55  CA        31.4890    4.3880  -12.1950 C.3   205  ILE205      0.1561
     56  C         32.3880    5.6170  -12.1780 C.2   205  ILE205      0.2260
     57  O         32.0240    6.6580  -12.7430 O.2   205  ILE205     -0.2867
     58  CB        30.8590    4.1790  -13.6090 C.3   205  ILE205      0.0252
     59  CG1       29.9860    2.9230  -13.6050 C.3   205  ILE205      0.0019
     60  CG2       31.9280    4.0830  -14.7000 C.3   205  ILE205      0.0019
     61  CD1       28.8680    2.9850  -14.6010 C.3   205  ILE205      0.0001
     62  N         31.4600    6.3800  -21.6600 N.3   227  GLU227     -0.1245
     63  CA        31.5770    5.2140  -20.7790 C.3   227  GLU227      0.1567
     64  C         30.3230    5.0630  -19.8770 C.2   227  GLU227      0.2260
     65  O         29.7980    3.9620  -19.7100 O.2   227  GLU227     -0.2867
     66  CB        32.8550    5.2950  -19.9510 C.3   227  GLU227      0.0388
     67  CG        33.0300    4.1660  -18.9370 C.3   227  GLU227      0.1160
     68  CD        34.2520    4.3070  -18.0520 C.2   227  GLU227      0.3649
     69  OE1       34.8400    5.4040  -17.9330 O.co2 227  GLU227     -0.2457
     70  OE2       34.6330    3.2820  -17.4590 O.co2 227  GLU227     -0.2457
     71  N         27.3040    2.0180  -20.1400 N.3   231  TRP231     -0.1241
     72  CA        26.9140    1.1440  -19.0420 C.3   231  TRP231      0.1605
     73  C         25.3960    1.1060  -18.9200 C.2   231  TRP231      0.2264
     74  O         24.8080    0.0370  -18.8460 O.2   231  TRP231     -0.2867
     75  CB        27.5840    1.5770  -17.7380 C.3   231  TRP231      0.0550
     76  CG        27.3470    0.6520  -16.6270 C.ar  231  TRP231      0.0003
     77  CD1       28.1590   -0.3610  -16.1990 C.ar  231  TRP231      0.0946
     78  CD2       26.2140    0.6560  -15.7590 C.ar  231  TRP231      0.0152
     79  NE1       27.5900   -0.9960  -15.1160 N.ar  231  TRP231     -0.2442
     80  CE2       26.4000   -0.3870  -14.8220 C.ar  231  TRP231      0.0810
     81  CE3       25.0660    1.4560  -15.6670 C.ar  231  TRP231      0.0012
     82  CZ2       25.4710   -0.6670  -13.8300 C.ar  231  TRP231      0.0191
     83  CZ3       24.1650    1.1930  -14.6790 C.ar  231  TRP231      0.0001
     84  CH2       24.3700    0.1240  -13.7690 C.ar  231  TRP231      0.0015
@<TRIPOS>BOND
     1    62    63    1
     2    63    66    1
     3    63    64    1
     4    71    72    1
     5    66    67    1
     6    64    65    2
     7    72    73    1
     8    72    75    1
     9    67    68    1
    10    73    74    2
    11    68    69   ar
    12    68    70   ar
    13    53    50    1
    14    75    76    1
    15    47    48    1
    16    47    44    1
    17    51    50    1
    18    51    52    2
    19    49    50    1
    20    49    45   am
    21    76    77   ar
    22    76    78   ar
    23     4     3    2
    24    77    79   ar
    25    44    45    1
    26    44    43    1
    27    45    46    2
    28    78    81   ar
    29    78    80   ar
    30    81    83   ar
    31     3     2    1
    32     3     8   am
    33     2     5    1
    34     2     1    1
    35     7     5    1
    36     5     6    1
    37    79    80   ar
    38    80    82   ar
    39    43    33   am
    40    60    58    1
    41    83    84   ar
    42    61    59    1
    43     8     9    1
    44     9    10    1
    45    30    29    1
    46    29    28    1
    47    34    33    2
    48    33    32    1
    49    10    11    2
    50    10    12   am
    51    82    84   ar
    52    27    28    1
    53    27    26    1
    54    58    59    1
    55    58    55    1
    56    12    13    1
    57    25    24    2
    58    26    23    1
    59    23    24    1
    60    23    22    1
    61    57    56    2
    62    32    31    1
    63    32    35    1
    64    13    16    1
    65    13    14    1
    66    20    19    2
    67    55    56    1
    68    55    54    1
    69    22    19   am
    70    35    36    1
    71    19    18    1
    72    38    36   ar
    73    38    40   ar
    74    14    15    2
    75    21    18    1
    76    36    37   ar
    77    40    41   ar
    78    18    17    1
    79    37    39   ar
    80    41    39   ar
    81    41    42    1
