@<TRIPOS>MOLECULE
tmp/3wnbA00.pdb
 117 113 0 0 0
SMALL
GASTEIGER

@<TRIPOS>ATOM
      1  N         47.3550    4.1550   52.1900 N.3    20  GLU20      -0.1231
      2  CA        45.9740    3.7750   51.9150 C.3    20  GLU20       0.1699
      3  C         45.2510    3.2840   53.1570 C.2    20  GLU20       0.2592
      4  O         45.8570    2.6760   54.0270 O.2    20  GLU20      -0.2718
      5  CB        45.9300    2.7150   50.8150 C.3    20  GLU20       0.0402
      6  CG        45.9850    3.3350   49.4400 C.3    20  GLU20       0.1161
      7  CD        46.0210    2.3040   48.3560 C.2    20  GLU20       0.3649
      8  OE1       47.1410    1.8490   48.0060 O.co2  20  GLU20      -0.2457
      9  OE2       44.9230    1.9610   47.8510 O.co2  20  GLU20      -0.2457
     10  N         43.9480    3.5510   53.2370 N.am   21  LYS21      -0.1966
     11  CA        43.1220    3.1190   54.3760 C.3    21  LYS21       0.1728
     12  C         43.7140    3.5400   55.7180 C.2    21  LYS21       0.2617
     13  O         43.6700    2.7780   56.6920 O.2    21  LYS21      -0.2715
     14  CB        42.8750    1.6010   54.3600 C.3    21  LYS21       0.0311
     15  CG        42.4380    1.0600   52.9950 C.3    21  LYS21       0.0038
     16  CD        42.0010   -0.3950   53.0770 C.3    21  LYS21       0.0206
     17  CE        42.0160   -1.0710   51.6860 C.3    21  LYS21       0.1093
     18  NZ        41.0650   -2.2280   51.6020 N.3    21  LYS21      -0.1314
     19  N         44.2570    4.7560   55.7680 N.am   22  SER22      -0.1936
     20  CA        44.8000    5.2780   57.0320 C.3    22  SER22       0.2055
     21  C         43.8550    6.2680   57.7300 C.2    22  SER22       0.2644
     22  O         44.1760    6.7670   58.8080 O.2    22  SER22      -0.2714
     23  CB        46.1600    5.9250   56.7680 C.3    22  SER22       0.2130
     24  OG        45.9720    7.0160   55.8820 O.3    22  SER22      -0.2179
     25  N         42.6690    6.4920   57.1610 N.am   23  GLY23      -0.1939
     26  CA        41.6910    7.4230   57.7430 C.3    23  GLY23       0.2014
     27  C         41.9520    8.8860   57.4040 C.2    23  GLY23       0.2639
     28  O         41.4110    9.7700   58.0220 O.2    23  GLY23      -0.2714
     29  N         42.7990    9.1360   56.4040 N.am   24  ARG24      -0.1963
     30  CA        43.1780   10.5150   56.0280 C.3    24  ARG24       0.1729
     31  C         41.9810   11.3630   55.6400 C.2    24  ARG24       0.2617
     32  O         41.8180   12.4550   56.1360 O.2    24  ARG24      -0.2715
     33  CB        44.1060   10.4840   54.8260 C.3    24  ARG24       0.0348
     34  CG        45.4150    9.8030   55.0340 C.3    24  ARG24       0.0492
     35  CD        46.1830    9.7960   53.6960 C.3    24  ARG24       0.2205
     36  NE        45.7350    8.7330   52.7980 N.pl3  24  ARG24      -0.0865
     37  CZ        45.8840    8.7110   51.4770 C.cat  24  ARG24       0.5346
     38  NH1       46.4280    9.7310   50.8250 N.pl3  24  ARG24       0.1354
     39  NH2       45.4390    7.6640   50.7900 N.pl3  24  ARG24       0.1354
     40  N         41.1950   10.9030   54.6690 N.am   25  THR25      -0.1937
     41  CA        40.0730   11.7110   54.2010 C.3    25  THR25       0.2028
     42  C         39.0670   11.9390   55.3240 C.2    25  THR25       0.2642
     43  O         38.6020   13.0660   55.5180 O.2    25  THR25      -0.2714
     44  CB        39.4070   11.0850   52.9720 C.3    25  THR25       0.1808
     45  OG1       40.3570   11.1180   51.8950 O.3    25  THR25      -0.2208
     46  CG2       38.1430   11.8670   52.5770 C.3    25  THR25       0.0379
     47  N         38.7940   10.8820   56.0910 N.am   26  SER26      -0.1949
     48  CA        37.8410   10.9770   57.1780 C.3    26  SER26       0.1924
     49  C         38.2780   12.0230   58.1910 C.2    26  SER26       0.2314
     50  O         37.4610   12.8200   58.6730 O.2    26  SER26      -0.2863
     51  CB        37.6520    9.6020   57.8500 C.3    26  SER26       0.2116
     52  OG        36.9320    8.7370   56.9690 O.3    26  SER26      -0.2180
     53  N         44.6290   13.3660   48.4130 N.3    56  HIS56      -0.1241
     54  CA        43.8210   12.1490   48.2180 C.3    56  HIS56       0.1621
     55  C         44.1930   11.3340   46.9880 C.2    56  HIS56       0.2264
     56  O         43.6990   10.2190   46.8200 O.2    56  HIS56      -0.2867
     57  CB        42.3240   12.4960   48.1910 C.3    56  HIS56       0.0745
     58  CG        41.9380   13.3460   47.0280 C.ar   56  HIS56       0.0817
     59  ND1       41.6730   14.6930   47.1500 N.ar   56  HIS56      -0.2268
     60  CD2       41.8050   13.0530   45.7150 C.ar   56  HIS56       0.1154
     61  CE1       41.3770   15.1880   45.9660 C.ar   56  HIS56       0.1986
     62  NE2       41.4540   14.2190   45.0760 N.ar   56  HIS56      -0.2212
     63  N         45.5410    6.6580   63.7130 N.3   108  THR108     -0.1203
     64  CA        44.1160    6.6940   63.4310 C.3   108  THR108      0.1994
     65  C         43.4060    5.3710   63.7630 C.2   108  THR108      0.2617
     66  O         44.0420    4.3690   64.1290 O.2   108  THR108     -0.2717
     67  CB        43.9100    7.0570   61.9520 C.3   108  THR108      0.1784
     68  OG1       44.6250    6.0940   61.1850 O.3   108  THR108     -0.2211
     69  CG2       44.4600    8.4790   61.6330 C.3   108  THR108      0.0376
     70  N         42.0720    5.3800   63.6580 N.am  109  ARG109     -0.1979
     71  CA        41.2600    4.1900   63.8460 C.3   109  ARG109      0.1597
     72  C         41.4520    3.5990   65.2500 C.2   109  ARG109      0.2287
     73  O         41.4530    2.3930   65.4200 O.2   109  ARG109     -0.2864
     74  CB        41.5350    3.1660   62.7320 C.3   109  ARG109      0.0334
     75  CG        41.3810    3.7620   61.3360 C.3   109  ARG109      0.0492
     76  CD        40.9670    2.7280   60.3010 C.3   109  ARG109      0.2205
     77  NE        39.6410    2.2110   60.6500 N.pl3 109  ARG109     -0.0865
     78  CZ        39.3320    0.9250   60.7830 C.cat 109  ARG109      0.5346
     79  NH1       40.2420   -0.0140   60.5450 N.pl3 109  ARG109      0.1354
     80  NH2       38.0970    0.5800   61.1250 N.pl3 109  ARG109      0.1354
     81  N         39.5990    3.1550   67.6580 N.3   111  ASP111     -0.1225
     82  CA        38.5010    2.2920   68.1070 C.3   111  ASP111      0.1805
     83  C         38.6550    0.8500   67.6280 C.2   111  ASP111      0.2598
     84  O         38.0490   -0.0750   68.2160 O.2   111  ASP111     -0.2718
     85  CB        37.1420    2.8840   67.6960 C.3   111  ASP111      0.1424
     86  CG        37.0090    3.0460   66.2000 C.2   111  ASP111      0.3668
     87  OD1       37.8770    3.7110   65.5910 O.co2 111  ASP111     -0.2456
     88  OD2       36.0310    2.5180   65.6420 O.co2 111  ASP111     -0.2456
     89  N         39.4530    0.6410   66.5760 N.am  112  SER112     -0.1952
     90  CA        39.7170   -0.6950   66.0530 C.3   112  SER112      0.1924
     91  C         40.8910   -1.4300   66.7180 C.2   112  SER112      0.2314
     92  O         41.2740   -2.5240   66.2970 O.2   112  SER112     -0.2863
     93  CB        39.9670   -0.6170   64.5500 C.3   112  SER112      0.2116
     94  OG        41.2380   -0.0310   64.2940 O.3   112  SER112     -0.2180
     95  N         40.3040    8.6710   66.7210 N.3   142  ASN142     -0.1225
     96  CA        39.3980    8.1440   65.7320 C.3   142  ASN142      0.1785
     97  C         38.3900    9.2320   65.3860 C.2   142  ASN142      0.2598
     98  O         38.2890   10.2290   66.0800 O.2   142  ASN142     -0.2718
     99  CB        38.7230    6.8360   66.2110 C.3   142  ASN142      0.1169
    100  CG        37.6880    7.0610   67.2790 C.2   142  ASN142      0.2627
    101  OD1       36.6620    7.7120   67.0570 O.2   142  ASN142     -0.2716
    102  ND2       37.9500    6.5070   68.4660 N.am  142  ASN142     -0.0877
    103  N         37.7100    9.0480   64.2710 N.am  143  THR143     -0.1939
    104  CA        36.6590    9.9700   63.8570 C.3   143  THR143      0.2028
    105  C         35.3520    9.1700   63.6850 C.2   143  THR143      0.2642
    106  O         34.5850    9.3760   62.7170 O.2   143  THR143     -0.2714
    107  CB        37.0210   10.6900   62.5310 C.3   143  THR143      0.1808
    108  OG1       37.3600    9.6990   61.5610 O.3   143  THR143     -0.2208
    109  CG2       38.1820   11.7080   62.6990 C.3   143  THR143      0.0379
    110  N         35.1110    8.2650   64.6370 N.am  144  ASN144     -0.1971
    111  CA        33.9170    7.4020   64.6620 C.3   144  ASN144      0.1688
    112  C         32.9610    7.7960   65.7830 C.2   144  ASN144      0.2292
    113  O         33.2350    7.5390   66.9740 O.2   144  ASN144     -0.2864
    114  CB        34.3370    5.9270   64.8110 C.3   144  ASN144      0.1181
    115  CG        33.1630    4.9680   64.7080 C.2   144  ASN144      0.2629
    116  OD1       32.0230    5.3760   64.4300 O.2   144  ASN144     -0.2716
    117  ND2       33.4290    3.6830   64.9370 N.am  144  ASN144     -0.0877
@<TRIPOS>BOND
     1    62    60   ar
     2    62    61   ar
     3    60    58   ar
     4    61    59   ar
     5    56    55    2
     6    55    54    1
     7    58    59   ar
     8    58    57    1
     9     9     7   ar
    10     8     7   ar
    11    57    54    1
    12    54    53    1
    13     7     6    1
    14     6     5    1
    15    39    37    1
    16     5     2    1
    17    38    37    1
    18    37    36    2
    19    18    17    1
    20    17    16    1
    21    45    44    1
    22     2     1    1
    23     2     3    1
    24    46    44    1
    25    36    35    1
    26    44    41    1
    27    15    16    1
    28    15    14    1
    29     3    10   am
    30     3     4    2
    31    10    11    1
    32    35    34    1
    33    41    40    1
    34    41    42    1
    35    14    11    1
    36    11    12    1
    37    40    31   am
    38    33    34    1
    39    33    30    1
    40    42    43    2
    41    42    47   am
    42    31    30    1
    43    31    32    2
    44    12    19   am
    45    12    13    2
    46    19    20    1
    47    24    23    1
    48    30    29    1
    49    47    48    1
    50    29    27   am
    51    23    20    1
    52    52    51    1
    53    20    21    1
    54    25    21   am
    55    25    26    1
    56    48    51    1
    57    48    49    1
    58    27    26    1
    59    27    28    2
    60    21    22    2
    61    49    50    2
    62    76    77    1
    63    76    75    1
    64    79    78    1
    65    77    78    2
    66    78    80    1
    67    68    67    1
    68    75    74    1
    69   108   107    1
    70    69    67    1
    71    67    64    1
    72   107   109    1
    73   107   104    1
    74   106   105    2
    75    74    71    1
    76    64    63    1
    77    64    65    1
    78    70    65   am
    79    70    71    1
    80   105   104    1
    81   105   110   am
    82    65    66    2
    83    71    72    1
    84   104   103    1
    85   103    97   am
    86    94    93    1
    87   116   115    2
    88    93    90    1
    89   110   111    1
    90   111   114    1
    91   111   112    1
    92   115   114    1
    93   115   117   am
    94    72    73    2
    95    97    96    1
    96    97    98    2
    97    87    86   ar
    98    88    86   ar
    99    96    99    1
   100    96    95    1
   101   112   113    2
   102    90    89    1
   103    90    91    1
   104    86    85    1
   105    99   100    1
   106    92    91    2
   107    89    83   am
   108   101   100    2
   109   100   102   am
   110    83    82    1
   111    83    84    2
   112    81    82    1
   113    85    82    1
