@<TRIPOS>MOLECULE
tmp/3wncA00.pdb
 98 94 0 0 0
SMALL
GASTEIGER

@<TRIPOS>ATOM
      1  N         43.9320    3.5960   53.2510 N.3    21  LYS21      -0.1231
      2  CA        43.1260    3.1290   54.3730 C.3    21  LYS21       0.1693
      3  C         43.6920    3.5650   55.7260 C.2    21  LYS21       0.2593
      4  O         43.6740    2.8020   56.6990 O.2    21  LYS21      -0.2718
      5  CB        43.0140    1.5990   54.3430 C.3    21  LYS21       0.0285
      6  CG        42.5630    1.0260   53.0040 C.3    21  LYS21       0.0035
      7  CD        42.5690   -0.5060   53.0380 C.3    21  LYS21       0.0206
      8  CE        42.3320   -1.1200   51.6580 C.3    21  LYS21       0.1093
      9  NZ        42.4200   -2.6130   51.6810 N.3    21  LYS21      -0.1314
     10  N         44.1820    4.7940   55.7970 N.am   22  SER22      -0.1938
     11  CA        44.7310    5.2980   57.0500 C.3    22  SER22       0.2055
     12  C         43.7900    6.3010   57.7380 C.2    22  SER22       0.2644
     13  O         44.1580    6.8970   58.7490 O.2    22  SER22      -0.2714
     14  CB        46.0850    5.9570   56.7900 C.3    22  SER22       0.2130
     15  OG        45.9050    7.1120   55.9950 O.3    22  SER22      -0.2179
     16  N         42.5840    6.4790   57.1870 N.am   23  GLY23      -0.1939
     17  CA        41.6260    7.4000   57.7690 C.3    23  GLY23       0.2014
     18  C         41.9220    8.8630   57.4790 C.2    23  GLY23       0.2639
     19  O         41.3860    9.7420   58.1340 O.2    23  GLY23      -0.2714
     20  N         42.7620    9.1260   56.4830 N.am   24  ARG24      -0.1963
     21  CA        43.1270   10.5040   56.1280 C.3    24  ARG24       0.1729
     22  C         41.9410   11.3790   55.7310 C.2    24  ARG24       0.2617
     23  O         41.7500   12.4700   56.2730 O.2    24  ARG24      -0.2715
     24  CB        44.1030   10.4990   54.9620 C.3    24  ARG24       0.0348
     25  CG        45.4260    9.7910   55.2030 C.3    24  ARG24       0.0492
     26  CD        46.2210    9.7220   53.8870 C.3    24  ARG24       0.2205
     27  NE        45.6290    8.7570   52.9680 N.pl3  24  ARG24      -0.0865
     28  CZ        45.8120    8.7400   51.6490 C.cat  24  ARG24       0.5346
     29  NH1       46.5710    9.6500   51.0590 N.pl3  24  ARG24       0.1354
     30  NH2       45.2510    7.7850   50.9180 N.pl3  24  ARG24       0.1354
     31  N         41.1600   10.9190   54.7580 N.am   25  THR25      -0.1937
     32  CA        40.0290   11.7150   54.3020 C.3    25  THR25       0.2028
     33  C         39.0180   11.9420   55.4200 C.2    25  THR25       0.2642
     34  O         38.5300   13.0640   55.5930 O.2    25  THR25      -0.2714
     35  CB        39.3350   11.0710   53.0690 C.3    25  THR25       0.1808
     36  OG1       40.2690   10.9990   51.9750 O.3    25  THR25      -0.2208
     37  CG2       38.1210   11.9050   52.6350 C.3    25  THR25       0.0379
     38  N         38.7250   10.8990   56.1950 N.am   26  SER26      -0.1949
     39  CA        37.7560   11.0380   57.2830 C.3    26  SER26       0.1924
     40  C         38.2250   12.0690   58.2920 C.2    26  SER26       0.2314
     41  O         37.4230   12.8460   58.8130 O.2    26  SER26      -0.2863
     42  CB        37.5310    9.7010   57.9960 C.3    26  SER26       0.2116
     43  OG        36.8960    8.7700   57.1360 O.3    26  SER26      -0.2180
     44  N         45.5510    6.7230   63.7900 N.3   108  THR108     -0.1203
     45  CA        44.1190    6.6670   63.5220 C.3   108  THR108      0.1994
     46  C         43.3890    5.3800   63.8510 C.2   108  THR108      0.2617
     47  O         43.9940    4.3800   64.2320 O.2   108  THR108     -0.2717
     48  CB        43.8980    6.9800   62.0730 C.3   108  THR108      0.1784
     49  OG1       44.7060    6.0900   61.2980 O.3   108  THR108     -0.2211
     50  CG2       44.3050    8.4530   61.7780 C.3   108  THR108      0.0376
     51  N         42.0700    5.4250   63.7060 N.am  109  ARG109     -0.1979
     52  CA        41.2380    4.2610   63.9590 C.3   109  ARG109      0.1597
     53  C         41.4680    3.6380   65.3340 C.2   109  ARG109      0.2287
     54  O         41.4550    2.4220   65.4710 O.2   109  ARG109     -0.2864
     55  CB        41.4980    3.2260   62.8620 C.3   109  ARG109      0.0334
     56  CG        41.3150    3.8200   61.4830 C.3   109  ARG109      0.0492
     57  CD        41.7240    2.8820   60.3850 C.3   109  ARG109      0.2205
     58  NE        40.6580    1.9670   60.0020 N.pl3 109  ARG109     -0.0865
     59  CZ        40.8120    0.9840   59.1190 C.cat 109  ARG109      0.5346
     60  NH1       41.9930    0.7910   58.5360 N.pl3 109  ARG109      0.1354
     61  NH2       39.7880    0.1990   58.8120 N.pl3 109  ARG109      0.1354
     62  N         39.5710    3.1730   67.7270 N.3   111  ASP111     -0.1225
     63  CA        38.4770    2.3110   68.1970 C.3   111  ASP111      0.1805
     64  C         38.6120    0.8730   67.6940 C.2   111  ASP111      0.2598
     65  O         37.9830   -0.0440   68.2300 O.2   111  ASP111     -0.2718
     66  CB        37.1130    2.8890   67.7860 C.3   111  ASP111      0.1424
     67  CG        36.9820    3.0490   66.2930 C.2   111  ASP111      0.3668
     68  OD1       37.8310    3.7360   65.6950 O.co2 111  ASP111     -0.2456
     69  OD2       36.0340    2.4890   65.7190 O.co2 111  ASP111     -0.2456
     70  N         39.4540    0.6660   66.6900 N.am  112  SER112     -0.1952
     71  CA        39.6450   -0.6740   66.1650 C.3   112  SER112      0.1924
     72  C         40.8530   -1.3820   66.7900 C.2   112  SER112      0.2314
     73  O         41.2500   -2.4530   66.3420 O.2   112  SER112     -0.2863
     74  CB        39.8190   -0.6230   64.6450 C.3   112  SER112      0.2116
     75  OG        41.0660   -0.0370   64.2990 O.3   112  SER112     -0.2180
     76  N         40.3330    8.7180   66.7420 N.3   142  ASN142     -0.1225
     77  CA        39.4050    8.1420   65.7890 C.3   142  ASN142      0.1785
     78  C         38.3680    9.2110   65.4790 C.2   142  ASN142      0.2598
     79  O         38.2600   10.2050   66.1950 O.2   142  ASN142     -0.2718
     80  CB        38.7420    6.8430   66.3060 C.3   142  ASN142      0.1169
     81  CG        37.6650    7.0890   67.3510 C.2   142  ASN142      0.2627
     82  OD1       36.6410    7.7320   67.0870 O.2   142  ASN142     -0.2716
     83  ND2       37.8880    6.5580   68.5490 N.am  142  ASN142     -0.0877
     84  N         37.6500    9.0210   64.3820 N.am  143  THR143     -0.1939
     85  CA        36.6150    9.9590   63.9680 C.3   143  THR143      0.2028
     86  C         35.3200    9.1650   63.7660 C.2   143  THR143      0.2642
     87  O         34.5860    9.3770   62.7990 O.2   143  THR143     -0.2714
     88  CB        36.9870   10.6750   62.6430 C.3   143  THR143      0.1808
     89  OG1       37.3440    9.7000   61.6560 O.3   143  THR143     -0.2208
     90  CG2       38.1370   11.6520   62.8490 C.3   143  THR143      0.0379
     91  N         35.0480    8.2570   64.7040 N.am  144  ASN144     -0.1971
     92  CA        33.8690    7.4030   64.6510 C.3   144  ASN144      0.1688
     93  C         32.9550    7.8000   65.8040 C.2   144  ASN144      0.2292
     94  O         33.2360    7.5140   66.9720 O.2   144  ASN144     -0.2864
     95  CB        34.3060    5.9370   64.7680 C.3   144  ASN144      0.1181
     96  CG        33.1330    4.9700   64.7760 C.2   144  ASN144      0.2629
     97  OD1       31.9760    5.3660   64.6020 O.2   144  ASN144     -0.2716
     98  ND2       33.4290    3.6870   64.9810 N.am  144  ASN144     -0.0877
@<TRIPOS>BOND
     1    30    28    1
     2    29    28    1
     3    28    27    2
     4     8     9    1
     5     8     7    1
     6    36    35    1
     7    37    35    1
     8    27    26    1
     9     6     7    1
    10     6     5    1
    11    35    32    1
    12     1     2    1
    13    26    25    1
    14    32    31    1
    15    32    33    1
    16     5     2    1
    17     2     3    1
    18    31    22   am
    19    24    25    1
    20    24    21    1
    21    33    34    2
    22    33    38   am
    23     3    10   am
    24     3     4    2
    25    22    21    1
    26    22    23    2
    27    10    11    1
    28    15    14    1
    29    21    20    1
    30    38    39    1
    31    20    18   am
    32    14    11    1
    33    11    12    1
    34    43    42    1
    35    16    12   am
    36    16    17    1
    37    39    42    1
    38    39    40    1
    39    18    17    1
    40    18    19    2
    41    12    13    2
    42    40    41    2
    43    60    59    1
    44    61    59    1
    45    59    58    2
    46    58    57    1
    47    57    56    1
    48    49    48    1
    49    56    55    1
    50    89    88    1
    51    50    48    1
    52    48    45    1
    53    88    90    1
    54    88    85    1
    55    87    86    2
    56    55    52    1
    57    45    44    1
    58    45    46    1
    59    51    46   am
    60    51    52    1
    61    86    85    1
    62    86    91   am
    63    46    47    2
    64    52    53    1
    65    85    84    1
    66    75    74    1
    67    84    78   am
    68    97    96    2
    69    74    71    1
    70    92    91    1
    71    92    95    1
    72    92    93    1
    73    95    96    1
    74    96    98   am
    75    53    54    2
    76    78    77    1
    77    78    79    2
    78    68    67   ar
    79    69    67   ar
    80    77    80    1
    81    77    76    1
    82    93    94    2
    83    71    70    1
    84    71    72    1
    85    67    66    1
    86    80    81    1
    87    73    72    2
    88    70    64   am
    89    82    81    2
    90    81    83   am
    91    64    63    1
    92    64    65    2
    93    62    63    1
    94    66    63    1
