@<TRIPOS>MOLECULE
tmp/3wndA00.pdb
 86 82 0 0 0
SMALL
GASTEIGER

@<TRIPOS>ATOM
      1  N         17.5960   -7.0980  -15.5840 N.3    63  LYS63      -0.1231
      2  CA        17.6260   -6.9520  -14.1030 C.3    63  LYS63       0.1693
      3  C         18.6210   -7.9070  -13.4600 C.2    63  LYS63       0.2593
      4  O         19.4220   -7.4740  -12.6180 O.2    63  LYS63      -0.2718
      5  CB        16.2360   -7.2010  -13.5220 C.3    63  LYS63       0.0285
      6  CG        16.1620   -7.1690  -11.9830 C.3    63  LYS63       0.0035
      7  CD        14.7650   -7.6310  -11.5140 C.3    63  LYS63       0.0206
      8  CE        14.6590   -9.1420  -11.1870 C.3    63  LYS63       0.1093
      9  NZ        13.4560   -9.8660  -11.7200 N.3    63  LYS63      -0.1314
     10  N         18.5760   -9.1880  -13.8250 N.am   64  THR64      -0.1939
     11  CA        19.5320  -10.1560  -13.2800 C.3    64  THR64       0.2028
     12  C         20.3540  -10.7870  -14.4510 C.2    64  THR64       0.2642
     13  O         19.8510  -11.0160  -15.5770 O.2    64  THR64      -0.2714
     14  CB        18.8860  -11.3430  -12.5280 C.3    64  THR64       0.1808
     15  OG1       18.2240  -12.2370  -13.4790 O.3    64  THR64      -0.2208
     16  CG2       17.9290  -10.8720  -11.5020 C.3    64  THR64       0.0379
     17  N         21.5900  -11.1430  -14.1330 N.am   65  LEU65      -0.1963
     18  CA        22.3940  -11.9860  -15.0250 C.3    65  LEU65       0.1728
     19  C         22.0180  -13.4150  -15.0430 C.2    65  LEU65       0.2616
     20  O         22.1210  -14.0890  -16.0710 O.2    65  LEU65      -0.2715
     21  CB        23.8820  -11.8720  -14.6500 C.3    65  LEU65       0.0311
     22  CG        24.4410  -10.4290  -14.7470 C.3    65  LEU65       0.0022
     23  CD1       25.9440  -10.4120  -14.4320 C.3    65  LEU65       0.0001
     24  CD2       24.1430   -9.6640  -16.0330 C.3    65  LEU65       0.0001
     25  N         21.6480  -13.9610  -13.8850 N.am   66  LYS66      -0.1977
     26  CA        21.2690  -15.3860  -13.8020 C.3    66  LYS66       0.1596
     27  C         20.2190  -15.7560  -14.8680 C.2    66  LYS66       0.2287
     28  O         20.2710  -16.8520  -15.4660 O.2    66  LYS66      -0.2864
     29  CB        20.7750  -15.6600  -12.3460 C.3    66  LYS66       0.0298
     30  CG        19.9700  -16.9510  -12.1330 C.3    66  LYS66       0.0038
     31  CD        19.4980  -17.0680  -10.6830 C.3    66  LYS66       0.0206
     32  CE        18.8050  -18.4520  -10.4220 C.3    66  LYS66       0.1093
     33  NZ        18.5690  -18.8020   -8.9730 N.3    66  LYS66      -0.1314
     34  N         30.9470  -12.2380   -9.0050 N.3   294  HIS294     -0.1241
     35  CA        29.9000  -13.2210   -9.0150 C.3   294  HIS294      0.1621
     36  C         30.3150  -14.2790   -9.9760 C.2   294  HIS294      0.2264
     37  O         30.8220  -13.9830  -11.0760 O.2   294  HIS294     -0.2867
     38  CB        28.5700  -12.6140   -9.4720 C.3   294  HIS294      0.0745
     39  CG        27.4150  -13.1510   -8.7400 C.ar  294  HIS294      0.0817
     40  ND1       27.1510  -12.8590   -7.4060 N.ar  294  HIS294     -0.2268
     41  CD2       26.3460  -13.9580   -9.2040 C.ar  294  HIS294      0.1154
     42  CE1       26.0500  -13.5430   -7.0400 C.ar  294  HIS294      0.1986
     43  NE2       25.5150  -14.1510   -8.1560 N.ar  294  HIS294     -0.2212
     44  N         29.5420  -17.7310  -12.2300 N.3   296  PHE296     -0.1241
     45  CA        28.5550  -18.6200  -12.8810 C.3   296  PHE296      0.1605
     46  C         29.2680  -19.8240  -13.4810 C.2   296  PHE296      0.2264
     47  O         30.2650  -19.7010  -14.1700 O.2   296  PHE296     -0.2867
     48  CB        27.9800  -17.8540  -14.0950 C.3   296  PHE296      0.0534
     49  CG        27.2120  -16.6260  -13.7120 C.ar  296  PHE296     -0.0203
     50  CD1       25.8460  -16.6620  -13.5520 C.ar  296  PHE296     -0.0042
     51  CD2       27.9050  -15.4490  -13.4140 C.ar  296  PHE296     -0.0042
     52  CE1       25.1640  -15.5000  -13.0970 C.ar  296  PHE296     -0.0003
     53  CE2       27.2210  -14.2880  -13.0120 C.ar  296  PHE296     -0.0003
     54  CZ        25.8870  -14.3090  -12.8350 C.ar  296  PHE296     -0.0000
     55  N         25.1040  -19.8860   -9.7020 N.3   301  SER301     -0.1217
     56  CA        25.5890  -18.5230   -9.6750 C.3   301  SER301      0.1889
     57  C         25.7240  -18.0780   -8.2480 C.2   301  SER301      0.2288
     58  O         24.6880  -17.9710   -7.5520 O.2   301  SER301     -0.2866
     59  CB        24.6140  -17.5760  -10.3920 C.3   301  SER301      0.2089
     60  OG        23.2720  -17.7130   -9.9010 O.3   301  SER301     -0.2183
     61  N         28.1600  -15.4650   -5.2210 N.3   303  PRO303     -0.2116
     62  CA        29.2600  -14.5350   -4.8940 C.3   303  PRO303      0.1372
     63  C         30.5860  -15.2460   -4.5150 C.2   303  PRO303      0.2244
     64  O         30.5910  -16.2930   -3.8340 O.2   303  PRO303     -0.2868
     65  CB        28.7110  -13.7170   -3.6810 C.3   303  PRO303      0.0268
     66  CG        27.6250  -14.4870   -3.1040 C.3   303  PRO303      0.0207
     67  CD        27.1350  -15.4930   -4.1560 C.3   303  PRO303      0.0892
     68  N         28.5890   -7.3360  -10.3660 N.3   348  LEU348     -0.1245
     69  CA        27.1990   -6.9490  -10.5020 C.3   348  LEU348      0.1561
     70  C         26.9860   -5.4910  -10.3420 C.2   348  LEU348      0.2260
     71  O         25.8740   -5.0360  -10.6300 O.2   348  LEU348     -0.2867
     72  CB        26.3010   -7.6900   -9.5130 C.3   348  LEU348      0.0270
     73  CG        26.3410   -9.2140   -9.4980 C.3   348  LEU348      0.0019
     74  CD1       25.5320   -9.8390   -8.4200 C.3   348  LEU348      0.0001
     75  CD2       25.8340   -9.7400  -10.8230 C.3   348  LEU348      0.0001
     76  N         28.5290   -5.8310  -16.8570 N.3   353  ARG353     -0.1245
     77  CA        28.8210   -6.5800  -15.6340 C.3   353  ARG353      0.1563
     78  C         29.7310   -7.7870  -15.8370 C.2   353  ARG353      0.2260
     79  O         30.1390   -8.4020  -14.8830 O.2   353  ARG353     -0.2867
     80  CB        27.5130   -7.0190  -14.9730 C.3   353  ARG353      0.0307
     81  CG        26.7240   -5.8180  -14.5280 C.3   353  ARG353      0.0489
     82  CD        25.2710   -6.1060  -14.1590 C.3   353  ARG353      0.2205
     83  NE        24.4680   -6.2200  -15.3840 N.pl3 353  ARG353     -0.0865
     84  CZ        23.1560   -6.4200  -15.3910 C.cat 353  ARG353      0.5346
     85  NH1       22.4220   -6.5530  -14.2350 N.pl3 353  ARG353      0.1354
     86  NH2       22.5560   -6.5200  -16.5720 N.pl3 353  ARG353      0.1354
@<TRIPOS>BOND
     1    76    77    1
     2    86    84    1
     3    20    19    2
     4    24    22    1
     5    78    77    1
     6    78    79    2
     7    77    80    1
     8     1     2    1
     9    13    12    2
    10    28    27    2
    11    84    83    2
    12    84    85    1
    13    83    82    1
    14    19    18    1
    15    19    25   am
    16    18    21    1
    17    18    17    1
    18    80    81    1
    19    27    26    1
    20    22    21    1
    21    22    23    1
    22    81    82    1
    23    12    17   am
    24    12    11    1
    25    47    46    2
    26     2     5    1
    27     2     3    1
    28    48    49    1
    29    48    45    1
    30    25    26    1
    31    10     3   am
    32    10    11    1
    33    26    29    1
    34    49    50   ar
    35    49    51   ar
    36    50    52   ar
    37     5     6    1
    38    46    45    1
    39    15    14    1
    40     3     4    2
    41    51    53   ar
    42    11    14    1
    43    52    54   ar
    44    53    54   ar
    45    45    44    1
    46    14    16    1
    47    29    30    1
    48    30    31    1
    49     6     7    1
    50     9     8    1
    51     7     8    1
    52    37    36    2
    53    75    73    1
    54    31    32    1
    55    71    70    2
    56    69    68    1
    57    69    70    1
    58    69    72    1
    59    32    33    1
    60    59    60    1
    61    59    56    1
    62    36    35    1
    63    55    56    1
    64    56    57    1
    65    72    73    1
    66    73    74    1
    67    38    35    1
    68    38    39    1
    69    41    39   ar
    70    41    43   ar
    71    35    34    1
    72    39    40   ar
    73    57    58    2
    74    43    42   ar
    75    40    42   ar
    76    61    62    1
    77    61    67    1
    78    62    63    1
    79    62    65    1
    80    63    64    2
    81    67    66    1
    82    65    66    1
