@<TRIPOS>MOLECULE
tmp/3wndA01.pdb
 76 71 0 0 0
SMALL
GASTEIGER

@<TRIPOS>ATOM
      1  N         21.4710   -0.1230  -30.2930 N.3    87  LEU87      -0.1231
      2  CA        22.8330   -0.3000  -29.8410 C.3    87  LEU87       0.1693
      3  C         23.1050    0.3770  -28.5330 C.2    87  LEU87       0.2592
      4  O         23.8220    1.4070  -28.5230 O.2    87  LEU87      -0.2718
      5  CB        23.7550    0.3170  -30.8870 C.3    87  LEU87       0.0284
      6  CG        23.5390   -0.3410  -32.2660 C.3    87  LEU87       0.0019
      7  CD1       24.4300    0.3830  -33.2830 C.3    87  LEU87       0.0001
      8  CD2       23.7680   -1.8620  -32.2600 C.3    87  LEU87       0.0001
      9  N         22.5700   -0.2080  -27.4430 N.am   88  ASP88      -0.1960
     10  CA        22.6530    0.4050  -26.1150 C.3    88  ASP88       0.1840
     11  C         23.5440   -0.4440  -25.2100 C.2    88  ASP88       0.2621
     12  O         24.2650   -1.3630  -25.6610 O.2    88  ASP88      -0.2715
     13  CB        21.2540    0.5610  -25.4930 C.3    88  ASP88       0.1450
     14  CG        20.5550   -0.7590  -25.2140 C.2    88  ASP88       0.3671
     15  OD1       21.1760   -1.8110  -25.3570 O.co2  88  ASP88      -0.2456
     16  OD2       19.3630   -0.7270  -24.7900 O.co2  88  ASP88      -0.2456
     17  N         23.4990   -0.1340  -23.9320 N.am   89  ALA89      -0.1977
     18  CA        24.4640   -0.7320  -22.9750 C.3    89  ALA89       0.1597
     19  C         24.1890   -2.2200  -22.8090 C.2    89  ALA89       0.2287
     20  O         25.1500   -3.0360  -22.7450 O.2    89  ALA89      -0.2864
     21  CB        24.3480   -0.0320  -21.6390 C.3    89  ALA89       0.0319
     22  N         22.5850   -4.2680  -25.0250 N.3    91  THR91      -0.1203
     23  CA        22.9340   -5.0280  -26.2490 C.3    91  THR91       0.1994
     24  C         24.4260   -5.2770  -26.2310 C.2    91  THR91       0.2618
     25  O         24.8920   -6.3840  -26.5270 O.2    91  THR91      -0.2717
     26  CB        22.5680   -4.1740  -27.4360 C.3    91  THR91       0.1784
     27  OG1       21.1530   -4.1210  -27.5140 O.3    91  THR91      -0.2211
     28  CG2       23.1280   -4.8150  -28.7140 C.3    91  THR91       0.0376
     29  N         25.2030   -4.2790  -25.8280 N.am   92  GLY92      -0.1956
     30  CA        26.6580   -4.4820  -25.7280 C.3    92  GLY92       0.1869
     31  C         27.0260   -5.5730  -24.6870 C.2    92  GLY92       0.2309
     32  O         27.9040   -6.3940  -24.9280 O.2    92  GLY92      -0.2863
     33  N         26.3220   -9.0010  -26.1760 N.3    95  ILE95      -0.1231
     34  CA        27.3840   -9.3610  -27.0960 C.3    95  ILE95       0.1692
     35  C         28.6290   -9.7980  -26.3630 C.2    95  ILE95       0.2591
     36  O         29.2070  -10.8100  -26.6870 O.2    95  ILE95      -0.2718
     37  CB        27.7060   -8.1550  -28.0190 C.3    95  ILE95       0.0266
     38  CG1       26.4970   -7.9760  -28.9650 C.3    95  ILE95       0.0019
     39  CG2       29.0260   -8.3620  -28.8100 C.3    95  ILE95       0.0020
     40  CD1       26.6010   -6.6960  -29.8070 C.3    95  ILE95       0.0001
     41  N         29.0290   -9.0600  -25.3050 N.am   96  ILE96      -0.1980
     42  CA        30.2010   -9.4140  -24.5480 C.3    96  ILE96       0.1595
     43  C         29.9970  -10.7770  -23.8600 C.2    96  ILE96       0.2287
     44  O         30.9190  -11.6340  -23.8860 O.2    96  ILE96      -0.2864
     45  CB        30.5050   -8.3010  -23.5390 C.3    96  ILE96       0.0276
     46  CG1       31.1910   -7.1490  -24.2920 C.3    96  ILE96       0.0022
     47  CG2       31.4530   -8.8590  -22.4730 C.3    96  ILE96       0.0022
     48  CD1       31.1710   -5.8610  -23.5110 C.3    96  ILE96       0.0001
     49  N         30.6700   -4.0090  -34.9890 N.3   131  ILE131     -0.1245
     50  CA        30.6980   -4.1740  -33.5610 C.3   131  ILE131      0.1561
     51  C         31.0250   -5.6470  -33.3140 C.2   131  ILE131      0.2260
     52  O         31.5820   -5.9830  -32.2380 O.2   131  ILE131     -0.2867
     53  CB        29.2610   -3.8450  -33.0750 C.3   131  ILE131      0.0252
     54  CG1       29.0530   -2.2990  -33.2570 C.3   131  ILE131      0.0019
     55  CG2       29.0760   -4.3100  -31.6330 C.3   131  ILE131      0.0019
     56  CD1       28.2420   -1.9390  -34.4760 C.3   131  ILE131      0.0001
     57  N         36.4970   -4.9170  -21.4330 N.3   283  PHE283     -0.1241
     58  CA        35.4890   -3.9540  -21.0590 C.3   283  PHE283      0.1605
     59  C         35.0340   -4.0830  -19.5990 C.2   283  PHE283      0.2264
     60  O         33.8520   -4.0480  -19.2980 O.2   283  PHE283     -0.2867
     61  CB        34.3280   -4.0290  -22.0630 C.3   283  PHE283      0.0534
     62  CG        34.7600   -3.5430  -23.4420 C.ar  283  PHE283     -0.0203
     63  CD1       34.8110   -2.1630  -23.6710 C.ar  283  PHE283     -0.0042
     64  CD2       35.2540   -4.4160  -24.3790 C.ar  283  PHE283     -0.0042
     65  CE1       35.3350   -1.6960  -24.8810 C.ar  283  PHE283     -0.0003
     66  CE2       35.7510   -3.9520  -25.5580 C.ar  283  PHE283     -0.0003
     67  CZ        35.7930   -2.6260  -25.8320 C.ar  283  PHE283     -0.0000
     68  N         28.4580   -2.6400  -17.5050 N.3   352  GLN352     -0.1245
     69  CA        28.6960   -3.8580  -18.3150 C.3   352  GLN352      0.1566
     70  C         29.2820   -4.7870  -17.1830 C.2   352  GLN352      0.2260
     71  O         30.3640   -4.5770  -16.7120 O.2   352  GLN352     -0.2867
     72  CB        29.7070   -3.5440  -19.4200 C.3   352  GLN352      0.0367
     73  CG        29.8430   -4.6490  -20.4960 C.3   352  GLN352      0.0905
     74  CD        30.3700   -5.9530  -19.9390 C.2   352  GLN352      0.2608
     75  OE1       29.5630   -6.9010  -19.6770 O.2   352  GLN352     -0.2717
     76  NE2       31.7010   -6.0160  -19.7150 N.am  352  GLN352     -0.0878
@<TRIPOS>BOND
     1    49    50    1
     2    56    54    1
     3    50    51    1
     4    50    53    1
     5    51    52    2
     6     7     6    1
     7    54    53    1
     8    53    55    1
     9     6     8    1
    10     6     5    1
    11     5     2    1
    12     1     2    1
    13     2     3    1
    14    40    38    1
    15    38    37    1
    16    39    37    1
    17    28    26    1
    18     3     4    2
    19     3     9   am
    20    37    34    1
    21    27    26    1
    22     9    10    1
    23    26    23    1
    24    34    35    1
    25    34    33    1
    26    36    35    2
    27    25    24    2
    28    35    41   am
    29    23    24    1
    30    23    22    1
    31    24    29   am
    32    10    13    1
    33    10    11    1
    34    67    66   ar
    35    67    65   ar
    36    29    30    1
    37    30    31    1
    38    12    11    2
    39    66    64   ar
    40    13    14    1
    41    15    14   ar
    42    41    42    1
    43    14    16   ar
    44    11    17   am
    45    32    31    2
    46    65    63   ar
    47    42    43    1
    48    42    45    1
    49    64    62   ar
    50    46    45    1
    51    46    48    1
    52    17    18    1
    53    44    43    2
    54    63    62   ar
    55    45    47    1
    56    62    61    1
    57    18    19    1
    58    18    21    1
    59    19    20    2
    60    61    58    1
    61    57    58    1
    62    58    59    1
    63    73    74    1
    64    73    72    1
    65    74    76   am
    66    74    75    2
    67    59    60    2
    68    72    69    1
    69    69    68    1
    70    69    70    1
    71    70    71    2
