@<TRIPOS>MOLECULE
tmp/3wnfA01.pdb
 81 78 0 0 0
SMALL
GASTEIGER

@<TRIPOS>ATOM
      1  N        -17.6350   28.6840  -13.6900 N.3    39  GLN39      -0.1245
      2  CA       -16.5660   29.1330  -12.8500 C.3    39  GLN39       0.1566
      3  C        -16.5620   28.3500  -11.5270 C.2    39  GLN39       0.2260
      4  O        -15.5150   27.9480  -11.0740 O.2    39  GLN39      -0.2867
      5  CB       -16.7150   30.6320  -12.5290 C.3    39  GLN39       0.0367
      6  CG       -16.3640   31.5350  -13.6570 C.3    39  GLN39       0.0905
      7  CD       -16.3740   33.0040  -13.3670 C.2    39  GLN39       0.2608
      8  OE1      -16.5500   33.4610  -12.2250 O.2    39  GLN39      -0.2717
      9  NE2      -16.1000   33.7600  -14.4030 N.am   39  GLN39      -0.0878
     10  N        -15.3080   24.7640  -12.3020 N.3    42  ALA42      -0.1231
     11  CA       -13.8530   24.7950  -12.5440 C.3    42  ALA42       0.1694
     12  C        -13.1020   24.8420  -11.2420 C.2    42  ALA42       0.2592
     13  O        -12.1070   24.1100  -11.0140 O.2    42  ALA42      -0.2718
     14  CB       -13.5380   26.0750  -13.3610 C.3    42  ALA42       0.0304
     15  N        -13.5120   25.7040  -10.3060 N.am   43  TYR43      -0.1976
     16  CA       -12.8530   25.8230   -9.0240 C.3    43  TYR43       0.1639
     17  C        -12.9450   24.5060   -8.2130 C.2    43  TYR43       0.2290
     18  O        -12.0130   24.0230   -7.6290 O.2    43  TYR43      -0.2864
     19  CB       -13.5140   26.9640   -8.1910 C.3    43  TYR43       0.0560
     20  CG       -12.8450   27.1590   -6.8740 C.ar   43  TYR43      -0.0198
     21  CD1      -11.5870   27.7410   -6.7480 C.ar   43  TYR43      -0.0009
     22  CD2      -13.4410   26.7240   -5.7780 C.ar   43  TYR43      -0.0009
     23  CE1      -10.9870   27.9530   -5.5780 C.ar   43  TYR43       0.0417
     24  CE2      -12.8610   26.9060   -4.5400 C.ar   43  TYR43       0.0417
     25  CZ       -11.6200   27.4960   -4.4370 C.ar   43  TYR43       0.1957
     26  OH       -11.0580   27.7010   -3.2080 O.3    43  TYR43      -0.2866
     27  N        -10.4930   22.0380   -9.8320 N.3    46  LEU46      -0.1245
     28  CA        -9.1050   22.4310   -9.4890 C.3    46  LEU46       0.1561
     29  C         -8.7900   21.9770   -8.1260 C.2    46  LEU46       0.2260
     30  O         -7.7360   21.4620   -7.7960 O.2    46  LEU46      -0.2867
     31  CB        -8.9830   23.9070   -9.5700 C.3    46  LEU46       0.0270
     32  CG        -7.6960   24.5180   -9.1300 C.3    46  LEU46       0.0019
     33  CD1       -6.4600   24.0400   -9.9670 C.3    46  LEU46       0.0001
     34  CD2       -7.8040   26.0490   -9.2440 C.3    46  LEU46       0.0001
     35  N        -15.5130   28.2250  -21.2620 N.3    68  ALA68      -0.1231
     36  CA       -14.0350   28.3930  -21.3980 C.3    68  ALA68       0.1694
     37  C        -13.3240   28.0730  -20.0970 C.2    68  ALA68       0.2592
     38  O        -12.2520   27.4450  -20.0810 O.2    68  ALA68      -0.2718
     39  CB       -13.7090   29.7950  -21.9610 C.3    68  ALA68       0.0304
     40  N        -14.0030   28.3520  -18.9810 N.am   69  THR69      -0.1953
     41  CA       -13.3190   28.3010  -17.6900 C.3    69  THR69       0.1897
     42  C        -13.0640   26.8450  -17.2290 C.2    69  THR69       0.2313
     43  O        -11.9490   26.4330  -16.8010 O.2    69  THR69      -0.2863
     44  CB       -14.0390   29.1850  -16.6300 C.3    69  THR69       0.1794
     45  OG1      -14.0800   30.5540  -17.1050 O.3    69  THR69      -0.2208
     46  CG2      -13.2250   29.1870  -15.3440 C.3    69  THR69       0.0378
     47  N        -12.7900   24.2830  -19.1700 N.3    71  ARG71      -0.1231
     48  CA       -11.8380   23.7440  -20.1660 C.3    71  ARG71       0.1694
     49  C        -10.4270   24.1700  -19.7160 C.2    71  ARG71       0.2592
     50  O         -9.5590   23.3530  -19.7070 O.2    71  ARG71      -0.2718
     51  CB       -12.1410   24.2880  -21.5670 C.3    71  ARG71       0.0321
     52  CG       -11.1830   23.9990  -22.7260 C.3    71  ARG71       0.0489
     53  CD       -11.7500   24.4350  -24.1200 C.3    71  ARG71       0.2205
     54  NE       -10.7520   24.1370  -25.1600 N.pl3  71  ARG71      -0.0865
     55  CZ        -9.7910   24.9620  -25.5700 C.cat  71  ARG71       0.5346
     56  NH1       -8.9330   24.5230  -26.5230 N.pl3  71  ARG71       0.1354
     57  NH2       -9.6630   26.2050  -25.0540 N.pl3  71  ARG71       0.1354
     58  N        -10.2980   25.4330  -19.3900 N.am   72  ALA72      -0.1966
     59  CA        -8.9230   26.0000  -18.9870 C.3    72  ALA72       0.1728
     60  C         -8.4240   25.3510  -17.7240 C.2    72  ALA72       0.2616
     61  O         -7.2560   24.9350  -17.5800 O.2    72  ALA72      -0.2715
     62  CB        -9.0210   27.5060  -18.7980 C.3    72  ALA72       0.0334
     63  N         -9.2690   25.2160  -16.7120 N.am   73  ALA73      -0.1977
     64  CA        -8.8380   24.6010  -15.4710 C.3    73  ALA73       0.1597
     65  C         -8.4540   23.1630  -15.6560 C.2    73  ALA73       0.2287
     66  O         -7.4850   22.6390  -15.1710 O.2    73  ALA73      -0.2864
     67  CB        -9.9670   24.7000  -14.3740 C.3    73  ALA73       0.0319
     68  N         -5.0120   22.8180  -17.5330 N.3    76  TRP76      -0.1241
     69  CA        -3.9770   23.1940  -16.5840 C.3    76  TRP76       0.1605
     70  C         -3.6660   21.9900  -15.6840 C.2    76  TRP76       0.2264
     71  O         -2.5080   21.5960  -15.4770 O.2    76  TRP76      -0.2867
     72  CB        -4.3240   24.4670  -15.8180 C.3    76  TRP76       0.0550
     73  CG        -3.2000   24.9070  -14.9400 C.ar   76  TRP76       0.0003
     74  CD1       -2.1580   25.7100  -15.2930 C.ar   76  TRP76       0.0946
     75  CD2       -2.9780   24.5440  -13.5660 C.ar   76  TRP76       0.0152
     76  NE1       -1.3200   25.9080  -14.2120 N.ar   76  TRP76      -0.2442
     77  CE2       -1.7830   25.1460  -13.1560 C.ar   76  TRP76       0.0810
     78  CE3       -3.7020   23.7740  -12.6270 C.ar   76  TRP76       0.0012
     79  CZ2       -1.2680   24.9990  -11.8580 C.ar   76  TRP76       0.0191
     80  CZ3       -3.1550   23.6090  -11.3880 C.ar   76  TRP76       0.0001
     81  CH2       -1.9750   24.2030  -11.0030 C.ar   76  TRP76       0.0015
@<TRIPOS>BOND
     1    56    55    1
     2    55    54    2
     3    55    57    1
     4    54    53    1
     5    53    52    1
     6    52    51    1
     7    39    36    1
     8    51    48    1
     9    36    35    1
    10    36    37    1
    11    48    49    1
    12    48    47    1
    13    37    38    2
    14    37    40   am
    15    49    50    2
    16    49    58   am
    17    58    59    1
    18    59    62    1
    19    59    60    1
    20    40    41    1
    21    60    61    2
    22    60    63   am
    23    41    42    1
    24    41    44    1
    25    68    69    1
    26    42    43    2
    27    45    44    1
    28    63    64    1
    29    44    46    1
    30    69    72    1
    31    69    70    1
    32    72    73    1
    33    70    71    2
    34    65    64    1
    35    65    66    2
    36    64    67    1
    37    74    73   ar
    38    74    76   ar
    39    73    75   ar
    40     9     7   am
    41    76    77   ar
    42     1     2    1
    43     6     7    1
    44     6     5    1
    45    75    77   ar
    46    75    78   ar
    47     7     8    2
    48    14    11    1
    49    77    79   ar
    50     2     5    1
    51     2     3    1
    52    78    80   ar
    53    11    10    1
    54    11    12    1
    55    79    81   ar
    56     3     4    2
    57    80    81   ar
    58    12    13    2
    59    12    15   am
    60    15    16    1
    61    33    32    1
    62    27    28    1
    63    31    28    1
    64    31    32    1
    65    28    29    1
    66    34    32    1
    67    16    17    1
    68    16    19    1
    69    17    18    2
    70    19    20    1
    71    29    30    2
    72    20    21   ar
    73    20    22   ar
    74    21    23   ar
    75    22    24   ar
    76    23    25   ar
    77    24    25   ar
    78    25    26    1
