@<TRIPOS>MOLECULE
tmp/3wnlA00.pdb
 72 66 0 0 0
SMALL
GASTEIGER

@<TRIPOS>ATOM
      1  N        -12.4930   57.5480   22.6300 N.3    83  ARG83      -0.1245
      2  CA       -12.7850   58.7430   21.8710 C.3    83  ARG83       0.1563
      3  C        -12.5800   59.9210   22.8130 C.2    83  ARG83       0.2260
      4  O        -12.8730   59.8160   24.0080 O.2    83  ARG83      -0.2867
      5  CB       -14.2360   58.6710   21.3340 C.3    83  ARG83       0.0307
      6  CG       -14.8580   60.0010   20.9520 C.3    83  ARG83       0.0489
      7  CD       -14.1150   60.6710   19.8150 C.3    83  ARG83       0.2205
      8  NE       -14.3330   59.9860   18.5430 N.pl3  83  ARG83      -0.0865
      9  CZ       -13.4260   59.8540   17.5750 C.cat  83  ARG83       0.5346
     10  NH1      -12.1910   60.3380   17.7060 N.pl3  83  ARG83       0.1354
     11  NH2      -13.7550   59.2190   16.4630 N.pl3  83  ARG83       0.1354
     12  N        -11.0570   66.5630   17.7210 N.3    91  GLN91      -0.1231
     13  CA       -11.1730   65.2720   18.3990 C.3    91  GLN91       0.1698
     14  C         -9.8950   64.4410   18.3110 C.2    91  GLN91       0.2593
     15  O         -8.9800   64.7670   17.5660 O.2    91  GLN91      -0.2718
     16  CB       -12.2850   64.4750   17.7320 C.3    91  GLN91       0.0381
     17  CG       -12.2650   64.5120   16.2100 C.3    91  GLN91       0.0905
     18  CD       -13.2390   63.4930   15.6230 C.2    91  GLN91       0.2608
     19  OE1      -14.2340   63.1100   16.2730 O.2    91  GLN91      -0.2717
     20  NE2      -12.9590   63.0330   14.3980 N.am   91  GLN91      -0.0878
     21  N         -9.8670   63.3310   19.0370 N.am   92  GLY92      -0.1942
     22  CA        -8.8550   62.2890   18.8360 C.3    92  GLY92       0.2014
     23  C         -9.2710   60.9060   19.3360 C.2    92  GLY92       0.2638
     24  O        -10.3950   60.7190   19.7900 O.2    92  GLY92      -0.2714
     25  N         -8.3590   59.9360   19.2490 N.am   93  ALA93      -0.1977
     26  CA        -8.6620   58.5790   19.6740 C.3    93  ALA93       0.1597
     27  C         -7.4490   57.7800   20.0920 C.2    93  ALA93       0.2287
     28  O         -6.3120   58.0420   19.6830 O.2    93  ALA93      -0.2864
     29  CB        -9.3620   57.8290   18.5690 C.3    93  ALA93       0.0319
     30  N          0.8340   57.9820   10.8820 N.3   555  ASN555     -0.1240
     31  CA        -0.5510   58.1910   11.3570 C.3   555  ASN555      0.1653
     32  C         -1.4970   57.0300   11.0400 C.2   555  ASN555      0.2266
     33  O         -2.2010   56.5370   11.9190 O.2   555  ASN555     -0.2867
     34  CB        -1.1210   59.5030   10.8160 C.3   555  ASN555      0.1155
     35  CG        -0.5710   60.7290   11.5580 C.2   555  ASN555      0.2627
     36  OD1       -0.5950   60.7880   12.8100 O.2   555  ASN555     -0.2716
     37  ND2       -0.0610   61.7160   10.7900 N.am  555  ASN555     -0.0877
     38  N         -0.7890   54.4090   13.4660 N.3   558  LYS558     -0.1231
     39  CA        -1.3300   54.6400   14.8110 C.3   558  LYS558      0.1693
     40  C         -2.8090   54.2080   14.7370 C.2   558  LYS558      0.2592
     41  O         -3.3140   53.4030   15.5670 O.2   558  LYS558     -0.2718
     42  CB        -1.1920   56.1040   15.2500 C.3   558  LYS558      0.0285
     43  CG         0.2280   56.6800   15.2310 C.3   558  LYS558      0.0035
     44  CD         0.2740   58.2010   15.4120 C.3   558  LYS558      0.0206
     45  CE        -0.0680   58.5670   16.8480 C.3   558  LYS558      0.1093
     46  NZ         0.1640   60.0070   17.1420 N.3   558  LYS558     -0.1314
     47  N         -3.4880   54.6850   13.6940 N.am  559  ASP559     -0.1974
     48  CA        -4.8670   54.2250   13.4600 C.3   559  ASP559      0.1709
     49  C         -4.9830   52.7030   13.3570 C.2   559  ASP559      0.2293
     50  O         -5.9020   52.1270   13.9630 O.2   559  ASP559     -0.2864
     51  CB        -5.5110   54.9390   12.2500 C.3   559  ASP559      0.1436
     52  CG        -5.9940   56.3530   12.6060 C.2   559  ASP559      0.3671
     53  OD1       -6.4800   56.5840   13.7640 O.co2 559  ASP559     -0.2456
     54  OD2       -5.8550   57.2420   11.7400 O.co2 559  ASP559     -0.2456
     55  N         -4.3940   51.1720   16.8050 N.3   562  ASN562     -0.1240
     56  CA        -5.5560   51.5170   17.6460 C.3   562  ASN562      0.1653
     57  C         -6.6490   50.5620   17.2780 C.2   562  ASN562      0.2266
     58  O         -7.2110   49.8590   18.1160 O.2   562  ASN562     -0.2867
     59  CB        -6.0280   52.9320   17.3830 C.3   562  ASN562      0.1155
     60  CG        -5.2190   53.9780   18.1410 C.2   562  ASN562      0.2627
     61  OD1       -4.5940   53.6910   19.1460 O.2   562  ASN562     -0.2716
     62  ND2       -5.2880   55.2220   17.6770 N.am  562  ASN562     -0.0877
     63  N        -12.6350   58.2290   11.0540 N.3   663  SER663     -0.1202
     64  CA       -12.7420   58.7750   12.4080 C.3   663  SER663      0.2020
     65  C        -11.9290   57.9520   13.3640 C.2   663  SER663      0.2619
     66  O        -12.3850   57.6290   14.4570 O.2   663  SER663     -0.2717
     67  CB       -14.2130   58.8810   12.8670 C.3   663  SER663      0.2103
     68  OG       -15.0270   59.4580   11.8360 O.3   663  SER663     -0.2182
     69  N        -10.7110   57.5970   12.9420 N.am  664  GLY664     -0.1956
     70  CA        -9.8310   56.7670   13.7780 C.3   664  GLY664      0.1869
     71  C        -10.3670   55.4040   14.1890 C.2   664  GLY664      0.2309
     72  O         -9.8930   54.8620   15.1580 O.2   664  GLY664     -0.2863
@<TRIPOS>BOND
     1    37    35   am
     2    34    31    1
     3    34    35    1
     4    30    31    1
     5    32    31    1
     6    32    33    2
     7    63    64    1
     8    35    36    2
     9    54    52   ar
    10    68    67    1
    11    51    52    1
    12    51    48    1
    13    64    67    1
    14    64    65    1
    15    52    53   ar
    16    69    65   am
    17    69    70    1
    18    49    48    1
    19    49    50    2
    20    65    66    2
    21    48    47    1
    22    38    39    1
    23    47    40   am
    24    70    71    1
    25    71    72    2
    26    20    18   am
    27    40    39    1
    28    40    41    2
    29    39    42    1
    30    43    42    1
    31    43    44    1
    32    44    45    1
    33    18    17    1
    34    18    19    2
    35    17    16    1
    36    11     9    1
    37    55    56    1
    38    45    46    1
    39    57    56    1
    40    57    58    2
    41    59    56    1
    42    59    60    1
    43    15    14    2
    44     9    10    1
    45     9     8    2
    46    62    60   am
    47    12    13    1
    48    16    13    1
    49    60    61    2
    50    14    13    1
    51    14    21   am
    52     8     7    1
    53    29    26    1
    54    22    21    1
    55    22    23    1
    56    25    23   am
    57    25    26    1
    58    23    24    2
    59    26    27    1
    60    28    27    2
    61     7     6    1
    62     6     5    1
    63     5     2    1
    64     2     1    1
    65     2     3    1
    66     3     4    2
