@<TRIPOS>MOLECULE
tmp/3wnlA02.pdb
 104 101 0 0 0
SMALL
GASTEIGER

@<TRIPOS>ATOM
      1  N         25.2150   52.4960  -21.8810 N.3   398  ASN398     -0.1225
      2  CA        25.7160   51.2920  -22.5440 C.3   398  ASN398      0.1785
      3  C         25.6750   49.9850  -21.6830 C.2   398  ASN398      0.2597
      4  O         26.6040   49.1880  -21.7040 O.2   398  ASN398     -0.2718
      5  CB        27.1430   51.5930  -23.0740 C.3   398  ASN398      0.1169
      6  CG        28.1530   51.8520  -21.9520 C.2   398  ASN398      0.2627
      7  OD1       27.8020   52.3210  -20.8540 O.2   398  ASN398     -0.2716
      8  ND2       29.4110   51.5260  -22.2160 N.am  398  ASN398     -0.0877
      9  N         24.5860   49.7960  -20.9390 N.am  399  HIS399     -0.1975
     10  CA        24.2930   48.5960  -20.1090 C.3   399  HIS399      0.1656
     11  C         22.8080   48.7320  -19.7310 C.2   399  HIS399      0.2291
     12  O         22.3410   49.8200  -19.3290 O.2   399  HIS399     -0.2864
     13  CB        25.1070   48.5290  -18.8140 C.3   399  HIS399      0.0771
     14  CG        26.5740   48.3040  -19.0090 C.ar  399  HIS399      0.0820
     15  ND1       27.0890   47.1310  -19.5160 N.ar  399  HIS399     -0.2267
     16  CD2       27.6410   49.0960  -18.7340 C.ar  399  HIS399      0.1154
     17  CE1       28.4100   47.2170  -19.5630 C.ar  399  HIS399      0.1986
     18  NE2       28.7700   48.4010  -19.0990 N.ar  399  HIS399     -0.2212
     19  N         22.7720   56.6420  -16.7960 N.3   407  PHE407     -0.1241
     20  CA        23.4400   56.5690  -15.5430 C.3   407  PHE407      0.1605
     21  C         24.8310   57.1830  -15.6150 C.2   407  PHE407      0.2264
     22  O         25.3170   57.5460  -16.6870 O.2   407  PHE407     -0.2867
     23  CB        23.5350   55.1110  -15.1240 C.3   407  PHE407      0.0534
     24  CG        24.2310   54.2530  -16.1160 C.ar  407  PHE407     -0.0203
     25  CD1       23.5300   53.6490  -17.1340 C.ar  407  PHE407     -0.0042
     26  CD2       25.5900   54.0470  -16.0260 C.ar  407  PHE407     -0.0042
     27  CE1       24.1860   52.8450  -18.0600 C.ar  407  PHE407     -0.0003
     28  CE2       26.2550   53.2510  -16.9440 C.ar  407  PHE407     -0.0003
     29  CZ        25.5500   52.6480  -17.9650 C.ar  407  PHE407     -0.0000
     30  N         28.7080   56.6130  -15.2170 N.3   409  ASP409     -0.1225
     31  CA        29.6860   55.5580  -15.3020 C.3   409  ASP409      0.1805
     32  C         30.9930   56.0020  -14.6780 C.2   409  ASP409      0.2597
     33  O         31.0450   57.0600  -14.0600 O.2   409  ASP409     -0.2718
     34  CB        29.9150   55.1570  -16.7700 C.3   409  ASP409      0.1424
     35  CG        30.4680   56.3050  -17.6290 C.2   409  ASP409      0.3668
     36  OD1       30.8110   57.3930  -17.1010 O.co2 409  ASP409     -0.2456
     37  OD2       30.5430   56.1100  -18.8500 O.co2 409  ASP409     -0.2456
     38  N         32.0200   55.1520  -14.8180 N.am  410  GLN410     -0.1979
     39  CA        33.4240   55.5410  -14.6790 C.3   410  GLN410      0.1601
     40  C         33.6300   56.4050  -13.4700 C.2   410  GLN410      0.2287
     41  O         34.2250   57.4810  -13.5320 O.2   410  GLN410     -0.2864
     42  CB        33.8860   56.3090  -15.9240 C.3   410  GLN410      0.0394
     43  CG        34.0150   55.4690  -17.1870 C.3   410  GLN410      0.0908
     44  CD        35.0610   54.3820  -17.0470 C.2   410  GLN410      0.2608
     45  OE1       35.8890   54.3980  -16.1180 O.2   410  GLN410     -0.2717
     46  NE2       35.0250   53.4210  -17.9630 N.am  410  GLN410     -0.0878
     47  N         35.4050   56.1100  -10.7380 N.3   412  ALA412     -0.1245
     48  CA        36.4930   55.2230  -10.3570 C.3   412  ALA412      0.1562
     49  C         37.7810   55.8760   -9.8270 C.2   412  ALA412      0.2260
     50  O         38.8010   55.1840   -9.7420 O.2   412  ALA412     -0.2867
     51  CB        36.8390   54.3750  -11.5750 C.3   412  ALA412      0.0290
     52  N         31.1550   45.6360  -10.9940 N.3   439  ASN439     -0.1225
     53  CA        31.6850   44.3890  -11.5520 C.3   439  ASN439      0.1785
     54  C         33.1800   44.5690  -11.6900 C.2   439  ASN439      0.2597
     55  O         33.7500   44.5280  -12.7810 O.2   439  ASN439     -0.2718
     56  CB        31.0150   44.0240  -12.9040 C.3   439  ASN439      0.1169
     57  CG        31.4500   42.6490  -13.4330 C.2   439  ASN439      0.2627
     58  OD1       31.4900   42.4160  -14.6460 O.2   439  ASN439     -0.2716
     59  ND2       31.8000   41.7450  -12.5200 N.am  439  ASN439     -0.0877
     60  N         33.7920   44.8430  -10.5510 N.am  440  THR440     -0.1953
     61  CA        35.2110   45.1020  -10.4680 C.3   440  THR440      0.1897
     62  C         35.8880   43.8980   -9.8830 C.2   440  THR440      0.2313
     63  O         37.1120   43.8420   -9.8490 O.2   440  THR440     -0.2863
     64  CB        35.5220   46.3130   -9.5460 C.3   440  THR440      0.1794
     65  OG1       34.9150   46.1330   -8.2390 O.3   440  THR440     -0.2208
     66  CG2       35.0500   47.6090  -10.2280 C.3   440  THR440      0.0378
     67  N         28.1630   43.9420  -15.0160 N.3   466  TRP466     -0.1241
     68  CA        27.8010   45.3480  -15.1990 C.3   466  TRP466      0.1605
     69  C         26.3560   45.4880  -15.7320 C.2   466  TRP466      0.2264
     70  O         25.8060   46.5830  -15.7610 O.2   466  TRP466     -0.2867
     71  CB        28.7750   46.0330  -16.1790 C.3   466  TRP466      0.0550
     72  CG        30.2210   46.2490  -15.6990 C.ar  466  TRP466      0.0003
     73  CD1       31.3500   45.7490  -16.2770 C.ar  466  TRP466      0.0946
     74  CD2       30.6710   47.0600  -14.5920 C.ar  466  TRP466      0.0152
     75  NE1       32.4700   46.1770  -15.6000 N.ar  466  TRP466     -0.2442
     76  CE2       32.0860   46.9710  -14.5560 C.ar  466  TRP466      0.0810
     77  CE3       30.0170   47.8370  -13.6220 C.ar  466  TRP466      0.0012
     78  CZ2       32.8580   47.6190  -13.5900 C.ar  466  TRP466      0.0191
     79  CZ3       30.7890   48.4870  -12.6570 C.ar  466  TRP466      0.0001
     80  CH2       32.1960   48.3740  -12.6530 C.ar  466  TRP466      0.0015
     81  N         37.7640   50.8000   -5.8680 N.3   496  GLY496     -0.1210
     82  CA        36.9370   50.1850   -6.8690 C.3   496  GLY496      0.1956
     83  C         36.3550   51.1420   -7.8590 C.2   496  GLY496      0.2612
     84  O         37.0500   51.9420   -8.4440 O.2   496  GLY496     -0.2717
     85  N         35.0600   51.0510   -8.0550 N.am  497  ALA497     -0.1965
     86  CA        34.4130   51.8640   -9.0400 C.3   497  ALA497      0.1728
     87  C         32.9680   51.4390   -9.0040 C.2   497  ALA497      0.2616
     88  O         32.6840   50.4270   -8.3690 O.2   497  ALA497     -0.2715
     89  CB        35.0250   51.6300  -10.4070 C.3   497  ALA497      0.0334
     90  N         32.0740   52.2430   -9.5990 N.am  498  VAL498     -0.1963
     91  CA        30.6300   51.9310   -9.7060 C.3   498  VAL498      0.1727
     92  C         29.9990   52.6850  -10.8930 C.2   498  VAL498      0.2616
     93  O         30.5450   53.6840  -11.3670 O.2   498  VAL498     -0.2715
     94  CB        29.7940   52.2960   -8.4370 C.3   498  VAL498      0.0290
     95  CG1       30.4990   51.9310   -7.1270 C.3   498  VAL498      0.0023
     96  CG2       29.4200   53.7720   -8.4310 C.3   498  VAL498      0.0023
     97  N         28.8830   52.1820  -11.4060 N.am  499  ASN499     -0.1972
     98  CA        27.9760   53.0150  -12.1810 C.3   499  ASN499      0.1688
     99  C         26.8500   53.3910  -11.2130 C.2   499  ASN499      0.2292
    100  O         26.3900   52.5590  -10.4310 O.2   499  ASN499     -0.2864
    101  CB        27.4380   52.3050  -13.4320 C.3   499  ASN499      0.1181
    102  CG        28.5480   51.7700  -14.3550 C.2   499  ASN499      0.2629
    103  OD1       29.6270   52.3460  -14.4470 O.2   499  ASN499     -0.2716
    104  ND2       28.2800   50.6450  -15.0310 N.am  499  ASN499     -0.0877
@<TRIPOS>BOND
     1     5     2    1
     2     5     6    1
     3     2     1    1
     4     2     3    1
     5     8     6   am
     6     6     7    2
     7     4     3    2
     8     3     9   am
     9     9    10    1
    10    10    11    1
    11    10    13    1
    12    11    12    2
    13    17    15   ar
    14    17    18   ar
    15    15    14   ar
    16    18    16   ar
    17    14    13    1
    18    14    16   ar
    19    37    35   ar
    20    27    29   ar
    21    27    25   ar
    22    29    28   ar
    23    46    44   am
    24    35    36   ar
    25    35    34    1
    26    43    44    1
    27    43    42    1
    28    25    24   ar
    29    44    45    2
    30    28    26   ar
    31    19    20    1
    32    34    31    1
    33    22    21    2
    34    73    72   ar
    35    73    75   ar
    36    71    72    1
    37    71    68    1
    38    24    26   ar
    39    24    23    1
    40    42    39    1
    41    70    69    2
    42    69    68    1
    43    72    74   ar
    44    21    20    1
    45    75    76   ar
    46    20    23    1
    47    31    30    1
    48    31    32    1
    49    68    67    1
    50   104   102   am
    51    38    39    1
    52    38    32   am
    53    39    40    1
    54    32    33    2
    55    58    57    2
    56    74    76   ar
    57    74    77   ar
    58    76    78   ar
    59   103   102    2
    60   102   101    1
    61    77    79   ar
    62    78    80   ar
    63    41    40    2
    64    57    56    1
    65    57    59   am
    66   101    98    1
    67    56    53    1
    68    55    54    2
    69    79    80   ar
    70    98    97    1
    71    98    99    1
    72    54    53    1
    73    54    60   am
    74    51    48    1
    75    53    52    1
    76    97    92   am
    77    93    92    2
    78    99   100    2
    79    92    91    1
    80    47    48    1
    81    60    61    1
    82    61    62    1
    83    61    64    1
    84    89    86    1
    85    48    49    1
    86    66    64    1
    87    62    63    2
    88    49    50    2
    89    91    90    1
    90    91    94    1
    91    90    87   am
    92    64    65    1
    93    86    87    1
    94    86    85    1
    95    87    88    2
    96    84    83    2
    97    94    96    1
    98    94    95    1
    99    85    83   am
   100    83    82    1
   101    82    81    1
