@<TRIPOS>MOLECULE
tmp/3wnlA01.pdb
 269 262 0 0 0
SMALL
GASTEIGER

@<TRIPOS>ATOM
      1  N         10.9800   42.1150   20.4210 N.3   140  GLN140     -0.1245
      2  CA        12.0130   41.1670   20.0200 C.3   140  GLN140      0.1566
      3  C         13.3370   41.8880   20.0330 C.2   140  GLN140      0.2260
      4  O         13.5680   42.8110   19.2480 O.2   140  GLN140     -0.2867
      5  CB        11.7410   40.5510   18.6570 C.3   140  GLN140      0.0367
      6  CG        12.5250   39.2740   18.3640 C.3   140  GLN140      0.0905
      7  CD        12.6670   39.0020   16.8580 C.2   140  GLN140      0.2608
      8  OE1       13.7810   38.7670   16.3240 O.2   140  GLN140     -0.2717
      9  NE2       11.5350   39.0720   16.1550 N.am  140  GLN140     -0.0878
     10  N         16.8570   41.9440   18.9990 N.3   142  TYR142     -0.1227
     11  CA        17.5520   41.3590   17.8710 C.3   142  TYR142      0.1736
     12  C         19.0120   41.6900   17.9120 C.2   142  TYR142      0.2595
     13  O         19.4030   42.8800   17.9850 O.2   142  TYR142     -0.2718
     14  CB        17.0110   41.9240   16.5620 C.3   142  TYR142      0.0548
     15  CG        17.5790   41.2390   15.3250 C.ar  142  TYR142     -0.0200
     16  CD1       18.8040   41.6280   14.7730 C.ar  142  TYR142     -0.0009
     17  CD2       16.8910   40.2060   14.7130 C.ar  142  TYR142     -0.0009
     18  CE1       19.3150   40.9810   13.6590 C.ar  142  TYR142      0.0417
     19  CE2       17.3970   39.5690   13.5840 C.ar  142  TYR142      0.0417
     20  CZ        18.6010   39.9580   13.0710 C.ar  142  TYR142      0.1957
     21  OH        19.0770   39.3310   11.9600 O.3   142  TYR142     -0.2866
     22  N         19.8050   40.6380   17.7820 N.am  143  ASP143     -0.1974
     23  CA        21.2620   40.7310   17.7570 C.3   143  ASP143      0.1709
     24  C         21.7750   41.5240   18.9220 C.2   143  ASP143      0.2293
     25  O         22.5060   42.5140   18.7630 O.2   143  ASP143     -0.2864
     26  CB        21.7630   41.2860   16.4190 C.3   143  ASP143      0.1436
     27  CG        21.9100   40.2090   15.3690 C.2   143  ASP143      0.3671
     28  OD1       21.2460   39.1710   15.5620 O.co2 143  ASP143     -0.2456
     29  OD2       22.6720   40.3860   14.3700 O.co2 143  ASP143     -0.2456
     30  N         23.0510   39.5240   21.4410 N.3   145  MET145     -0.1245
     31  CA        23.9680   38.5750   22.0620 C.3   145  MET145      0.1570
     32  C         25.3950   38.8190   21.5840 C.2   145  MET145      0.2261
     33  O         25.5850   39.4050   20.5260 O.2   145  MET145     -0.2867
     34  CB        23.5440   37.1430   21.7820 C.3   145  MET145      0.0387
     35  CG        23.5280   36.7250   20.3280 C.3   145  MET145      0.0595
     36  SD        22.0380   37.2990   19.5120 S.3   145  MET145     -0.1393
     37  CE        22.3380   36.8490   17.8130 C.3   145  MET145      0.0692
     38  N         26.3210   33.5280   19.2740 N.3   148  HIS148     -0.1241
     39  CA        25.1530   32.6790   19.1890 C.3   148  HIS148      0.1621
     40  C         25.1760   31.5090   20.2060 C.2   148  HIS148      0.2264
     41  O         24.1250   31.0420   20.6070 O.2   148  HIS148     -0.2867
     42  CB        25.0300   32.1500   17.7570 C.3   148  HIS148      0.0745
     43  CG        24.3430   33.0950   16.8210 C.ar  148  HIS148      0.0817
     44  ND1       24.9400   34.2440   16.3530 N.ar  148  HIS148     -0.2268
     45  CD2       23.0840   33.0900   16.3180 C.ar  148  HIS148      0.1154
     46  CE1       24.0810   34.8980   15.5890 C.ar  148  HIS148      0.1986
     47  NE2       22.9480   34.2210   15.5580 N.ar  148  HIS148     -0.2212
     48  N         28.5520   39.8320   15.7750 N.3   166  LEU166     -0.1231
     49  CA        29.1760   39.1780   14.6550 C.3   166  LEU166      0.1693
     50  C         29.4360   40.1180   13.4920 C.2   166  LEU166      0.2592
     51  O         30.2400   39.7890   12.6150 O.2   166  LEU166     -0.2718
     52  CB        28.3540   37.9920   14.1670 C.3   166  LEU166      0.0284
     53  CG        27.0810   38.3580   13.3930 C.3   166  LEU166      0.0019
     54  CD1       26.4620   37.1840   12.6250 C.3   166  LEU166      0.0001
     55  CD2       26.0840   38.9520   14.3810 C.3   166  LEU166      0.0001
     56  N         28.7350   41.2400   13.4390 N.am  167  PHE167     -0.1976
     57  CA        29.0210   42.2390   12.4290 C.3   167  PHE167      0.1639
     58  C         29.8140   43.4040   13.0280 C.2   167  PHE167      0.2290
     59  O         29.7880   44.5270   12.5150 O.2   167  PHE167     -0.2864
     60  CB        27.7500   42.7480   11.7940 C.3   167  PHE167      0.0560
     61  CG        27.0560   41.7330   10.9500 C.ar  167  PHE167     -0.0200
     62  CD1       27.6120   41.3270    9.7330 C.ar  167  PHE167     -0.0042
     63  CD2       25.8350   41.1950   11.3430 C.ar  167  PHE167     -0.0042
     64  CE1       26.9660   40.3880    8.9270 C.ar  167  PHE167     -0.0003
     65  CE2       25.1900   40.2550   10.5530 C.ar  167  PHE167     -0.0003
     66  CZ        25.7530   39.8540    9.3380 C.ar  167  PHE167     -0.0000
     67  N         16.1660   37.1960   21.1730 N.3   193  TYR193     -0.1241
     68  CA        16.3910   36.4320   19.9830 C.3   193  TYR193      0.1605
     69  C         17.5140   35.4380   20.2380 C.2   193  TYR193      0.2264
     70  O         18.5410   35.7460   20.8610 O.2   193  TYR193     -0.2867
     71  CB        16.8130   37.3570   18.8680 C.3   193  TYR193      0.0534
     72  CG        17.3200   36.6680   17.5900 C.ar  193  TYR193     -0.0201
     73  CD1       18.5970   36.1140   17.5120 C.ar  193  TYR193     -0.0009
     74  CD2       16.5160   36.5960   16.4780 C.ar  193  TYR193     -0.0009
     75  CE1       19.0350   35.5250   16.3490 C.ar  193  TYR193      0.0417
     76  CE2       16.9560   36.0360   15.3150 C.ar  193  TYR193      0.0417
     77  CZ        18.2020   35.4960   15.2490 C.ar  193  TYR193      0.1957
     78  OH        18.5810   34.9310   14.0590 O.3   193  TYR193     -0.2866
     79  N         19.1230   31.5260   18.2880 N.3   195  MET195     -0.1245
     80  CA        18.9540   30.4300   17.3620 C.3   195  MET195      0.1570
     81  C         18.6130   29.1230   18.0920 C.2   195  MET195      0.2261
     82  O         19.0360   28.8860   19.1990 O.2   195  MET195     -0.2867
     83  CB        20.2420   30.2310   16.5580 C.3   195  MET195      0.0387
     84  CG        20.3420   31.0850   15.2990 C.3   195  MET195      0.0595
     85  SD        19.3010   30.4670   13.9320 S.3   195  MET195     -0.1393
     86  CE        19.4960   31.7340   12.7000 C.3   195  MET195      0.0692
     87  N         26.6410   28.6420    7.9080 N.3   226  VAL226     -0.1245
     88  CA        26.1740   29.9210    7.3850 C.3   226  VAL226      0.1561
     89  C         27.4330   30.7650    7.2610 C.2   226  VAL226      0.2260
     90  O         28.1730   30.9400    8.2260 O.2   226  VAL226     -0.2867
     91  CB        25.1410   30.5890    8.3060 C.3   226  VAL226      0.0252
     92  CG1       24.6780   31.9130    7.7520 C.3   226  VAL226      0.0019
     93  CG2       23.9200   29.7100    8.4490 C.3   226  VAL226      0.0019
     94  N         29.3320   34.1280    6.4020 N.3   228  PHE228     -0.1241
     95  CA        29.0730   35.5860    6.3630 C.3   228  PHE228      0.1605
     96  C         29.9530   36.3580    5.4120 C.2   228  PHE228      0.2264
     97  O         29.7590   37.5580    5.2580 O.2   228  PHE228     -0.2867
     98  CB        29.0900   36.1900    7.7720 C.3   228  PHE228      0.0534
     99  CG        27.8950   35.7920    8.5310 C.ar  228  PHE228     -0.0203
    100  CD1       26.6570   36.3030    8.1810 C.ar  228  PHE228     -0.0042
    101  CD2       27.9670   34.7850    9.4790 C.ar  228  PHE228     -0.0042
    102  CE1       25.5230   35.8940    8.8240 C.ar  228  PHE228     -0.0003
    103  CE2       26.8460   34.3730   10.1270 C.ar  228  PHE228     -0.0003
    104  CZ        25.6300   34.9410    9.8190 C.ar  228  PHE228     -0.0000
    105  N         28.2330   30.7490   11.3370 N.3   235  LEU235     -0.1245
    106  CA        27.4740   29.8510   12.1540 C.3   235  LEU235      0.1561
    107  C         27.5680   28.3500   11.6890 C.2   235  LEU235      0.2260
    108  O         27.3930   28.0320   10.5190 O.2   235  LEU235     -0.2867
    109  CB        25.9980   30.2920   12.1610 C.3   235  LEU235      0.0270
    110  CG        25.6780   31.7180   12.5630 C.3   235  LEU235      0.0019
    111  CD1       24.1930   31.9190   12.3260 C.3   235  LEU235      0.0001
    112  CD2       26.0210   32.0520   14.0010 C.3   235  LEU235      0.0001
    113  N         12.7170   34.2690   21.9300 N.3   266  HIS266     -0.1241
    114  CA        12.3180   34.1650   20.5150 C.3   266  HIS266      0.1621
    115  C         13.3080   33.2700   19.7340 C.2   266  HIS266      0.2264
    116  O         14.4180   33.6970   19.3560 O.2   266  HIS266     -0.2867
    117  CB        12.3060   35.5460   19.9170 C.3   266  HIS266      0.0745
    118  CG        11.9450   35.5800   18.4760 C.ar  266  HIS266      0.0817
    119  ND1       10.7310   36.0470   18.0390 N.ar  266  HIS266     -0.2268
    120  CD2       12.6300   35.2130   17.3670 C.ar  266  HIS266      0.1154
    121  CE1       10.6750   35.9460   16.7220 C.ar  266  HIS266      0.1986
    122  NE2       11.8200   35.4640   16.2890 N.ar  266  HIS266     -0.2212
    123  N         14.8640   31.3670   16.6620 N.3   268  ALA268     -0.1231
    124  CA        15.0080   31.5050   15.2400 C.3   268  ALA268      0.1694
    125  C         15.5510   30.2370   14.6040 C.2   268  ALA268      0.2592
    126  O         15.9800   29.3050   15.2900 O.2   268  ALA268     -0.2718
    127  CB        16.0000   32.6150   14.9950 C.3   268  ALA268      0.0304
    128  N         15.5870   30.2440   13.2740 N.am  269  GLN269     -0.1966
    129  CA        16.1750   29.1640   12.5040 C.3   269  GLN269      0.1733
    130  C         16.4190   29.6390   11.1000 C.2   269  GLN269      0.2616
    131  O         15.9000   30.6950   10.7180 O.2   269  GLN269     -0.2715
    132  CB        15.2670   27.9470   12.4630 C.3   269  GLN269      0.0408
    133  CG        13.9730   28.2420   11.7620 C.3   269  GLN269      0.0908
    134  CD        13.3960   27.0590   11.0000 C.2   269  GLN269      0.2608
    135  OE1       14.1240   26.1440   10.5600 O.2   269  GLN269     -0.2717
    136  NE2       12.0670   27.0690   10.8530 N.am  269  GLN269     -0.0878
    137  N         17.1900   28.8550   10.3260 N.am  270  MET270     -0.1977
    138  CA        17.5440   29.2960    8.9740 C.3   270  MET270      0.1605
    139  C         16.5370   28.8350    7.9240 C.2   270  MET270      0.2287
    140  O         16.5680   29.2680    6.8340 O.2   270  MET270     -0.2864
    141  CB        18.9440   28.8590    8.5950 C.3   270  MET270      0.0413
    142  CG        20.0300   29.5140    9.4300 C.3   270  MET270      0.0598
    143  SD        20.1690   31.3130    9.1900 S.3   270  MET270     -0.1393
    144  CE        20.4920   31.4830    7.4390 C.3   270  MET270      0.0692
    145  N         10.4350   30.5980   15.0300 N.3   314  ASN314     -0.1240
    146  CA        10.2550   31.0720   13.6650 C.3   314  ASN314      0.1653
    147  C         10.0240   29.9350   12.6510 C.2   314  ASN314      0.2266
    148  O         10.9850   29.2490   12.1910 O.2   314  ASN314     -0.2867
    149  CB        11.4470   31.9040   13.2230 C.3   314  ASN314      0.1155
    150  CG        11.1920   32.6360   11.9210 C.2   314  ASN314      0.2627
    151  OD1       10.0300   32.7470   11.4740 O.2   314  ASN314     -0.2716
    152  ND2       12.2740   33.1660   11.3020 N.am  314  ASN314     -0.0877
    153  N          4.7540   32.1610   15.1470 N.3   338  TYR338     -0.1241
    154  CA         5.4840   33.1690   14.3900 C.3   338  TYR338      0.1605
    155  C          6.0150   32.5830   13.0620 C.2   338  TYR338      0.2264
    156  O          6.4700   31.4350   12.9990 O.2   338  TYR338     -0.2867
    157  CB         6.6330   33.6750   15.2690 C.3   338  TYR338      0.0534
    158  CG         7.4870   34.8090   14.7130 C.ar  338  TYR338     -0.0201
    159  CD1        8.5410   34.5600   13.8150 C.ar  338  TYR338     -0.0009
    160  CD2        7.3030   36.1220   15.1450 C.ar  338  TYR338     -0.0009
    161  CE1        9.3350   35.5910   13.3230 C.ar  338  TYR338      0.0417
    162  CE2        8.1060   37.1640   14.6780 C.ar  338  TYR338      0.0417
    163  CZ         9.1250   36.8960   13.7710 C.ar  338  TYR338      0.1957
    164  OH         9.9530   37.9160   13.3580 O.3   338  TYR338     -0.2866
    165  N          8.0680   33.7190    9.1730 N.3   340  GLU340     -0.1245
    166  CA         8.6520   34.6720    8.2250 C.3   340  GLU340      0.1567
    167  C          8.2440   34.2270    6.8170 C.2   340  GLU340      0.2260
    168  O          8.5810   33.1250    6.3550 O.2   340  GLU340     -0.2867
    169  CB        10.1470   34.7050    8.4410 C.3   340  GLU340      0.0388
    170  CG        10.9490   35.6650    7.6150 C.3   340  GLU340      0.1160
    171  CD        12.4430   35.5270    7.9040 C.2   340  GLU340      0.3649
    172  OE1       13.0010   34.3890    7.8140 O.co2 340  GLU340     -0.2457
    173  OE2       13.0630   36.5720    8.1950 O.co2 340  GLU340     -0.2457
    174  N          8.4500   41.3520    5.2300 N.3   372  TYR372     -0.1241
    175  CA         9.0200   42.6520    5.0820 C.3   372  TYR372      0.1605
    176  C          8.4780   43.3120    3.8460 C.2   372  TYR372      0.2264
    177  O          8.6660   42.8360    2.7290 O.2   372  TYR372     -0.2867
    178  CB        10.5280   42.5830    5.1100 C.3   372  TYR372      0.0534
    179  CG        11.0100   41.5730    6.1350 C.ar  372  TYR372     -0.0201
    180  CD1       10.7450   41.7380    7.5030 C.ar  372  TYR372     -0.0009
    181  CD2       11.7050   40.4540    5.7410 C.ar  372  TYR372     -0.0009
    182  CE1       11.1660   40.7840    8.4440 C.ar  372  TYR372      0.0417
    183  CE2       12.1340   39.5170    6.6700 C.ar  372  TYR372      0.0417
    184  CZ        11.8590   39.6680    8.0160 C.ar  372  TYR372      0.1957
    185  OH        12.3100   38.6910    8.8900 O.3   372  TYR372     -0.2866
    186  N         28.4580   46.5910   -3.3700 N.3   461  PHE461     -0.1241
    187  CA        28.8480   45.1750   -3.4530 C.3   461  PHE461      0.1605
    188  C         29.1430   44.7340   -4.8590 C.2   461  PHE461      0.2264
    189  O         28.4560   45.1280   -5.7860 O.2   461  PHE461     -0.2867
    190  CB        27.7720   44.3000   -2.8440 C.3   461  PHE461      0.0534
    191  CG        27.4190   44.7070   -1.4430 C.ar  461  PHE461     -0.0203
    192  CD1       28.3440   44.5690   -0.4330 C.ar  461  PHE461     -0.0042
    193  CD2       26.2000   45.2800   -1.1590 C.ar  461  PHE461     -0.0042
    194  CE1       28.0480   44.9540    0.8450 C.ar  461  PHE461     -0.0003
    195  CE2       25.8980   45.6850    0.1140 C.ar  461  PHE461     -0.0003
    196  CZ        26.8230   45.5290    1.1240 C.ar  461  PHE461     -0.0000
    197  N         21.1630   48.1900   -2.4750 N.3   472  ASP472     -0.1239
    198  CA        21.3660   47.8510   -1.1060 C.3   472  ASP472      0.1674
    199  C         22.5700   48.6420   -0.5370 C.2   472  ASP472      0.2266
    200  O         23.1730   48.2460    0.4720 O.2   472  ASP472     -0.2867
    201  CB        21.5740   46.3270   -1.0150 C.3   472  ASP472      0.1410
    202  CG        22.7580   45.8080   -1.8740 C.2   472  ASP472      0.3668
    203  OD1       23.2960   46.5230   -2.7550 O.co2 472  ASP472     -0.2456
    204  OD2       23.1660   44.6520   -1.6440 O.co2 472  ASP472     -0.2456
    205  N         22.8600   52.1700    1.1610 N.3   474  TRP474     -0.1241
    206  CA        21.9510   53.1450    1.7180 C.3   474  TRP474      0.1605
    207  C         22.5910   53.6710    3.0200 C.2   474  TRP474      0.2264
    208  O         23.4940   53.0660    3.5550 O.2   474  TRP474     -0.2867
    209  CB        20.5640   52.4800    1.9650 C.3   474  TRP474      0.0550
    210  CG        20.7120   51.2970    2.8090 C.ar  474  TRP474      0.0003
    211  CD1       20.9060   49.9940    2.4070 C.ar  474  TRP474      0.0946
    212  CD2       20.8320   51.3020    4.2100 C.ar  474  TRP474      0.0152
    213  NE1       21.0880   49.1820    3.5060 N.ar  474  TRP474     -0.2442
    214  CE2       21.0710   49.9710    4.6230 C.ar  474  TRP474      0.0810
    215  CE3       20.7290   52.2890    5.1680 C.ar  474  TRP474      0.0012
    216  CZ2       21.2180   49.6290    5.9560 C.ar  474  TRP474      0.0191
    217  CZ3       20.8490   51.9270    6.5010 C.ar  474  TRP474      0.0001
    218  CH2       21.1050   50.6250    6.8760 C.ar  474  TRP474      0.0015
    219  N         13.6710   44.5500    6.3060 N.3   539  HIS539     -0.1226
    220  CA        14.5740   43.4820    5.8980 C.3   539  HIS539      0.1752
    221  C         14.7030   42.5390    7.0870 C.2   539  HIS539      0.2596
    222  O         14.4160   42.9390    8.1990 O.2   539  HIS539     -0.2718
    223  CB        15.9060   44.1290    5.5350 C.3   539  HIS539      0.0759
    224  CG        16.8950   43.2210    4.8870 C.ar  539  HIS539      0.0818
    225  ND1       17.7690   42.4400    5.6120 N.ar  539  HIS539     -0.2268
    226  CD2       17.2050   43.0260    3.5810 C.ar  539  HIS539      0.1154
    227  CE1       18.5670   41.8000    4.7810 C.ar  539  HIS539      0.1986
    228  NE2       18.2330   42.1180    3.5450 N.ar  539  HIS539     -0.2212
    229  N         15.1100   41.2990    6.8540 N.am  540  GLU540     -0.1965
    230  CA        15.3540   40.3300    7.9370 C.3   540  GLU540      0.1733
    231  C         16.5020   40.7170    8.9270 C.2   540  GLU540      0.2616
    232  O         16.5360   40.2440   10.0640 O.2   540  GLU540     -0.2715
    233  CB        15.6210   38.9470    7.3250 C.3   540  GLU540      0.0429
    234  CG        16.9910   38.7420    6.6740 C.3   540  GLU540      0.1163
    235  CD        16.9890   38.7990    5.1310 C.2   540  GLU540      0.3649
    236  OE1       16.2720   39.6270    4.5080 O.co2 540  GLU540     -0.2457
    237  OE2       17.8080   38.0530    4.5480 O.co2 540  GLU540     -0.2457
    238  N         17.4560   41.5220    8.4680 N.am  541  TYR541     -0.1960
    239  CA        18.4830   42.1310    9.3290 C.3   541  TYR541      0.1771
    240  C         17.8570   43.4490    9.8380 C.2   541  TYR541      0.2619
    241  O         17.8760   44.5010    9.1610 O.2   541  TYR541     -0.2715
    242  CB        19.8290   42.3560    8.5700 C.3   541  TYR541      0.0574
    243  CG        20.9590   42.8520    9.4650 C.ar  541  TYR541     -0.0198
    244  CD1       21.5020   42.0450   10.4530 C.ar  541  TYR541     -0.0009
    245  CD2       21.4300   44.1780    9.3780 C.ar  541  TYR541     -0.0009
    246  CE1       22.4860   42.5200   11.3280 C.ar  541  TYR541      0.0417
    247  CE2       22.4180   44.6590   10.2420 C.ar  541  TYR541      0.0417
    248  CZ        22.9430   43.8240   11.2080 C.ar  541  TYR541      0.1957
    249  OH        23.9070   44.3020   12.0590 O.3   541  TYR541     -0.2866
    250  N         17.2830   43.3500   11.0310 N.am  542  TYR542     -0.1974
    251  CA        16.4810   44.3910   11.6370 C.3   542  TYR542      0.1639
    252  C         17.2260   45.7540   11.8140 C.2   542  TYR542      0.2290
    253  O         16.5770   46.8080   11.8680 O.2   542  TYR542     -0.2864
    254  CB        15.9660   43.9120   13.0270 C.3   542  TYR542      0.0560
    255  CG        14.8960   42.8070   13.1080 C.ar  542  TYR542     -0.0198
    256  CD1       14.6560   41.9210   12.0670 C.ar  542  TYR542     -0.0009
    257  CD2       14.1580   42.6210   14.2820 C.ar  542  TYR542     -0.0009
    258  CE1       13.6660   40.9540   12.1680 C.ar  542  TYR542      0.0417
    259  CE2       13.1970   41.6130   14.3980 C.ar  542  TYR542      0.0417
    260  CZ        12.9540   40.7990   13.3310 C.ar  542  TYR542      0.1957
    261  OH        11.9980   39.8150   13.4150 O.3   542  TYR542     -0.2866
    262  N         18.7010   47.2490    9.6340 N.3   544  ASN544     -0.1240
    263  CA        18.6000   47.8290    8.2980 C.3   544  ASN544      0.1653
    264  C         17.6020   48.9660    8.2630 C.2   544  ASN544      0.2266
    265  O         16.4870   48.7770    8.6770 O.2   544  ASN544     -0.2867
    266  CB        18.1150   46.7190    7.3610 C.3   544  ASN544      0.1155
    267  CG        17.8900   47.1780    5.9350 C.2   544  ASN544      0.2627
    268  OD1       16.9230   47.8990    5.6180 O.2   544  ASN544     -0.2716
    269  ND2       18.7110   46.6680    5.0470 N.am  544  ASN544     -0.0877
@<TRIPOS>BOND
     1   189   188    2
     2   188   187    1
     3   187   186    1
     4   187   190    1
     5   190   191    1
     6   203   202   ar
     7   197   198    1
     8   202   204   ar
     9   202   201    1
    10   191   193   ar
    11   191   192   ar
    12   193   195   ar
    13   198   201    1
    14   198   199    1
    15   199   200    2
    16   192   194   ar
    17   195   196   ar
    18   194   196   ar
    19   205   206    1
    20   206   209    1
    21   206   207    1
    22   209   210    1
    23   211   210   ar
    24   211   213   ar
    25   177   176    2
    26   210   212   ar
    27   207   208    2
    28   213   214   ar
    29   228   226   ar
    30   228   227   ar
    31   226   224   ar
    32   176   175    1
    33   212   214   ar
    34   212   215   ar
    35   236   235   ar
    36   237   235   ar
    37   214   216   ar
    38   227   225   ar
    39   224   223    1
    40   224   225   ar
    41   269   267   am
    42   175   178    1
    43   175   174    1
    44   178   179    1
    45   235   234    1
    46   215   217   ar
    47    97    96    2
    48    96    95    1
    49   223   220    1
    50   268   267    2
    51   181   179   ar
    52   181   183   ar
    53   220   219    1
    54   220   221    1
    55   267   266    1
    56   216   218   ar
    57   179   180   ar
    58   168   167    2
    59    95    94    1
    60    95    98    1
    61   217   218   ar
    62   183   184   ar
    63   234   233    1
    64   167   166    1
    65   140   139    2
    66   229   221   am
    67   229   230    1
    68   221   222    2
    69    89    88    1
    70    89    90    2
    71   233   230    1
    72   266   263    1
    73    88    87    1
    74    88    91    1
    75   144   143    1
    76   180   182   ar
    77   170   171    1
    78   170   169    1
    79    92    91    1
    80    98    99    1
    81   172   171   ar
    82   171   173   ar
    83   139   138    1
    84   230   231    1
    85   184   182   ar
    86   184   185    1
    87   100    99   ar
    88   100   102   ar
    89   166   169    1
    90   166   165    1
    91   264   263    1
    92   264   265    2
    93   263   262    1
    94    91    93    1
    95   238   231   am
    96   238   239    1
    97    99   101   ar
    98   242   239    1
    99   242   243    1
   100   141   138    1
   101   141   142    1
   102   102   104   ar
   103   231   232    2
   104    64    66   ar
   105    64    62   ar
   106   138   137    1
   107   241   240    2
   108   143   142    1
   109   239   240    1
   110    66    65   ar
   111   245   243   ar
   112   245   247   ar
   113   243   244   ar
   114   101   103   ar
   115    62    61   ar
   116   104   103   ar
   117   240   250   am
   118   247   248   ar
   119   137   130   am
   120   244   246   ar
   121   108   107    2
   122    65    63   ar
   123   135   134    2
   124   131   130    2
   125   136   134   am
   126    61    63   ar
   127    61    60    1
   128   134   133    1
   129   250   251    1
   130   130   129    1
   131   248   246   ar
   132   248   249    1
   133   152   150   am
   134   105   106    1
   135   151   150    2
   136   251   252    1
   137   251   254    1
   138   107   106    1
   139   133   132    1
   140    60    57    1
   141   252   253    2
   142   150   149    1
   143    21    20    1
   144   256   258   ar
   145   256   255   ar
   146   106   109    1
   147   109   110    1
   148   258   260   ar
   149   148   147    2
   150   111   110    1
   151    57    58    1
   152    57    56    1
   153   132   129    1
   154   129   128    1
   155    59    58    2
   156   110   112    1
   157    51    50    2
   158    54    53    1
   159   147   146    1
   160    86    85    1
   161   156   155    2
   162   254   255    1
   163   155   154    1
   164    20    19   ar
   165    20    18   ar
   166   255   257   ar
   167   149   146    1
   168   128   125   am
   169   161   163   ar
   170   161   159   ar
   171   260   261    1
   172   260   259   ar
   173   164   163    1
   174    53    52    1
   175    53    55    1
   176    56    50   am
   177    50    49    1
   178    19    17   ar
   179    18    16   ar
   180   146   145    1
   181   163   162   ar
   182   159   158   ar
   183    85    84    1
   184    78    77    1
   185    52    49    1
   186   257   259   ar
   187    29    27   ar
   188   154   153    1
   189   154   157    1
   190   125   124    1
   191   125   126    2
   192    49    48    1
   193   162   160   ar
   194    17    15   ar
   195   158   160   ar
   196   158   157    1
   197    16    15   ar
   198   127   124    1
   199   124   123    1
   200    77    76   ar
   201    77    75   ar
   202    84    83    1
   203    76    74   ar
   204    15    14    1
   205    27    28   ar
   206    27    26    1
   207    47    46   ar
   208    47    45   ar
   209    46    44   ar
   210     9     7   am
   211   122   121   ar
   212   122   120   ar
   213    45    43   ar
   214     8     7    2
   215    75    73   ar
   216    44    43   ar
   217    26    23    1
   218    74    72   ar
   219    83    80    1
   220    14    11    1
   221   121   119   ar
   222    43    42    1
   223     7     6    1
   224    80    81    1
   225    80    79    1
   226   120   118   ar
   227    73    72   ar
   228    72    71    1
   229    42    39    1
   230    23    22    1
   231    23    24    1
   232    22    12   am
   233    37    36    1
   234    11    12    1
   235    11    10    1
   236    12    13    2
   237   119   118   ar
   238    81    82    2
   239     6     5    1
   240   118   117    1
   241     5     2    1
   242    25    24    2
   243    71    68    1
   244    39    38    1
   245    39    40    1
   246     4     3    2
   247   116   115    2
   248    36    35    1
   249   115   114    1
   250   117   114    1
   251    68    69    1
   252    68    67    1
   253     2     3    1
   254     2     1    1
   255    40    41    2
   256    69    70    2
   257    35    34    1
   258   114   113    1
   259    33    32    2
   260    30    31    1
   261    32    31    1
   262    34    31    1
