@<TRIPOS>MOLECULE
tmp/3wnnB02.pdb
 96 93 0 0 0
SMALL
GASTEIGER

@<TRIPOS>ATOM
      1  N         29.0300   93.7600   25.4980 N.3   396  ASN396     -0.1225
      2  CA        29.5770   92.4870   25.9740 C.3   396  ASN396      0.1785
      3  C         28.5950   91.3390   25.9420 C.2   396  ASN396      0.2597
      4  O         28.6820   90.4170   26.7460 O.2   396  ASN396     -0.2718
      5  CB        30.1160   92.6610   27.3930 C.3   396  ASN396      0.1169
      6  CG        29.1410   93.3700   28.2920 C.2   396  ASN396      0.2627
      7  OD1       28.5090   94.3550   27.8890 O.2   396  ASN396     -0.2716
      8  ND2       28.9930   92.8760   29.5020 N.am  396  ASN396     -0.0877
      9  N         27.6280   91.4150   25.0390 N.am  397  HIS397     -0.1975
     10  CA        26.8420   90.2520   24.6590 C.3   397  HIS397      0.1656
     11  C         26.6140   90.3860   23.1480 C.2   397  HIS397      0.2291
     12  O         26.2900   91.4630   22.6590 O.2   397  HIS397     -0.2864
     13  CB        25.5430   90.1680   25.4510 C.3   397  HIS397      0.0771
     14  CG        25.7330   90.0450   26.9360 C.ar  397  HIS397      0.0820
     15  ND1       25.9750   88.8390   27.5630 N.ar  397  HIS397     -0.2267
     16  CD2       25.6890   90.9800   27.9220 C.ar  397  HIS397      0.1154
     17  CE1       26.0790   89.0390   28.8680 C.ar  397  HIS397      0.1986
     18  NE2       25.9070   90.3300   29.1120 N.ar  397  HIS397     -0.2212
     19  N         24.3760   98.2970   23.0220 N.3   405  PHE405     -0.1241
     20  CA        23.0860   98.3150   23.7020 C.3   405  PHE405      0.1605
     21  C         23.1940   99.0010   25.0540 C.2   405  PHE405      0.2264
     22  O         24.2790   99.3370   25.4930 O.2   405  PHE405     -0.2867
     23  CB        22.6090   96.8900   23.9130 C.3   405  PHE405      0.0534
     24  CG        23.5840   96.0260   24.6700 C.ar  405  PHE405     -0.0203
     25  CD1       23.5140   95.9170   26.0470 C.ar  405  PHE405     -0.0042
     26  CD2       24.5480   95.2910   23.9890 C.ar  405  PHE405     -0.0042
     27  CE1       24.4030   95.1070   26.7380 C.ar  405  PHE405     -0.0003
     28  CE2       25.4350   94.4820   24.6690 C.ar  405  PHE405     -0.0003
     29  CZ        25.3640   94.3860   26.0460 C.ar  405  PHE405     -0.0000
     30  N         22.7400   98.8100   29.1170 N.3   407  ASP407     -0.1225
     31  CA        22.6810   97.8120   30.1880 C.3   407  ASP407      0.1805
     32  C         22.3680   98.3540   31.5630 C.2   407  ASP407      0.2597
     33  O         22.1470   99.5580   31.7550 O.2   407  ASP407     -0.2718
     34  CB        23.9830   97.0140   30.2430 C.3   407  ASP407      0.1424
     35  CG        25.1460   97.8510   30.6750 C.2   407  ASP407      0.3668
     36  OD1       24.9280   99.0010   31.1150 O.co2 407  ASP407     -0.2456
     37  OD2       26.2780   97.3510   30.5590 O.co2 407  ASP407     -0.2456
     38  N         22.2990   97.4350   32.5190 N.am  408  GLN408     -0.1979
     39  CA        22.0750   97.7890   33.9080 C.3   408  GLN408      0.1601
     40  C         20.8450   98.6790   34.0780 C.2   408  GLN408      0.2287
     41  O         20.7840   99.4820   34.9700 O.2   408  GLN408     -0.2864
     42  CB        23.3300   98.4510   34.4810 C.3   408  GLN408      0.0394
     43  CG        24.5060   97.4810   34.6490 C.3   408  GLN408      0.0908
     44  CD        24.4600   96.7500   35.9870 C.2   408  GLN408      0.2608
     45  OE1       25.1000   97.1710   36.9640 O.2   408  GLN408     -0.2717
     46  NE2       23.6850   95.6750   36.0500 N.am  408  GLN408     -0.0878
     47  N         18.0130   98.6850   35.6080 N.3   410  ALA410     -0.1245
     48  CA        17.7400   97.8370   36.7580 C.3   410  ALA410      0.1562
     49  C         17.2440   98.4610   38.0750 C.2   410  ALA410      0.2260
     50  O         16.9980   97.7060   39.0320 O.2   410  ALA410     -0.2867
     51  CB        18.9980   97.0340   37.0510 C.3   410  ALA410      0.0290
     52  N         17.5550   87.4820   34.2160 N.3   438  THR438     -0.1218
     53  CA        17.3860   87.5960   35.6600 C.3   438  THR438      0.1862
     54  C         16.7340   86.3350   36.3060 C.2   438  THR438      0.2287
     55  O         16.6740   86.2150   37.5430 O.2   438  THR438     -0.2866
     56  CB        16.4680   88.7920   36.0340 C.3   438  THR438      0.1770
     57  OG1       15.1640   88.6160   35.4620 O.3   438  THR438     -0.2211
     58  CG2       17.0650   90.1320   35.5940 C.3   438  THR438      0.0375
     59  N         21.7840   85.8200   28.7420 N.3   464  TRP464     -0.1241
     60  CA        21.9530   87.2150   28.2860 C.3   464  TRP464      0.1605
     61  C         22.3070   87.3300   26.8100 C.2   464  TRP464      0.2264
     62  O         22.1440   88.3950   26.2250 O.2   464  TRP464     -0.2867
     63  CB        22.9660   88.0180   29.1600 C.3   464  TRP464      0.0550
     64  CG        22.4610   88.2380   30.5580 C.ar  464  TRP464      0.0003
     65  CD1       22.8440   87.5600   31.6690 C.ar  464  TRP464      0.0946
     66  CD2       21.4400   89.1620   30.9860 C.ar  464  TRP464      0.0152
     67  NE1       22.1440   88.0020   32.7650 N.ar  464  TRP464     -0.2442
     68  CE2       21.2700   88.9810   32.3770 C.ar  464  TRP464      0.0810
     69  CE3       20.6640   90.1310   30.3340 C.ar  464  TRP464      0.0012
     70  CZ2       20.3490   89.7280   33.1320 C.ar  464  TRP464      0.0191
     71  CZ3       19.7490   90.8820   31.0890 C.ar  464  TRP464      0.0001
     72  CH2       19.6100   90.6780   32.4750 C.ar  464  TRP464      0.0015
     73  N         13.0770   93.4680   38.2330 N.3   494  GLY494     -0.1210
     74  CA        14.0600   92.8310   37.4280 C.3   494  GLY494      0.1956
     75  C         14.8990   93.8470   36.7420 C.2   494  GLY494      0.2612
     76  O         15.1960   94.9290   37.2840 O.2   494  GLY494     -0.2717
     77  N         15.3250   93.4780   35.5510 N.am  495  ALA495     -0.1965
     78  CA        16.2300   94.3060   34.8640 C.3   495  ALA495      0.1728
     79  C         16.2510   93.8150   33.4570 C.2   495  ALA495      0.2616
     80  O         15.8110   92.6800   33.1720 O.2   495  ALA495     -0.2715
     81  CB        17.6120   94.2000   35.4770 C.3   495  ALA495      0.0334
     82  N         16.7900   94.6660   32.5930 N.am  496  VAL496     -0.1963
     83  CA        16.8020   94.4360   31.1530 C.3   496  VAL496      0.1727
     84  C         18.0240   95.0510   30.5450 C.2   496  VAL496      0.2616
     85  O         18.6090   95.9790   31.1150 O.2   496  VAL496     -0.2715
     86  CB        15.5760   95.0710   30.4910 C.3   496  VAL496      0.0290
     87  CG1       15.6470   94.9740   28.9880 C.3   496  VAL496      0.0023
     88  CG2       14.3170   94.3890   30.9400 C.3   496  VAL496      0.0023
     89  N         18.4600   94.4780   29.4300 N.am  497  ASN497     -0.1972
     90  CA        19.3730   95.1260   28.4980 C.3   497  ASN497      0.1688
     91  C         18.5180   95.5700   27.3370 C.2   497  ASN497      0.2292
     92  O         17.6910   94.7690   26.8400 O.2   497  ASN497     -0.2864
     93  CB        20.4070   94.1370   27.9710 C.3   497  ASN497      0.1181
     94  CG        21.4570   93.7990   29.0000 C.2   497  ASN497      0.2629
     95  OD1       21.6280   94.5280   29.9740 O.2   497  ASN497     -0.2716
     96  ND2       22.1580   92.6780   28.8010 N.am  497  ASN497     -0.0877
@<TRIPOS>BOND
     1    12    11    2
     2    19    20    1
     3    11    10    1
     4    20    23    1
     5    20    21    1
     6    23    24    1
     7    26    28   ar
     8    26    24   ar
     9    10     9    1
    10    10    13    1
    11    28    29   ar
    12    24    25   ar
    13     9     3   am
    14    21    22    2
    15    13    14    1
    16     1     2    1
    17     3     2    1
    18     3     4    2
    19     2     5    1
    20    29    27   ar
    21    25    27   ar
    22    62    61    2
    23    61    60    1
    24    92    91    2
    25    14    15   ar
    26    14    16   ar
    27    91    90    1
    28     5     6    1
    29    15    17   ar
    30     7     6    2
    31    16    18   ar
    32    93    90    1
    33    93    94    1
    34    60    59    1
    35    60    63    1
    36     6     8   am
    37    90    89    1
    38    96    94   am
    39    17    18   ar
    40    87    86    1
    41    94    95    2
    42    30    31    1
    43    63    64    1
    44    89    84   am
    45    31    34    1
    46    31    32    1
    47    34    35    1
    48    69    66   ar
    49    69    71   ar
    50    86    88    1
    51    86    83    1
    52    84    85    2
    53    84    83    1
    54    64    66   ar
    55    64    65   ar
    56    37    35   ar
    57    35    36   ar
    58    66    68   ar
    59    71    72   ar
    60    83    82    1
    61    32    33    2
    62    32    38   am
    63    65    67   ar
    64    68    67   ar
    65    68    70   ar
    66    72    70   ar
    67    38    39    1
    68    82    79   am
    69    80    79    2
    70    79    78    1
    71    39    40    1
    72    39    42    1
    73    40    41    2
    74    52    53    1
    75    42    43    1
    76    43    44    1
    77    78    81    1
    78    78    77    1
    79    57    56    1
    80    77    75   am
    81    58    56    1
    82    47    48    1
    83    53    56    1
    84    53    54    1
    85    44    46   am
    86    44    45    2
    87    54    55    2
    88    75    76    2
    89    75    74    1
    90    48    51    1
    91    48    49    1
    92    74    73    1
    93    49    50    2
