@<TRIPOS>MOLECULE
tmp/3wnoB01.pdb
 150 147 0 0 0
SMALL
GASTEIGER

@<TRIPOS>ATOM
      1  N         -6.7860   70.2000   32.8400 N.3   200  GLU200     -0.1231
      2  CA        -6.4430   69.5620   34.1230 C.3   200  GLU200      0.1699
      3  C         -7.6620   69.4330   35.0540 C.2   200  GLU200      0.2592
      4  O         -8.6600   70.1260   34.8850 O.2   200  GLU200     -0.2718
      5  CB        -5.3290   70.3380   34.8380 C.3   200  GLU200      0.0402
      6  CG        -5.7530   71.6850   35.4270 C.3   200  GLU200      0.1161
      7  CD        -5.7550   72.8270   34.4240 C.2   200  GLU200      0.3649
      8  OE1       -5.4670   72.5970   33.2390 O.co2 200  GLU200     -0.2457
      9  OE2       -6.0380   73.9760   34.8170 O.co2 200  GLU200     -0.2457
     10  N         -7.5760   68.5430   36.0370 N.am  201  ASN201     -0.1960
     11  CA        -8.6590   68.3960   37.0190 C.3   201  ASN201      0.1819
     12  C         -9.9850   68.0540   36.3220 C.2   201  ASN201      0.2621
     13  O        -10.9940   68.7380   36.5100 O.2   201  ASN201     -0.2715
     14  CB        -8.8110   69.6960   37.8030 C.3   201  ASN201      0.1195
     15  CG        -9.2800   69.4800   39.2490 C.2   201  ASN201      0.2630
     16  OD1       -9.9260   70.3630   39.8220 O.2   201  ASN201     -0.2716
     17  ND2       -9.0580   68.2860   39.8030 N.am  201  ASN201     -0.0877
     18  N         -9.9550   67.0280   35.4820 N.am  202  TYR202     -0.1960
     19  CA       -11.1110   66.6800   34.6700 C.3   202  TYR202      0.1771
     20  C        -12.0480   65.6820   35.3350 C.2   202  TYR202      0.2620
     21  O        -13.1970   65.5430   34.9230 O.2   202  TYR202     -0.2715
     22  CB       -10.6760   66.1670   33.2970 C.3   202  TYR202      0.0574
     23  CG        -9.7900   64.9460   33.2540 C.ar  202  TYR202     -0.0198
     24  CD1      -10.3060   63.6770   33.4950 C.ar  202  TYR202     -0.0009
     25  CD2       -8.4450   65.0460   32.9110 C.ar  202  TYR202     -0.0009
     26  CE1       -9.5200   62.5460   33.4220 C.ar  202  TYR202      0.0417
     27  CE2       -7.6430   63.9080   32.8340 C.ar  202  TYR202      0.0417
     28  CZ        -8.1870   62.6620   33.0840 C.ar  202  TYR202      0.1957
     29  OH        -7.4260   61.5150   32.9970 O.3   202  TYR202     -0.2866
     30  N        -11.5620   64.9790   36.3540 N.am  203  SER203     -0.1950
     31  CA       -12.3740   63.9680   37.0380 C.3   203  SER203      0.1924
     32  C        -13.6710   64.5480   37.6240 C.2   203  SER203      0.2314
     33  O        -14.7140   63.9250   37.5250 O.2   203  SER203     -0.2863
     34  CB       -11.5580   63.2590   38.1290 C.3   203  SER203      0.2116
     35  OG       -10.5690   62.4320   37.5270 O.3   203  SER203     -0.2180
     36  N        -10.2820   58.8540   33.4460 N.3   209  PRO209     -0.2116
     37  CA        -8.9470   58.5010   32.9310 C.3   209  PRO209      0.1372
     38  C         -8.9630   57.2710   32.0320 C.2   209  PRO209      0.2244
     39  O         -8.0980   57.1330   31.1580 O.2   209  PRO209     -0.2868
     40  CB        -8.1340   58.2300   34.2030 C.3   209  PRO209      0.0268
     41  CG        -8.8260   58.9830   35.2670 C.3   209  PRO209      0.0207
     42  CD       -10.2820   59.0140   34.9110 C.3   209  PRO209      0.0892
     43  N         -2.2370   56.9950   26.6220 N.3   214  TYR214     -0.1241
     44  CA        -1.1040   56.9390   27.5370 C.3   214  TYR214      0.1605
     45  C          0.2100   56.6500   26.8100 C.2   214  TYR214      0.2264
     46  O          0.2380   55.9570   25.7950 O.2   214  TYR214     -0.2867
     47  CB        -1.3780   55.8770   28.6190 C.3   214  TYR214      0.0534
     48  CG        -2.4990   56.3100   29.5400 C.ar  214  TYR214     -0.0201
     49  CD1       -3.8330   56.1340   29.1820 C.ar  214  TYR214     -0.0009
     50  CD2       -2.2250   56.9460   30.7300 C.ar  214  TYR214     -0.0009
     51  CE1       -4.8600   56.5710   30.0160 C.ar  214  TYR214      0.0417
     52  CE2       -3.2360   57.3780   31.5650 C.ar  214  TYR214      0.0417
     53  CZ        -4.5550   57.1910   31.2010 C.ar  214  TYR214      0.1957
     54  OH        -5.5400   57.6510   32.0460 O.3   214  TYR214     -0.2866
     55  N          1.1240   50.8750   31.1450 N.3   218  SER218     -0.1202
     56  CA         0.6650   50.6840   32.5390 C.3   218  SER218      0.2020
     57  C         -0.1880   51.8570   33.0350 C.2   218  SER218      0.2619
     58  O         -0.2900   52.1030   34.2450 O.2   218  SER218     -0.2717
     59  CB         1.8760   50.4860   33.4660 C.3   218  SER218      0.2103
     60  OG         2.6880   51.6560   33.5200 O.3   218  SER218     -0.2182
     61  N         -0.8100   52.5690   32.0930 N.am  219  HIS219     -0.1961
     62  CA        -1.5310   53.8320   32.3720 C.3   219  HIS219      0.1787
     63  C         -0.8930   54.7050   33.4520 C.2   219  HIS219      0.2621
     64  O         -1.5680   55.2400   34.3330 O.2   219  HIS219     -0.2715
     65  CB        -3.0390   53.6030   32.6200 C.3   219  HIS219      0.0785
     66  CG        -3.3650   52.6930   33.7660 C.ar  219  HIS219      0.0821
     67  ND1       -3.2230   53.0680   35.0850 N.ar  219  HIS219     -0.2267
     68  CD2       -3.8870   51.4430   33.7850 C.ar  219  HIS219      0.1154
     69  CE1       -3.6190   52.0780   35.8660 C.ar  219  HIS219      0.1986
     70  NE2       -4.0220   51.0800   35.1020 N.ar  219  HIS219     -0.2212
     71  N          0.4250   54.8770   33.3570 N.am  220  THR220     -0.1937
     72  CA         1.1520   55.6730   34.3270 C.3   220  THR220      0.2028
     73  C          1.1440   57.1520   33.9440 C.2   220  THR220      0.2642
     74  O          0.8360   58.0000   34.7750 O.2   220  THR220     -0.2714
     75  CB         2.6040   55.1890   34.4930 C.3   220  THR220      0.1808
     76  OG1        2.6050   53.8030   34.8600 O.3   220  THR220     -0.2208
     77  CG2        3.3150   56.0020   35.5600 C.3   220  THR220      0.0379
     78  N          1.4820   57.4600   32.6900 N.am  221  ASN221     -0.1957
     79  CA         1.5540   58.8520   32.2470 C.3   221  ASN221      0.1819
     80  C          0.6670   59.0760   31.0280 C.2   221  ASN221      0.2621
     81  O          0.9220   58.5470   29.9420 O.2   221  ASN221     -0.2715
     82  CB         2.9970   59.2570   31.9480 C.3   221  ASN221      0.1195
     83  CG         3.8840   59.2200   33.1950 C.2   221  ASN221      0.2630
     84  OD1        3.5790   59.8310   34.2290 O.2   221  ASN221     -0.2716
     85  ND2        4.9810   58.4910   33.1020 N.am  221  ASN221     -0.0877
     86  N         -0.3970   59.8370   31.2360 N.am  222  GLN222     -0.1977
     87  CA        -1.3200   60.1820   30.1660 C.3   222  GLN222      0.1601
     88  C         -0.6430   61.1890   29.2420 C.2   222  GLN222      0.2287
     89  O          0.0500   62.0880   29.7030 O.2   222  GLN222     -0.2864
     90  CB        -2.5920   60.7930   30.7590 C.3   222  GLN222      0.0394
     91  CG        -3.7200   61.0010   29.7590 C.3   222  GLN222      0.0908
     92  CD        -5.0180   61.4330   30.4130 C.2   222  GLN222      0.2608
     93  OE1       -5.0750   61.6670   31.6230 O.2   222  GLN222     -0.2717
     94  NE2       -6.0680   61.5520   29.6130 N.am  222  GLN222     -0.0878
     95  N         -0.0440   64.4260   27.4100 N.3   224  ASP224     -0.1239
     96  CA        -0.4800   65.7540   27.8150 C.3   224  ASP224      0.1674
     97  C          0.0500   66.8560   26.9130 C.2   224  ASP224      0.2266
     98  O          0.7510   66.6010   25.9310 O.2   224  ASP224     -0.2867
     99  CB        -0.1090   66.0210   29.2820 C.3   224  ASP224      0.1410
    100  CG         1.3660   66.3820   29.4750 C.2   224  ASP224      0.3668
    101  OD1        2.1540   66.3250   28.5100 O.co2 224  ASP224     -0.2456
    102  OD2        1.7430   66.7190   30.6010 O.co2 224  ASP224     -0.2456
    103  N          1.8020   70.4920   28.2420 N.3   226  ASP226     -0.1239
    104  CA         2.2160   71.1290   29.4850 C.3   226  ASP226      0.1674
    105  C          2.5880   72.5720   29.1760 C.2   226  ASP226      0.2266
    106  O          3.5850   72.8260   28.4960 O.2   226  ASP226     -0.2867
    107  CB         3.4010   70.3330   30.0440 C.3   226  ASP226      0.1410
    108  CG         4.0130   70.9330   31.3050 C.2   226  ASP226      0.3668
    109  OD1        3.6150   72.0220   31.7720 O.co2 226  ASP226     -0.2456
    110  OD2        4.9280   70.2610   31.8310 O.co2 226  ASP226     -0.2456
    111  N          3.1280   74.4720   35.7790 N.3   230  GLY230     -0.1225
    112  CA         2.9180   73.4150   36.7620 C.3   230  GLY230      0.1811
    113  C          1.4650   73.1650   37.1510 C.2   230  GLY230      0.2280
    114  O          1.2040   72.4530   38.1270 O.2   230  GLY230     -0.2866
    115  N         -2.7450   72.3320   31.9120 N.3   233  TYR233     -0.1241
    116  CA        -2.4060   71.2500   30.9950 C.3   233  TYR233      0.1605
    117  C         -3.5850   70.9220   30.0920 C.2   233  TYR233      0.2264
    118  O         -4.7300   71.1750   30.4520 O.2   233  TYR233     -0.2867
    119  CB        -2.0950   69.9550   31.7520 C.3   233  TYR233      0.0534
    120  CG        -0.9280   70.0100   32.7050 C.ar  233  TYR233     -0.0201
    121  CD1       -1.0860   70.4940   34.0000 C.ar  233  TYR233     -0.0009
    122  CD2        0.3340   69.5620   32.3220 C.ar  233  TYR233     -0.0009
    123  CE1       -0.0140   70.5400   34.8910 C.ar  233  TYR233      0.0417
    124  CE2        1.4100   69.6140   33.1960 C.ar  233  TYR233      0.0417
    125  CZ         1.2320   70.0980   34.4770 C.ar  233  TYR233      0.1957
    126  OH         2.3110   70.1380   35.3470 O.3   233  TYR233     -0.2866
    127  N         -4.9190   67.2160   28.6300 N.3   235  TYR235     -0.1241
    128  CA        -4.7550   65.7720   28.6780 C.3   235  TYR235      0.1605
    129  C         -5.4640   65.1630   27.4810 C.2   235  TYR235      0.2264
    130  O         -6.5370   65.6300   27.0850 O.2   235  TYR235     -0.2867
    131  CB        -5.2780   65.2100   30.0140 C.3   235  TYR235      0.0534
    132  CG        -4.3540   65.5790   31.1370 C.ar  235  TYR235     -0.0201
    133  CD1       -3.1230   64.9340   31.2770 C.ar  235  TYR235     -0.0009
    134  CD2       -4.6620   66.6020   32.0180 C.ar  235  TYR235     -0.0009
    135  CE1       -2.2370   65.2840   32.2830 C.ar  235  TYR235      0.0417
    136  CE2       -3.7710   66.9770   33.0220 C.ar  235  TYR235      0.0417
    137  CZ        -2.5620   66.3140   33.1470 C.ar  235  TYR235      0.1957
    138  OH        -1.6790   66.6660   34.1460 O.3   235  TYR235     -0.2866
    139  N         -5.9080   52.9720   27.8690 N.3   278  TYR278     -0.1241
    140  CA        -5.8020   52.7760   29.3200 C.3   278  TYR278      0.1605
    141  C         -5.3940   51.3430   29.6850 C.2   278  TYR278      0.2264
    142  O         -4.5510   51.1330   30.5520 O.2   278  TYR278     -0.2867
    143  CB        -7.1230   53.1290   29.9980 C.3   278  TYR278      0.0534
    144  CG        -7.0690   53.0590   31.5010 C.ar  278  TYR278     -0.0201
    145  CD1       -6.5200   54.0950   32.2490 C.ar  278  TYR278     -0.0009
    146  CD2       -7.5750   51.9530   32.1800 C.ar  278  TYR278     -0.0009
    147  CE1       -6.4750   54.0290   33.6300 C.ar  278  TYR278      0.0417
    148  CE2       -7.5340   51.8750   33.5590 C.ar  278  TYR278      0.0417
    149  CZ        -6.9870   52.9150   34.2780 C.ar  278  TYR278      0.1957
    150  OH        -6.9470   52.8540   35.6480 O.3   278  TYR278     -0.2866
@<TRIPOS>BOND
     1    46    45    2
     2    98    97    2
     3    43    44    1
     4    45    44    1
     5    97    96    1
     6   130   129    2
     7    95    96    1
     8   129   128    1
     9    44    47    1
    10    96    99    1
    11   139   140    1
    12   103   104    1
    13   106   105    2
    14   101   100   ar
    15    47    48    1
    16   127   128    1
    17   128   131    1
    18   105   104    1
    19    49    48   ar
    20    49    51   ar
    21    88    89    2
    22    88    87    1
    23    99   100    1
    24   140   141    1
    25   140   143    1
    26   100   102   ar
    27   104   107    1
    28    48    50   ar
    29    94    92   am
    30   141   142    2
    31    91    92    1
    32    91    90    1
    33    81    80    2
    34   143   144    1
    35   131   132    1
    36    51    53   ar
    37   107   108    1
    38   117   118    2
    39   117   116    1
    40    87    90    1
    41    87    86    1
    42    92    93    2
    43    50    52   ar
    44   116   119    1
    45   116   115    1
    46    80    86   am
    47    80    79    1
    48   132   133   ar
    49   132   134   ar
    50    55    56    1
    51    39    38    2
    52    53    52   ar
    53    53    54    1
    54   133   135   ar
    55   108   109   ar
    56   108   110   ar
    57   144   146   ar
    58   144   145   ar
    59   119   120    1
    60    82    79    1
    61    82    83    1
    62   134   136   ar
    63    38    37    1
    64    61    62    1
    65    61    57   am
    66   146   148   ar
    67    79    78    1
    68   145   147   ar
    69   135   137   ar
    70   122   120   ar
    71   122   124   ar
    72    62    65    1
    73    62    63    1
    74    56    57    1
    75    56    59    1
    76    65    66    1
    77    78    73   am
    78   120   121   ar
    79    27    25   ar
    80    27    28   ar
    81     1     2    1
    82    25    23   ar
    83    37    36    1
    84    37    40    1
    85    29    28    1
    86   136   137   ar
    87    57    58    2
    88    28    26   ar
    89    85    83   am
    90   137   138    1
    91    83    84    2
    92   124   125   ar
    93     8     7   ar
    94    23    22    1
    95    23    24   ar
    96    22    19    1
    97    71    63   am
    98    71    72    1
    99    26    24   ar
   100    36    42    1
   101    63    64    2
   102    59    60    1
   103   148   149   ar
   104   147   149   ar
   105    66    68   ar
   106    66    67   ar
   107    68    70   ar
   108    73    72    1
   109    73    74    2
   110   121   123   ar
   111     2     5    1
   112     2     3    1
   113    40    41    1
   114   149   150    1
   115    72    75    1
   116     7     9   ar
   117     7     6    1
   118   125   123   ar
   119   125   126    1
   120    75    76    1
   121    75    77    1
   122    19    20    1
   123    19    18    1
   124     5     6    1
   125     4     3    2
   126    42    41    1
   127    21    20    2
   128     3    10   am
   129    67    69   ar
   130    70    69   ar
   131    20    30   am
   132    18    12   am
   133   111   112    1
   134    10    11    1
   135    12    13    2
   136    12    11    1
   137    30    31    1
   138   112   113    1
   139    11    14    1
   140    31    32    1
   141    31    34    1
   142   113   114    2
   143    33    32    2
   144    35    34    1
   145    14    15    1
   146    15    17   am
   147    15    16    2
