@<TRIPOS>MOLECULE
tmp/3wnoA02.pdb
 103 99 0 0 0
SMALL
GASTEIGER

@<TRIPOS>ATOM
      1  N        -13.6490   68.5790   54.1620 N.3   397  ASN397     -0.1225
      2  CA       -14.2600   69.0580   52.9220 C.3   397  ASN397      0.1785
      3  C        -13.3570   68.9550   51.6840 C.2   397  ASN397      0.2597
      4  O        -13.6360   69.5770   50.6600 O.2   397  ASN397     -0.2718
      5  CB       -14.7380   70.5050   53.0980 C.3   397  ASN397      0.1169
      6  CG       -13.5930   71.4740   53.3000 C.2   397  ASN397      0.2627
      7  OD1      -12.5510   71.1090   53.8460 O.2   397  ASN397     -0.2716
      8  ND2      -13.7790   72.7150   52.8650 N.am  397  ASN397     -0.0877
      9  N        -12.2730   68.1920   51.7840 N.am  398  HIS398     -0.1975
     10  CA       -11.4550   67.8560   50.6160 C.3   398  HIS398      0.1656
     11  C        -11.1440   66.3720   50.6460 C.2   398  HIS398      0.2291
     12  O        -10.4160   65.9090   51.5230 O.2   398  HIS398     -0.2864
     13  CB       -10.1670   68.6710   50.5950 C.3   398  HIS398      0.0771
     14  CG       -10.3960   70.1380   50.4520 C.ar  398  HIS398      0.0820
     15  ND1      -10.9530   70.6950   49.3220 N.ar  398  HIS398     -0.2267
     16  CD2      -10.1610   71.1650   51.3020 C.ar  398  HIS398      0.1154
     17  CE1      -11.0430   72.0040   49.4770 C.ar  398  HIS398      0.1986
     18  NE2      -10.5700   72.3150   50.6700 N.ar  398  HIS398     -0.2212
     19  N         -7.0070   72.2390   58.5970 N.3   408  ASP408     -0.1225
     20  CA        -7.0830   73.1440   57.4390 C.3   408  ASP408      0.1805
     21  C         -6.7040   74.5860   57.7660 C.2   408  ASP408      0.2597
     22  O         -6.5790   74.9590   58.9340 O.2   408  ASP408     -0.2718
     23  CB        -8.4630   73.0490   56.7600 C.3   408  ASP408      0.1424
     24  CG        -9.5440   73.8500   57.4620 C.2   408  ASP408      0.3668
     25  OD1       -9.5360   73.9330   58.7040 O.co2 408  ASP408     -0.2456
     26  OD2      -10.4250   74.3800   56.7560 O.co2 408  ASP408     -0.2456
     27  N         -6.4890   75.3790   56.7180 N.am  409  GLN409     -0.1979
     28  CA        -6.1190   76.7940   56.8490 C.3   409  GLN409      0.1601
     29  C         -4.9820   77.0240   57.8330 C.2   409  GLN409      0.2287
     30  O         -5.0530   77.8950   58.7020 O.2   409  GLN409     -0.2864
     31  CB        -7.3250   77.6420   57.2530 C.3   409  GLN409      0.0394
     32  CG        -8.4900   77.5560   56.2870 C.3   409  GLN409      0.0908
     33  CD        -9.3200   78.8270   56.2650 C.2   409  GLN409      0.2608
     34  OE1      -10.4310   78.8580   56.7860 O.2   409  GLN409     -0.2717
     35  NE2       -8.7770   79.8830   55.6680 N.am  409  GLN409     -0.0878
     36  N         -2.3180   78.7870   58.0620 N.3   411  ALA411     -0.1245
     37  CA        -2.0410   79.9170   57.1630 C.3   411  ALA411      0.1562
     38  C         -1.6230   81.2450   57.7980 C.2   411  ALA411      0.2260
     39  O         -1.4230   82.2180   57.0680 O.2   411  ALA411     -0.2867
     40  CB        -3.2630   80.1490   56.2850 C.3   411  ALA411      0.0290
     41  N         -3.0500   74.2850   47.3940 N.3   438  ASN438     -0.1225
     42  CA        -3.4890   74.8300   46.1110 C.3   438  ASN438      0.1785
     43  C         -3.5350   76.3590   46.1860 C.2   438  ASN438      0.2598
     44  O         -4.4450   76.9920   45.6520 O.2   438  ASN438     -0.2718
     45  CB        -4.8570   74.2420   45.7230 C.3   438  ASN438      0.1169
     46  CG        -5.3470   74.6960   44.3520 C.2   438  ASN438      0.2627
     47  OD1       -6.5450   74.6320   44.0600 O.2   438  ASN438     -0.2716
     48  ND2       -4.4340   75.1570   43.5110 N.am  438  ASN438     -0.0877
     49  N         -2.5310   76.9460   46.8360 N.am  439  THR439     -0.1939
     50  CA        -2.4440   78.3940   46.9770 C.3   439  THR439      0.2028
     51  C         -1.8960   79.0840   45.7300 C.2   439  THR439      0.2642
     52  O         -1.9920   80.3060   45.6140 O.2   439  THR439     -0.2714
     53  CB        -1.5530   78.7890   48.1700 C.3   439  THR439      0.1808
     54  OG1       -0.2480   78.2230   48.0060 O.3   439  THR439     -0.2208
     55  CG2       -2.1700   78.3040   49.4830 C.3   439  THR439      0.0379
     56  N         -1.3150   78.3090   44.8110 N.am  440  GLY440     -0.1954
     57  CA        -0.6920   78.8620   43.6070 C.3   440  GLY440      0.1869
     58  C          0.8250   78.9500   43.6680 C.2   440  GLY440      0.2309
     59  O          1.4710   79.1760   42.6470 O.2   440  GLY440     -0.2863
     60  N         -2.5300   71.6260   41.7830 N.3   463  SER463     -0.1217
     61  CA        -3.6070   72.3960   41.1360 C.3   463  SER463      0.1889
     62  C         -4.9940   72.1330   41.7300 C.2   463  SER463      0.2288
     63  O         -5.9890   72.6440   41.2090 O.2   463  SER463     -0.2866
     64  CB        -3.6580   72.1350   39.6310 C.3   463  SER463      0.2089
     65  OG        -4.5650   73.0370   39.0040 O.3   463  SER463     -0.2183
     66  N         -7.0680   71.3470   45.7790 N.3   465  TRP465     -0.1241
     67  CA        -7.0690   71.0700   47.2240 C.3   465  TRP465      0.1605
     68  C         -7.3680   69.5970   47.5270 C.2   465  TRP465      0.2264
     69  O         -7.2150   69.1530   48.6640 O.2   465  TRP465     -0.2867
     70  CB        -8.0660   71.9760   47.9700 C.3   465  TRP465      0.0550
     71  CG        -7.5830   73.3830   48.1200 C.ar  465  TRP465      0.0003
     72  CD1       -8.0660   74.4930   47.4800 C.ar  465  TRP465      0.0946
     73  CD2       -6.4990   73.8350   48.9460 C.ar  465  TRP465      0.0152
     74  NE1       -7.3590   75.6080   47.8650 N.ar  465  TRP465     -0.2442
     75  CE2       -6.3880   75.2330   48.7610 C.ar  465  TRP465      0.0810
     76  CE3       -5.6160   73.1970   49.8280 C.ar  465  TRP465      0.0012
     77  CZ2       -5.4270   76.0010   49.4210 C.ar  465  TRP465      0.0191
     78  CZ3       -4.6590   73.9620   50.4840 C.ar  465  TRP465      0.0001
     79  CH2       -4.5740   75.3500   50.2790 C.ar  465  TRP465      0.0015
     80  N          2.0850   81.3980   52.3580 N.3   495  GLY495     -0.1210
     81  CA         1.0070   80.5580   51.8650 C.3   495  GLY495      0.1956
     82  C          0.2530   79.8310   52.9620 C.2   495  GLY495      0.2612
     83  O          0.1490   80.3060   54.0930 O.2   495  GLY495     -0.2717
     84  N         -0.2670   78.6640   52.6120 N.am  496  ALA496     -0.1965
     85  CA        -1.0710   77.8670   53.5160 C.3   496  ALA496      0.1728
     86  C         -1.0210   76.4070   53.1100 C.2   496  ALA496      0.2616
     87  O         -0.7720   76.0830   51.9440 O.2   496  ALA496     -0.2715
     88  CB        -2.5080   78.3540   53.4930 C.3   496  ALA496      0.0334
     89  N         -1.2760   75.5360   54.0780 N.am  497  VAL497     -0.1963
     90  CA        -1.3860   74.1090   53.8300 C.3   497  VAL497      0.1727
     91  C         -2.5870   73.5330   54.5640 C.2   497  VAL497      0.2616
     92  O         -3.0780   74.1140   55.5400 O.2   497  VAL497     -0.2715
     93  CB        -0.1110   73.3430   54.2700 C.3   497  VAL497      0.0290
     94  CG1        1.1230   73.9390   53.6110 C.3   497  VAL497      0.0023
     95  CG2        0.0560   73.3350   55.7870 C.3   497  VAL497      0.0023
     96  N         -3.0730   72.4080   54.0570 N.am  498  ASN498     -0.1972
     97  CA        -3.8910   71.4980   54.8300 C.3   498  ASN498      0.1688
     98  C         -2.9780   70.3800   55.2750 C.2   498  ASN498      0.2292
     99  O         -2.2520   69.8150   54.4470 O.2   498  ASN498     -0.2864
    100  CB        -5.0410   70.9570   53.9870 C.3   498  ASN498      0.1181
    101  CG        -6.0190   72.0390   53.5920 C.2   498  ASN498      0.2629
    102  OD1       -6.0800   73.0890   54.2370 O.2   498  ASN498     -0.2716
    103  ND2       -6.7870   71.8000   52.5320 N.am  498  ASN498     -0.0877
@<TRIPOS>BOND
     1    65    64    1
     2    64    61    1
     3    61    62    1
     4    61    60    1
     5    63    62    2
     6    59    58    2
     7    48    46   am
     8    57    58    1
     9    57    56    1
    10    47    46    2
    11    46    45    1
    12    56    51   am
    13    52    51    2
    14    44    43    2
    15    45    42    1
    16    51    50    1
    17    66    67    1
    18    42    43    1
    19    42    41    1
    20    43    49   am
    21    49    50    1
    22    50    53    1
    23    67    68    1
    24    67    70    1
    25    72    74   ar
    26    72    71   ar
    27    68    69    2
    28    74    75   ar
    29    70    71    1
    30    54    53    1
    31    71    73   ar
    32    53    55    1
    33    75    73   ar
    34    75    77   ar
    35    73    76   ar
    36    15    17   ar
    37    15    14   ar
    38    77    79   ar
    39    17    18   ar
    40    76    78   ar
    41    79    78   ar
    42    14    13    1
    43    14    16   ar
    44    13    10    1
    45    10    11    1
    46    10     9    1
    47    11    12    2
    48     4     3    2
    49    18    16   ar
    50     3     9   am
    51     3     2    1
    52    81    80    1
    53    81    82    1
    54    87    86    2
    55   103   101   am
    56    84    82   am
    57    84    85    1
    58     8     6   am
    59     2     5    1
    60     2     1    1
    61    82    83    2
    62     5     6    1
    63    86    85    1
    64    86    89   am
    65     6     7    2
    66    88    85    1
    67   101   100    1
    68   101   102    2
    69    94    93    1
    70    90    89    1
    71    90    93    1
    72    90    91    1
    73   100    97    1
    74    96    91   am
    75    96    97    1
    76    93    95    1
    77    99    98    2
    78    91    92    2
    79    97    98    1
    80    35    33   am
    81    33    32    1
    82    33    34    2
    83    40    37    1
    84    32    31    1
    85    27    28    1
    86    27    21   am
    87    26    24   ar
    88    23    20    1
    89    23    24    1
    90    28    31    1
    91    28    29    1
    92    39    38    2
    93    37    38    1
    94    37    36    1
    95    20    21    1
    96    20    19    1
    97    24    25   ar
    98    21    22    2
    99    29    30    2
