@<TRIPOS>MOLECULE
tmp/3wnqD00.pdb
 106 101 0 0 0
SMALL
GASTEIGER

@<TRIPOS>ATOM
      1  N         28.6860  -41.0090  -28.5880 N.3    43  CYS43      -0.1235
      2  CA        29.4400  -40.0700  -29.4090 C.3    43  CYS43       0.1677
      3  C         30.7020  -39.6080  -28.7070 C.2    43  CYS43       0.2270
      4  O         30.9170  -39.8990  -27.5220 O.2    43  CYS43      -0.2867
      5  CB        28.5830  -38.8550  -29.8070 C.3    43  CYS43       0.0956
      6  SG        28.5500  -37.3960  -28.6940 S.3    43  CYS43      -0.0801
      7  N         31.5740  -36.9810  -27.3450 N.3    45  SER45      -0.1217
      8  CA        31.3630  -36.3320  -26.0520 C.3    45  SER45       0.1889
      9  C         31.6370  -37.3200  -24.9220 C.2    45  SER45       0.2288
     10  O         32.4830  -37.0760  -24.0570 O.2    45  SER45      -0.2866
     11  CB        29.9150  -35.8080  -25.9230 C.3    45  SER45       0.2089
     12  OG        29.7060  -34.5890  -26.6050 O.3    45  SER45      -0.2183
     13  N         36.5610  -34.5940  -18.6950 N.3    54  LEU54      -0.1245
     14  CA        35.6080  -33.5000  -18.7310 C.3    54  LEU54       0.1561
     15  C         34.7820  -33.7060  -17.4730 C.2    54  LEU54       0.2260
     16  O         34.1850  -34.7780  -17.2700 O.2    54  LEU54      -0.2867
     17  CB        34.7390  -33.5970  -19.9780 C.3    54  LEU54       0.0270
     18  CG        33.5570  -32.6290  -20.0330 C.3    54  LEU54       0.0019
     19  CD1       34.0210  -31.1960  -19.9230 C.3    54  LEU54       0.0001
     20  CD2       32.8240  -32.8530  -21.3170 C.3    54  LEU54       0.0001
     21  N         31.7390  -33.5470  -15.2020 N.3    56  CYS56      -0.1235
     22  CA        30.3020  -33.3820  -15.2310 C.3    56  CYS56       0.1677
     23  C         29.7410  -33.8700  -13.9260 C.2    56  CYS56       0.2270
     24  O         28.5200  -33.8330  -13.6960 O.2    56  CYS56      -0.2867
     25  CB        29.6940  -34.1760  -16.3680 C.3    56  CYS56       0.0956
     26  SG        29.7290  -33.3020  -17.8790 S.3    56  CYS56      -0.0801
     27  N         23.8160  -39.7210  -23.3540 N.3    64  HIS64      -0.1241
     28  CA        22.8260  -38.6540  -23.4350 C.3    64  HIS64       0.1621
     29  C         21.9090  -38.7440  -24.6710 C.2    64  HIS64       0.2264
     30  O         20.8400  -38.1000  -24.7490 O.2    64  HIS64      -0.2867
     31  CB        23.5980  -37.3730  -23.4590 C.3    64  HIS64       0.0745
     32  CG        24.7890  -37.4670  -24.3270 C.ar   64  HIS64       0.0817
     33  ND1       25.8820  -38.2280  -23.9830 N.ar   64  HIS64      -0.2268
     34  CD2       25.0210  -36.9900  -25.5690 C.ar   64  HIS64       0.1154
     35  CE1       26.7400  -38.2110  -24.9840 C.ar   64  HIS64       0.1986
     36  NE2       26.2440  -37.4670  -25.9580 N.ar   64  HIS64      -0.2212
     37  N         22.5740  -32.9180  -16.7240 N.3   115  TRP115     -0.1241
     38  CA        22.2550  -33.3200  -18.0900 C.3   115  TRP115      0.1605
     39  C         22.0900  -34.8240  -18.1360 C.2   115  TRP115      0.2264
     40  O         22.7830  -35.5280  -17.4290 O.2   115  TRP115     -0.2867
     41  CB        23.4030  -32.9390  -19.0280 C.3   115  TRP115      0.0550
     42  CG        23.7010  -31.4960  -19.0450 C.ar  115  TRP115      0.0003
     43  CD1       22.9180  -30.4910  -18.5650 C.ar  115  TRP115      0.0946
     44  CD2       24.8560  -30.8720  -19.5840 C.ar  115  TRP115      0.0152
     45  NE1       23.5140  -29.2650  -18.7700 N.ar  115  TRP115     -0.2442
     46  CE2       24.7130  -29.4720  -19.3920 C.ar  115  TRP115      0.0810
     47  CE3       26.0050  -31.3510  -20.2110 C.ar  115  TRP115      0.0012
     48  CZ2       25.6840  -28.5480  -19.8010 C.ar  115  TRP115      0.0191
     49  CZ3       26.9690  -30.4270  -20.6220 C.ar  115  TRP115      0.0001
     50  CH2       26.8000  -29.0420  -20.4100 C.ar  115  TRP115      0.0015
     51  N         25.3640  -37.1050  -18.1990 N.3   118  LEU118     -0.1245
     52  CA        26.4750  -36.1460  -18.1100 C.3   118  LEU118      0.1561
     53  C         26.1950  -35.2690  -16.8970 C.2   118  LEU118      0.2260
     54  O         26.2840  -34.0370  -16.9730 O.2   118  LEU118     -0.2867
     55  CB        26.5590  -35.2610  -19.3600 C.3   118  LEU118      0.0270
     56  CG        26.6580  -36.0270  -20.6880 C.3   118  LEU118      0.0019
     57  CD1       26.4630  -35.1250  -21.8690 C.3   118  LEU118      0.0001
     58  CD2       27.9880  -36.7070  -20.7540 C.3   118  LEU118      0.0001
     59  N         21.6240  -35.8530  -30.5590 N.3   153  ASP153     -0.1239
     60  CA        22.8270  -35.0140  -30.5280 C.3   153  ASP153      0.1674
     61  C         23.2500  -34.8200  -31.9740 C.2   153  ASP153      0.2266
     62  O         23.2880  -33.7070  -32.5110 O.2   153  ASP153     -0.2867
     63  CB        23.9790  -35.6990  -29.7950 C.3   153  ASP153      0.1410
     64  CG        25.2110  -34.7870  -29.6150 C.2   153  ASP153      0.3668
     65  OD1       25.5580  -34.0480  -30.5560 O.co2 153  ASP153     -0.2456
     66  OD2       25.8670  -34.8150  -28.5340 O.co2 153  ASP153     -0.2456
     67  N         22.0900  -31.1380  -32.4470 N.3   157  THR157     -0.1218
     68  CA        23.0740  -30.0570  -32.3630 C.3   157  THR157      0.1862
     69  C         23.1610  -29.1720  -33.5990 C.2   157  THR157      0.2287
     70  O         23.0480  -27.9540  -33.4830 O.2   157  THR157     -0.2866
     71  CB        24.4550  -30.5590  -31.9850 C.3   157  THR157      0.1770
     72  OG1       24.4070  -31.1010  -30.6660 O.3   157  THR157     -0.2211
     73  CG2       25.4250  -29.4110  -31.9630 C.3   157  THR157      0.0375
     74  N         29.4860  -34.9850  -37.0820 N.3   181  LEU181     -0.1245
     75  CA        28.0960  -34.4470  -37.0200 C.3   181  LEU181      0.1561
     76  C         27.8220  -33.7030  -38.3350 C.2   181  LEU181      0.2260
     77  O         26.7200  -33.7790  -38.8960 O.2   181  LEU181     -0.2867
     78  CB        27.8570  -33.4830  -35.8040 C.3   181  LEU181      0.0270
     79  CG        28.0180  -33.9450  -34.3290 C.3   181  LEU181      0.0019
     80  CD1       27.5480  -32.8440  -33.3660 C.3   181  LEU181      0.0001
     81  CD2       27.2360  -35.2210  -34.0790 C.3   181  LEU181      0.0001
     82  N         24.9150  -24.3210  -28.7500 N.3   284  PHE284     -0.1227
     83  CA        25.2110  -25.4950  -27.9850 C.3   284  PHE284      0.1736
     84  C         24.0790  -26.5010  -27.9250 C.2   284  PHE284      0.2595
     85  O         23.0360  -26.2340  -27.3500 O.2   284  PHE284     -0.2718
     86  CB        25.5710  -25.0410  -26.5870 C.3   284  PHE284      0.0547
     87  CG        25.6130  -26.1380  -25.5990 C.ar  284  PHE284     -0.0202
     88  CD1       26.5660  -27.1680  -25.7150 C.ar  284  PHE284     -0.0042
     89  CD2       24.6610  -26.2060  -24.5530 C.ar  284  PHE284     -0.0042
     90  CE1       26.5660  -28.2580  -24.8120 C.ar  284  PHE284     -0.0003
     91  CE2       24.6540  -27.3110  -23.6240 C.ar  284  PHE284     -0.0003
     92  CZ        25.6070  -28.3340  -23.7620 C.ar  284  PHE284     -0.0000
     93  N         24.2890  -27.6810  -28.4980 N.am  285  TRP285     -0.1976
     94  CA        23.2730  -28.7330  -28.4620 C.3   285  TRP285      0.1640
     95  C         21.9660  -28.1810  -28.9970 C.2   285  TRP285      0.2290
     96  O         21.9730  -27.5380  -30.0700 O.2   285  TRP285     -0.2864
     97  CB        23.0660  -29.2570  -27.0380 C.3   285  TRP285      0.0576
     98  CG        22.8510  -30.7450  -26.9570 C.ar  285  TRP285      0.0006
     99  CD1       22.3410  -31.5550  -27.9300 C.ar  285  TRP285      0.0946
    100  CD2       23.0750  -31.5860  -25.8260 C.ar  285  TRP285      0.0152
    101  NE1       22.2250  -32.8490  -27.4780 N.ar  285  TRP285     -0.2442
    102  CE2       22.6670  -32.8940  -26.1860 C.ar  285  TRP285      0.0810
    103  CE3       23.5790  -31.3650  -24.5370 C.ar  285  TRP285      0.0012
    104  CZ2       22.7430  -33.9710  -25.3040 C.ar  285  TRP285      0.0191
    105  CZ3       23.6540  -32.4330  -23.6650 C.ar  285  TRP285      0.0001
    106  CH2       23.2370  -33.7170  -24.0510 C.ar  285  TRP285      0.0015
@<TRIPOS>BOND
     1    77    76    2
     2    76    75    1
     3    74    75    1
     4    75    78    1
     5    78    79    1
     6    79    81    1
     7    79    80    1
     8    69    70    2
     9    69    68    1
    10    62    61    2
    11    67    68    1
    12    68    71    1
    13    71    73    1
    14    71    72    1
    15    61    60    1
    16    59    60    1
    17    65    64   ar
    18    60    63    1
    19    96    95    2
    20     5     2    1
    21     5     6    1
    22    63    64    1
    23    64    66   ar
    24     2     3    1
    25     2     1    1
    26    95    94    1
    27    82    83    1
    28     3     4    2
    29    93    94    1
    30    93    84   am
    31    94    97    1
    32    83    84    1
    33    83    86    1
    34    99   101   ar
    35    99    98   ar
    36    84    85    2
    37   101   102   ar
    38     7     8    1
    39    97    98    1
    40    98   100   ar
    41    12    11    1
    42    86    87    1
    43   102   100   ar
    44   102   104   ar
    45     8    11    1
    46     8     9    1
    47    36    34   ar
    48    36    35   ar
    49   100   103   ar
    50    88    87   ar
    51    88    90   ar
    52    87    89   ar
    53    34    32   ar
    54   104   106   ar
    55    35    33   ar
    56     9    10    2
    57    90    92   ar
    58    30    29    2
    59    29    28    1
    60    89    91   ar
    61   103   105   ar
    62    32    33   ar
    63    32    31    1
    64   106   105   ar
    65    92    91   ar
    66    31    28    1
    67    28    27    1
    68    57    56    1
    69    20    18    1
    70    58    56    1
    71    56    55    1
    72    49    50   ar
    73    49    47   ar
    74    50    48   ar
    75    47    44   ar
    76    18    17    1
    77    18    19    1
    78    17    14    1
    79    48    46   ar
    80    44    46   ar
    81    44    42   ar
    82    46    45   ar
    83    55    52    1
    84    42    41    1
    85    42    43   ar
    86    41    38    1
    87    45    43   ar
    88    14    13    1
    89    14    15    1
    90    51    52    1
    91    39    38    1
    92    39    40    2
    93    52    53    1
    94    38    37    1
    95    26    25    1
    96    15    16    2
    97    54    53    2
    98    25    22    1
    99    22    21    1
   100    22    23    1
   101    23    24    2
