@<TRIPOS>MOLECULE
tmp/3wnrB00.pdb
 106 104 0 0 0
SMALL
GASTEIGER

@<TRIPOS>ATOM
      1  N         23.4800    0.1510  -25.2980 N.3     1  PRO1       -0.2102
      2  CA        24.0240   -0.6820  -24.2220 C.3     1  PRO1        0.1504
      3  C         24.2630    0.0540  -22.9050 C.2     1  PRO1        0.2575
      4  O         24.7130    1.1990  -22.9200 O.2     1  PRO1       -0.2718
      5  CB        25.3580   -1.1680  -24.8060 C.3     1  PRO1        0.0282
      6  CG        25.7110   -0.1830  -25.8630 C.3     1  PRO1        0.0208
      7  CD        24.3840    0.2070  -26.4590 C.3     1  PRO1        0.0893
      8  N         23.9360   -0.5810  -21.7820 N.am    2  MET2       -0.1980
      9  CA        24.5130   -0.1340  -20.5230 C.3     2  MET2        0.1605
     10  C         25.5460   -1.1370  -20.0440 C.2     2  MET2        0.2287
     11  O         25.3210   -2.3500  -20.0170 O.2     2  MET2       -0.2864
     12  CB        23.4540    0.1160  -19.4500 C.3     2  MET2        0.0413
     13  CG        22.5890   -1.0480  -19.0680 C.3     2  MET2        0.0598
     14  SD        21.5030   -0.5840  -17.6890 S.3     2  MET2       -0.1393
     15  CE        22.6080   -0.6890  -16.3180 C.3     2  MET2        0.0692
     16  N         24.8660    1.5220  -31.8840 N.3    32  LYS32      -0.1231
     17  CA        23.8340    2.2700  -31.1640 C.3    32  LYS32       0.1678
     18  C         24.2970    3.7170  -30.9780 C.2    32  LYS32       0.2434
     19  O         25.4990    3.9790  -30.9890 O.2    32  LYS32      -0.2733
     20  CB        23.5510    1.6190  -29.8100 C.3    32  LYS32       0.0284
     21  CG        22.8990    0.2420  -29.8890 C.3    32  LYS32       0.0035
     22  CD        21.3750    0.3400  -29.8350 C.3    32  LYS32       0.0206
     23  CE        20.7510   -1.0550  -29.6970 C.3    32  LYS32       0.1093
     24  NZ        19.2690   -1.0240  -29.6420 N.3    32  LYS32      -0.1314
     25  N         23.3570    4.6640  -30.8180 N.am   33  PRO33      -0.2729
     26  CA        23.7740    6.0700  -30.6590 C.3    33  PRO33       0.1401
     27  C         24.4330    6.3290  -29.3030 C.2    33  PRO33       0.2269
     28  O         23.9270    5.8510  -28.2850 O.2    33  PRO33      -0.2865
     29  CB        22.4560    6.8540  -30.7730 C.3    33  PRO33       0.0296
     30  CG        21.4130    5.8400  -31.2250 C.3    33  PRO33       0.0237
     31  CD        21.8930    4.5110  -30.7590 C.3    33  PRO33       0.0939
     32  N         22.4780    7.1870  -26.0180 N.3    36  TYR36      -0.1227
     33  CA        21.7380    6.2120  -25.2090 C.3    36  TYR36       0.1736
     34  C         22.6250    5.3570  -24.3050 C.2    36  TYR36       0.2595
     35  O         22.1360    4.6560  -23.4200 O.2    36  TYR36      -0.2718
     36  CB        20.9230    5.2840  -26.1110 C.3    36  TYR36       0.0548
     37  CG        19.7000    5.9290  -26.7240 C.ar   36  TYR36      -0.0200
     38  CD1       18.4870    5.9530  -26.0390 C.ar   36  TYR36      -0.0009
     39  CD2       19.7510    6.4990  -27.9970 C.ar   36  TYR36      -0.0009
     40  CE1       17.3640    6.5370  -26.5990 C.ar   36  TYR36       0.0417
     41  CE2       18.6290    7.0850  -28.5690 C.ar   36  TYR36       0.0417
     42  CZ        17.4400    7.1040  -27.8640 C.ar   36  TYR36       0.1957
     43  OH        16.3200    7.6830  -28.4250 O.3    36  TYR36      -0.2866
     44  N         23.9300    5.4130  -24.5190 N.am   37  ILE37      -0.1966
     45  CA        24.8250    4.4820  -23.8360 C.3    37  ILE37       0.1727
     46  C         25.1530    4.9300  -22.4210 C.2    37  ILE37       0.2616
     47  O         25.5110    6.0840  -22.1900 O.2    37  ILE37      -0.2715
     48  CB        26.1000    4.3030  -24.6500 C.3    37  ILE37       0.0290
     49  CG1       25.7230    3.6630  -25.9880 C.3    37  ILE37       0.0022
     50  CG2       27.1410    3.4870  -23.8790 C.3    37  ILE37       0.0023
     51  CD1       26.8680    3.3380  -26.8210 C.3    37  ILE37       0.0001
     52  N         24.9920    4.0170  -21.4710 N.am   38  ALA38      -0.1977
     53  CA        25.3450    4.2820  -20.0830 C.3    38  ALA38       0.1597
     54  C         26.5100    3.3850  -19.6590 C.2    38  ALA38       0.2287
     55  O         26.5680    2.2160  -20.0240 O.2    38  ALA38      -0.2864
     56  CB        24.1410    4.0740  -19.1780 C.3    38  ALA38       0.0319
     57  N         23.8040   -4.7810  -20.7410 N.3    62  HIS62      -0.1226
     58  CA        22.3750   -4.8890  -21.0410 C.3    62  HIS62       0.1752
     59  C         22.0950   -4.1080  -22.3130 C.2    62  HIS62       0.2597
     60  O         22.5210   -2.9570  -22.4460 O.2    62  HIS62      -0.2718
     61  CB        21.5010   -4.3440  -19.9070 C.3    62  HIS62       0.0759
     62  CG        21.5900   -5.1160  -18.6210 C.ar   62  HIS62       0.0818
     63  ND1       22.6810   -5.0430  -17.7790 N.ar   62  HIS62      -0.2268
     64  CD2       20.6930   -5.9270  -18.0070 C.ar   62  HIS62       0.1154
     65  CE1       22.4630   -5.8020  -16.7170 C.ar   62  HIS62       0.1986
     66  NE2       21.2650   -6.3500  -16.8310 N.ar   62  HIS62      -0.2212
     67  N         21.3720   -4.7260  -23.2340 N.am   63  SER63      -0.1938
     68  CA        21.0380   -4.0870  -24.4940 C.3    63  SER63       0.2055
     69  C         19.6640   -4.5480  -24.9500 C.2    63  SER63       0.2642
     70  O         19.2460   -5.6590  -24.6270 O.2    63  SER63      -0.2714
     71  CB        22.0930   -4.4160  -25.5580 C.3    63  SER63       0.2130
     72  OG        21.8810   -3.6620  -26.7400 O.3    63  SER63      -0.2179
     73  N         18.9590   -3.6840  -25.6770 N.am   64  ILE64      -0.1977
     74  CA        17.7440   -4.0860  -26.3800 C.3    64  ILE64       0.1596
     75  C         18.1520   -4.5210  -27.7790 C.2    64  ILE64       0.2287
     76  O         18.4270   -3.6830  -28.6550 O.2    64  ILE64      -0.2864
     77  CB        16.6940   -2.9450  -26.4560 C.3    64  ILE64       0.0276
     78  CG1       16.2910   -2.5030  -25.0490 C.3    64  ILE64       0.0022
     79  CG2       15.4460   -3.3980  -27.2340 C.3    64  ILE64       0.0022
     80  CD1       15.4250   -1.2680  -25.0290 C.3    64  ILE64       0.0001
     81  N         17.5350   -7.4350  -23.3910 N.3   101  MET101     -0.1245
     82  CA        16.3080   -6.9660  -22.7310 C.3   101  MET101      0.1570
     83  C         15.1380   -6.7550  -23.6880 C.2   101  MET101      0.2261
     84  O         15.3020   -6.2030  -24.7740 O.2   101  MET101     -0.2867
     85  CB        16.5620   -5.6500  -21.9930 C.3   101  MET101      0.0387
     86  CG        17.6690   -5.6940  -20.9400 C.3   101  MET101      0.0595
     87  SD        17.2950   -6.7890  -19.5630 S.3   101  MET101     -0.1393
     88  CE        15.9410   -5.9330  -18.7680 C.3   101  MET101      0.0692
     89  N         12.4130   -2.1710  -20.1070 N.3   106  VAL106     -0.1245
     90  CA        13.4050   -1.1310  -19.8410 C.3   106  VAL106      0.1561
     91  C         12.7290    0.2260  -19.6920 C.2   106  VAL106      0.2260
     92  O         12.1320    0.7360  -20.6360 O.2   106  VAL106     -0.2867
     93  CB        14.4800   -1.0400  -20.9520 C.3   106  VAL106      0.0252
     94  CG1       15.4910    0.0580  -20.6170 C.3   106  VAL106      0.0019
     95  CG2       15.2060   -2.3730  -21.1290 C.3   106  VAL106      0.0019
     96  N         10.5750    1.6030  -23.3540 N.3   113  PHE113     -0.1241
     97  CA        10.9070    1.6580  -24.7750 C.3   113  PHE113      0.1605
     98  C          9.9410    0.8520  -25.6410 C.2   113  PHE113      0.2264
     99  O         10.0610    0.8360  -26.8690 O.2   113  PHE113     -0.2867
    100  CB        12.3300    1.1560  -25.0010 C.3   113  PHE113      0.0534
    101  CG        13.3890    2.1660  -24.6730 C.ar  113  PHE113     -0.0203
    102  CD1       13.5580    3.2910  -25.4610 C.ar  113  PHE113     -0.0042
    103  CD2       14.2350    1.9770  -23.6010 C.ar  113  PHE113     -0.0042
    104  CE1       14.5410    4.2170  -25.1700 C.ar  113  PHE113     -0.0003
    105  CE2       15.2250    2.9000  -23.3100 C.ar  113  PHE113     -0.0003
    106  CZ        15.3720    4.0220  -24.0950 C.ar  113  PHE113     -0.0000
@<TRIPOS>BOND
     1    16    17    1
     2    30    29    1
     3    30    31    1
     4    17    18    1
     5    17    20    1
     6    19    18    2
     7    18    25   am
     8    25    31    1
     9    25    26    1
    10    29    26    1
    11    26    27    1
    12    21    22    1
    13    21    20    1
    14    22    23    1
    15    23    24    1
    16    27    28    2
    17    76    75    2
    18    41    39   ar
    19    41    42   ar
    20    43    42    1
    21    39    37   ar
    22    42    40   ar
    23    75    74    1
    24    79    77    1
    25    99    98    2
    26    51    49    1
    27    72    71    1
    28    37    36    1
    29    37    38   ar
    30    40    38   ar
    31     7     6    1
    32     7     1    1
    33    77    74    1
    34    77    78    1
    35    74    73    1
    36    36    33    1
    37    32    33    1
    38    49    48    1
    39     6     5    1
    40    73    69   am
    41    98    97    1
    42    71    68    1
    43   102   104   ar
    44   102   101   ar
    45     1     2    1
    46    33    34    1
    47   104   106   ar
    48    78    80    1
    49   100    97    1
    50   100   101    1
    51    69    70    2
    52    69    68    1
    53     5     2    1
    54    97    96    1
    55    84    83    2
    56   101   103   ar
    57    48    50    1
    58    48    45    1
    59    44    34   am
    60    44    45    1
    61    68    67    1
    62    34    35    2
    63     2     3    1
    64   106   105   ar
    65    45    46    1
    66    83    82    1
    67   103   105   ar
    68    81    82    1
    69    67    59   am
    70     4     3    2
    71     3     8   am
    72    82    85    1
    73    60    59    2
    74    46    47    2
    75    46    52   am
    76    59    58    1
    77    85    86    1
    78     8     9    1
    79    52    53    1
    80    95    93    1
    81    58    57    1
    82    58    61    1
    83    93    94    1
    84    93    90    1
    85    86    87    1
    86    92    91    2
    87     9    10    1
    88     9    12    1
    89    89    90    1
    90    53    54    1
    91    53    56    1
    92    10    11    2
    93    55    54    2
    94    61    62    1
    95    90    91    1
    96    87    88    1
    97    12    13    1
    98    13    14    1
    99    62    64   ar
   100    62    63   ar
   101    64    66   ar
   102    63    65   ar
   103    14    15    1
   104    66    65   ar
