@<TRIPOS>MOLECULE
tmp/3wo2B00.pdb
 105 98 0 0 0
SMALL
GASTEIGER

@<TRIPOS>ATOM
      1  N         38.2810   98.3290  135.7140 N.3     8  LYS8       -0.1231
      2  CA        38.1840   99.4060  136.7040 C.3     8  LYS8        0.1693
      3  C         37.4180   98.9790  137.9430 C.2     8  LYS8        0.2592
      4  O         36.4550   98.2110  137.8670 O.2     8  LYS8       -0.2718
      5  CB        37.5370  100.6740  136.1050 C.3     8  LYS8        0.0285
      6  CG        38.3680  101.3610  135.0140 C.3     8  LYS8        0.0035
      7  CD        39.5550  102.1550  135.5440 C.3     8  LYS8        0.0206
      8  CE        40.3740  102.7490  134.4230 C.3     8  LYS8        0.1093
      9  NZ        41.2420  103.8520  134.9070 N.3     8  LYS8       -0.1314
     10  N         37.8540   99.5020  139.0900 N.am    9  LEU9       -0.1966
     11  CA        37.2470   99.2790  140.3920 C.3     9  LEU9        0.1728
     12  C         35.9700  100.0930  140.4860 C.2     9  LEU9        0.2617
     13  O         35.9620  101.2630  140.0970 O.2     9  LEU9       -0.2715
     14  CB        38.2450   99.6910  141.4880 C.3     9  LEU9        0.0311
     15  CG        39.1640   98.6250  142.1230 C.3     9  LEU9        0.0022
     16  CD1       39.2380   97.3110  141.3530 C.3     9  LEU9        0.0001
     17  CD2       40.4990   99.2000  142.4980 C.3     9  LEU9        0.0001
     18  N         34.8770   99.4600  140.9480 N.am   10  SER10      -0.1936
     19  CA        33.5750  100.1070  141.0790 C.3    10  SER10       0.2055
     20  C         32.7460   99.5390  142.2310 C.2    10  SER10       0.2642
     21  O         32.9120   98.3870  142.6380 O.2    10  SER10      -0.2714
     22  CB        32.7750   99.9700  139.7840 C.3    10  SER10       0.2130
     23  OG        33.4490  100.5020  138.6530 O.3    10  SER10      -0.2179
     24  N         31.8100  100.3660  142.7060 N.am   11  VAL11      -0.1977
     25  CA        30.7980  100.0640  143.7090 C.3    11  VAL11       0.1596
     26  C         29.4420  100.1030  142.9490 C.2    11  VAL11       0.2287
     27  O         29.2000  101.0470  142.1880 O.2    11  VAL11      -0.2864
     28  CB        30.9040  101.0380  144.9280 C.3    11  VAL11       0.0276
     29  CG1       29.6120  101.0900  145.7310 C.3    11  VAL11       0.0022
     30  CG2       32.0670  100.6510  145.8330 C.3    11  VAL11       0.0022
     31  N         25.2110   99.8240  143.1510 N.3    13  ARG13      -0.1245
     32  CA        24.0720  100.0670  144.0260 C.3    13  ARG13       0.1563
     33  C         22.7600   99.9460  143.2610 C.2    13  ARG13       0.2260
     34  O         22.7240  100.2950  142.0890 O.2    13  ARG13      -0.2867
     35  CB        24.1720  101.4780  144.6490 C.3    13  ARG13       0.0307
     36  CG        25.3820  101.7180  145.5570 C.3    13  ARG13       0.0489
     37  CD        25.5100  103.1840  145.9160 C.3    13  ARG13       0.2205
     38  NE        26.7420  103.4600  146.6530 N.pl3  13  ARG13      -0.0865
     39  CZ        26.8210  103.5680  147.9770 C.cat  13  ARG13       0.5346
     40  NH1       25.7310  103.4400  148.7280 N.pl3  13  ARG13       0.1354
     41  NH2       27.9860  103.8170  148.5600 N.pl3  13  ARG13       0.1354
     42  N         29.0460  104.8440  153.9960 N.3    35  ASP35      -0.1239
     43  CA        30.3720  104.9330  153.3860 C.3    35  ASP35       0.1674
     44  C         31.4210  104.1770  154.2220 C.2    35  ASP35       0.2266
     45  O         32.3180  103.5640  153.6400 O.2    35  ASP35      -0.2867
     46  CB        30.7730  106.3950  153.1790 C.3    35  ASP35       0.1410
     47  CG        29.8290  107.1340  152.2450 C.2    35  ASP35       0.3668
     48  OD1       29.7620  106.7620  151.0510 O.co2  35  ASP35      -0.2456
     49  OD2       29.1400  108.0680  152.7150 O.co2  35  ASP35      -0.2456
     50  N         30.6990  100.3560  153.7040 N.3    38  CYS38      -0.1221
     51  CA        31.2050   99.9310  152.4040 C.3    38  CYS38       0.1808
     52  C         32.7490   99.7820  152.4540 C.2    38  CYS38       0.2601
     53  O         33.2910   98.8620  151.8330 O.2    38  CYS38      -0.2717
     54  CB        30.7640  100.9010  151.3090 C.3    38  CYS38       0.0970
     55  SG        31.0280  100.2890  149.6260 S.3    38  CYS38      -0.0800
     56  N         33.4330  100.6680  153.2180 N.am   39  ARG39      -0.1979
     57  CA        34.8880  100.7100  153.4070 C.3    39  ARG39       0.1597
     58  C         35.3840   99.5040  154.2360 C.2    39  ARG39       0.2287
     59  O         36.4090   98.9170  153.8910 O.2    39  ARG39      -0.2864
     60  CB        35.2890  102.0390  154.0830 C.3    39  ARG39       0.0334
     61  CG        36.7920  102.3190  154.1320 C.3    39  ARG39       0.0492
     62  CD        37.2760  102.6670  155.5320 C.3    39  ARG39       0.2205
     63  NE        36.8780  104.0240  155.9220 N.pl3  39  ARG39      -0.0865
     64  CZ        36.9080  104.4990  157.1650 C.cat  39  ARG39       0.5346
     65  NH1       36.5240  105.7420  157.4140 N.pl3  39  ARG39       0.1354
     66  NH2       37.3050  103.7280  158.1710 N.pl3  39  ARG39       0.1354
     67  N         35.1120   96.2770  152.1410 N.3    42  ALA42      -0.1245
     68  CA        35.8820   96.5200  150.9060 C.3    42  ALA42       0.1562
     69  C         36.1620   95.2900  149.9870 C.2    42  ALA42       0.2260
     70  O         35.8660   95.4270  148.8030 O.2    42  ALA42      -0.2867
     71  CB        37.1990   97.2180  151.2230 C.3    42  ALA42       0.0290
     72  N         33.8820   95.9290  146.5880 N.3    46  ILE46      -0.1245
     73  CA        34.5890   96.5500  145.4550 C.3    46  ILE46       0.1561
     74  C         34.6340   95.5590  144.2720 C.2    46  ILE46       0.2260
     75  O         35.3280   94.5360  144.3160 O.2    46  ILE46      -0.2867
     76  CB        36.0030   97.1160  145.8100 C.3    46  ILE46       0.0252
     77  CG1       35.9230   98.1320  146.9790 C.3    46  ILE46       0.0019
     78  CG2       36.6260   97.7860  144.5740 C.3    46  ILE46       0.0019
     79  CD1       37.3030   98.5420  147.5950 C.3    46  ILE46       0.0001
     80  N         29.3220  103.3710  140.7910 N.3   154  GLN154     -0.1231
     81  CA        30.1710  104.3930  141.3670 C.3   154  GLN154      0.1698
     82  C         31.6290  104.0360  141.0910 C.2   154  GLN154      0.2592
     83  O         32.1920  103.1370  141.7130 O.2   154  GLN154     -0.2718
     84  CB        29.8940  104.5930  142.8680 C.3   154  GLN154      0.0381
     85  CG        30.4910  105.8970  143.3930 C.3   154  GLN154      0.0905
     86  CD        30.4260  106.0670  144.8950 C.2   154  GLN154      0.2608
     87  OE1       29.7670  105.3170  145.6300 O.2   154  GLN154     -0.2717
     88  NE2       31.1170  107.0840  145.3790 N.am  154  GLN154     -0.0878
     89  N         32.2090  104.7200  140.1060 N.am  155  ASN155     -0.1960
     90  CA        33.6130  104.5720  139.7270 C.3   155  ASN155      0.1819
     91  C         34.3260  105.9090  139.9900 C.2   155  ASN155      0.2621
     92  O         35.3570  106.2110  139.3860 O.2   155  ASN155     -0.2715
     93  CB        33.7600  104.0780  138.2780 C.3   155  ASN155      0.1195
     94  CG        32.7490  104.6100  137.2820 C.2   155  ASN155      0.2630
     95  OD1       32.0940  103.8440  136.5750 O.2   155  ASN155     -0.2716
     96  ND2       32.6150  105.9250  137.1750 N.am  155  ASN155     -0.0877
     97  N         33.7760  106.6750  140.9590 N.am  156  GLU156     -0.1977
     98  CA        34.2420  107.9840  141.4230 C.3   156  GLU156      0.1602
     99  C         34.3400  107.9690  142.9530 C.2   156  GLU156      0.2287
    100  O         35.3030  108.4800  143.5190 O.2   156  GLU156     -0.2864
    101  CB        33.2780  109.0840  140.9260 C.3   156  GLU156      0.0415
    102  CG        33.4890  110.4780  141.5030 C.3   156  GLU156      0.1163
    103  CD        32.6270  110.8210  142.7060 C.2   156  GLU156      0.3649
    104  OE1       33.1930  111.2620  143.7320 O.co2 156  GLU156     -0.2457
    105  OE2       31.3900  110.6390  142.6290 O.co2 156  GLU156     -0.2457
@<TRIPOS>BOND
     1     8     9    1
     2     8     7    1
     3     6     7    1
     4     6     5    1
     5     1     2    1
     6     5     2    1
     7    95    94    2
     8     2     3    1
     9    96    94   am
    10    94    93    1
    11     4     3    2
    12     3    10   am
    13    93    90    1
    14    23    22    1
    15    10    11    1
    16    92    91    2
    17    90    91    1
    18    90    89    1
    19    22    19    1
    20    91    97   am
    21    13    12    2
    22    89    82   am
    23    11    12    1
    24    11    14    1
    25    12    18   am
    26    80    81    1
    27   101    98    1
    28   101   102    1
    29    18    19    1
    30    97    98    1
    31    19    20    1
    32    82    81    1
    33    82    83    2
    34    16    15    1
    35    81    84    1
    36    98    99    1
    37    14    15    1
    38   102   103    1
    39    34    33    2
    40    15    17    1
    41    27    26    2
    42    20    21    2
    43    20    24   am
    44   105   103   ar
    45   103   104   ar
    46    24    25    1
    47    84    85    1
    48    26    25    1
    49    99   100    2
    50    31    32    1
    51    33    32    1
    52    85    86    1
    53    25    28    1
    54    32    35    1
    55    74    75    2
    56    74    73    1
    57    78    76    1
    58    35    36    1
    59    86    88   am
    60    86    87    2
    61    28    29    1
    62    28    30    1
    63    73    76    1
    64    73    72    1
    65    36    37    1
    66    76    77    1
    67    37    38    1
    68    38    39    2
    69    77    79    1
    70    39    41    1
    71    39    40    1
    72    70    69    2
    73    55    54    1
    74    69    68    1
    75    68    71    1
    76    68    67    1
    77    48    47   ar
    78    54    51    1
    79    53    52    2
    80    47    49   ar
    81    47    46    1
    82    51    52    1
    83    51    50    1
    84    52    56   am
    85    46    43    1
    86    56    57    1
    87    43    42    1
    88    43    44    1
    89    57    60    1
    90    57    58    1
    91    45    44    2
    92    59    58    2
    93    60    61    1
    94    61    62    1
    95    62    63    1
    96    63    64    2
    97    64    65    1
    98    64    66    1
