@<TRIPOS>MOLECULE
tmp/3wo2D01.pdb
 99 93 0 0 0
SMALL
GASTEIGER

@<TRIPOS>ATOM
      1  N         31.0260   58.8590  147.1620 N.3     9  LEU9       -0.1231
      2  CA        30.9620   58.8180  145.7050 C.3     9  LEU9        0.1693
      3  C         29.8000   57.9450  145.2930 C.2     9  LEU9        0.2593
      4  O         29.6320   56.8500  145.8430 O.2     9  LEU9       -0.2718
      5  CB        32.2800   58.2650  145.1370 C.3     9  LEU9        0.0284
      6  CG        33.4140   59.2240  144.7540 C.3     9  LEU9        0.0019
      7  CD1       33.2350   60.6640  145.2510 C.3     9  LEU9        0.0001
      8  CD2       34.7710   58.6020  144.9970 C.3     9  LEU9        0.0001
      9  N         28.9760   58.4400  144.3560 N.am   10  SER10      -0.1938
     10  CA        27.8020   57.7280  143.8660 C.3    10  SER10       0.2055
     11  C         27.4720   58.0630  142.4070 C.2    10  SER10       0.2642
     12  O         27.8140   59.1390  141.9130 O.2    10  SER10      -0.2714
     13  CB        26.5830   58.0490  144.7310 C.3    10  SER10       0.2130
     14  OG        26.7690   57.7700  146.1100 O.3    10  SER10      -0.2179
     15  N         26.7880   57.1240  141.7350 N.am   11  VAL11      -0.1977
     16  CA        26.2290   57.2580  140.3920 C.3    11  VAL11       0.1596
     17  C         24.7070   57.2640  140.5960 C.2    11  VAL11       0.2287
     18  O         24.1880   56.4300  141.3410 O.2    11  VAL11      -0.2864
     19  CB        26.7520   56.1820  139.3920 C.3    11  VAL11       0.0276
     20  CG1       25.8180   56.0080  138.1940 C.3    11  VAL11       0.0022
     21  CG2       28.1530   56.5490  138.9090 C.3    11  VAL11       0.0022
     22  N         20.8880   57.2300  138.7410 N.3    13  ARG13      -0.1245
     23  CA        20.1640   56.7750  137.5650 C.3    13  ARG13       0.1563
     24  C         18.6800   56.9680  137.7580 C.2    13  ARG13       0.2260
     25  O         18.1960   56.8610  138.8860 O.2    13  ARG13      -0.2867
     26  CB        20.4510   55.2780  137.3060 C.3    13  ARG13       0.0307
     27  CG        21.8990   54.9450  136.9600 C.3    13  ARG13       0.0489
     28  CD        22.1350   53.4450  136.9700 C.3    13  ARG13       0.2205
     29  NE        23.5540   53.1250  136.8070 N.pl3  13  ARG13      -0.0865
     30  CZ        24.1210   52.7800  135.6540 C.cat  13  ARG13       0.5346
     31  NH1       23.3910   52.6790  134.5480 N.pl3  13  ARG13       0.1354
     32  NH2       25.4210   52.5210  135.6000 N.pl3  13  ARG13       0.1354
     33  N         28.4790   50.4720  131.1000 N.3    35  ASP35      -0.1239
     34  CA        29.5010   50.5310  132.1480 C.3    35  ASP35       0.1674
     35  C         30.7690   51.2480  131.6450 C.2    35  ASP35       0.2266
     36  O         31.3720   52.0070  132.4070 O.2    35  ASP35      -0.2867
     37  CB        29.8390   49.1260  132.6620 C.3    35  ASP35       0.1410
     38  CG        30.5710   49.1080  133.9840 C.2    35  ASP35       0.3668
     39  OD1       30.7960   50.1300  134.6120 O.co2  35  ASP35      -0.2456
     40  OD2       30.8300   48.0160  134.4960 O.co2  35  ASP35      -0.2456
     41  N         29.9400   55.1840  131.1280 N.3    38  CYS38      -0.1221
     42  CA        29.9200   55.7850  132.4570 C.3    38  CYS38       0.1808
     43  C         31.3480   55.9910  132.9750 C.2    38  CYS38       0.2601
     44  O         31.6300   57.0200  133.5920 O.2    38  CYS38      -0.2717
     45  CB        29.1050   54.9140  133.4070 C.3    38  CYS38       0.0970
     46  SG        28.5370   55.7700  134.8950 S.3    38  CYS38      -0.0800
     47  N         32.2430   55.0180  132.6990 N.am   39  ARG39      -0.1979
     48  CA        33.6570   55.0280  133.0850 C.3    39  ARG39       0.1597
     49  C         34.4420   56.1110  132.3140 C.2    39  ARG39       0.2287
     50  O         35.2760   56.7920  132.9110 O.2    39  ARG39      -0.2864
     51  CB        34.2700   53.6420  132.8380 C.3    39  ARG39       0.0334
     52  CG        35.6380   53.4260  133.4580 C.3    39  ARG39       0.0492
     53  CD        35.9390   51.9500  133.5730 C.3    39  ARG39       0.2205
     54  NE        36.3110   51.3560  132.2890 N.pl3  39  ARG39      -0.0865
     55  CZ        36.7030   50.0950  132.1320 C.cat  39  ARG39       0.5346
     56  NH1       36.7910   49.2820  133.1790 N.pl3  39  ARG39       0.1354
     57  NH2       37.0280   49.6410  130.9300 N.pl3  39  ARG39       0.1354
     58  N         30.2690   60.8610  138.2050 N.3    46  ILE46      -0.1245
     59  CA        30.4930   60.4690  139.6120 C.3    46  ILE46       0.1561
     60  C         30.1270   61.6590  140.5100 C.2    46  ILE46       0.2260
     61  O         30.8190   62.6800  140.5290 O.2    46  ILE46      -0.2867
     62  CB        31.9220   59.9040  139.9180 C.3    46  ILE46       0.0252
     63  CG1       32.2650   58.6970  139.0030 C.3    46  ILE46       0.0019
     64  CG2       32.0160   59.4820  141.3850 C.3    46  ILE46       0.0019
     65  CD1       33.7260   58.2700  138.9860 C.3    46  ILE46       0.0001
     66  N         23.7250   54.3590  143.1340 N.3   154  GLN154     -0.1231
     67  CA        24.7080   53.2950  143.1040 C.3   154  GLN154      0.1698
     68  C         25.9550   53.7660  143.8250 C.2   154  GLN154      0.2592
     69  O         26.7380   54.5570  143.2960 O.2   154  GLN154     -0.2718
     70  CB        25.0070   52.8290  141.6690 C.3   154  GLN154      0.0381
     71  CG        25.7520   51.5040  141.6410 C.3   154  GLN154      0.0905
     72  CD        26.1840   51.0520  140.2740 C.2   154  GLN154      0.2608
     73  OE1       25.9230   51.6810  139.2390 O.2   154  GLN154     -0.2717
     74  NE2       26.8560   49.9220  140.2490 N.am  154  GLN154     -0.0878
     75  N         26.0840   53.3380  145.0700 N.am  155  ASN155     -0.1960
     76  CA        27.2380   53.6200  145.9120 C.3   155  ASN155      0.1819
     77  C         27.9030   52.2730  146.1910 C.2   155  ASN155      0.2621
     78  O         28.7640   52.1520  147.0630 O.2   155  ASN155     -0.2715
     79  CB        26.8100   54.3740  147.1860 C.3   155  ASN155      0.1195
     80  CG        25.7520   53.7010  148.0390 C.2   155  ASN155      0.2630
     81  OD1       25.1600   52.6710  147.6830 O.2   155  ASN155     -0.2716
     82  ND2       25.4810   54.2890  149.1930 N.am  155  ASN155     -0.0877
     83  N         27.4870   51.2630  145.3880 N.am  156  GLU156     -0.1963
     84  CA        27.8630   49.8480  145.3960 C.3   156  GLU156      0.1733
     85  C         29.3550   49.6310  145.2010 C.2   156  GLU156      0.2616
     86  O         29.9360   50.1670  144.2550 O.2   156  GLU156     -0.2715
     87  CB        27.1030   49.0890  144.2920 C.3   156  GLU156      0.0429
     88  CG        25.6000   48.9890  144.4940 C.3   156  GLU156      0.1163
     89  CD        24.9020   48.1030  143.4800 C.2   156  GLU156      0.3649
     90  OE1       24.1410   48.6410  142.6440 O.co2 156  GLU156     -0.2457
     91  OE2       25.1280   46.8710  143.5110 O.co2 156  GLU156     -0.2457
     92  N         29.9520   48.7830  146.0770 N.am  157  ASP157     -0.1971
     93  CA        31.3660   48.3640  146.1220 C.3   157  ASP157      0.1709
     94  C         32.2880   49.5100  146.6170 C.2   157  ASP157      0.2293
     95  O         31.7750   50.5830  147.0160 O.2   157  ASP157     -0.2864
     96  CB        31.8570   47.8010  144.7590 C.3   157  ASP157      0.1436
     97  CG        30.8680   46.8940  144.0400 C.2   157  ASP157      0.3671
     98  OD1       30.5300   45.8250  144.5940 O.co2 157  ASP157     -0.2456
     99  OD2       30.4240   47.2620  142.9290 O.co2 157  ASP157     -0.2456
@<TRIPOS>BOND
     1    57    55    1
     2    33    34    1
     3    41    42    1
     4    35    34    1
     5    35    36    2
     6    55    54    2
     7    55    56    1
     8    34    37    1
     9    54    53    1
    10    49    50    2
    11    49    48    1
    12    42    43    1
    13    42    45    1
    14    37    38    1
    15    47    43   am
    16    47    48    1
    17    51    48    1
    18    51    52    1
    19    43    44    2
    20    45    46    1
    21    52    53    1
    22    38    40   ar
    23    38    39   ar
    24    31    30    1
    25    32    30    1
    26    30    29    2
    27    29    28    1
    28    27    28    1
    29    27    26    1
    30    26    23    1
    31    23    24    1
    32    23    22    1
    33    24    25    2
    34    20    19    1
    35    58    59    1
    36    21    19    1
    37    65    63    1
    38    63    62    1
    39    73    72    2
    40    19    16    1
    41    59    62    1
    42    59    60    1
    43    62    64    1
    44    74    72   am
    45    72    71    1
    46    16    17    1
    47    16    15    1
    48    60    61    2
    49    17    18    2
    50    71    70    1
    51    70    67    1
    52    15    11   am
    53    12    11    2
    54    11    10    1
    55    90    89   ar
    56    99    97   ar
    57    67    66    1
    58    67    68    1
    59    69    68    2
    60    89    91   ar
    61    89    88    1
    62    68    75   am
    63    10     9    1
    64    10    13    1
    65    97    98   ar
    66    97    96    1
    67    86    85    2
    68    87    88    1
    69    87    84    1
    70     9     3   am
    71    13    14    1
    72     6     8    1
    73     6     5    1
    74     6     7    1
    75    96    93    1
    76    75    76    1
    77     5     2    1
    78    85    84    1
    79    85    92   am
    80     3     2    1
    81     3     4    2
    82    83    84    1
    83    83    77   am
    84     2     1    1
    85    76    77    1
    86    76    79    1
    87    92    93    1
    88    93    94    1
    89    77    78    2
    90    94    95    2
    91    79    80    1
    92    81    80    2
    93    80    82   am
