@<TRIPOS>MOLECULE
tmp/3wo2D02.pdb
 103 99 0 0 0
SMALL
GASTEIGER

@<TRIPOS>ATOM
      1  N         27.5640   68.5230  158.5480 N.3     4  LYS4       -0.1245
      2  CA        28.0710   67.5000  157.6260 C.3     4  LYS4        0.1561
      3  C         28.7100   66.3440  158.3860 C.2     4  LYS4        0.2260
      4  O         29.5830   66.5480  159.2330 O.2     4  LYS4       -0.2867
      5  CB        29.0510   68.0980  156.6060 C.3     4  LYS4        0.0271
      6  CG        29.3370   67.1680  155.4220 C.3     4  LYS4        0.0035
      7  CD        29.9800   67.8970  154.2350 C.3     4  LYS4        0.0206
      8  CE        31.4570   68.1890  154.3990 C.3     4  LYS4        0.1093
      9  NZ        32.2740   66.9510  154.5180 N.3     4  LYS4       -0.1314
     10  N         30.8630   62.2880  153.1860 N.3     7  SER7       -0.1202
     11  CA        30.7350   62.4840  151.7440 C.3     7  SER7        0.2020
     12  C         31.0930   61.1760  151.0410 C.2     7  SER7        0.2619
     13  O         32.1440   60.5990  151.3330 O.2     7  SER7       -0.2717
     14  CB        31.6420   63.6190  151.2720 C.3     7  SER7        0.2103
     15  OG        31.2740   64.8650  151.8420 O.3     7  SER7       -0.2182
     16  N         30.2090   60.6810  150.1520 N.am    8  LYS8       -0.1965
     17  CA        30.4450   59.4230  149.4340 C.3     8  LYS8        0.1728
     18  C         30.2050   59.5690  147.9480 C.2     8  LYS8        0.2616
     19  O         29.3050   60.2950  147.5220 O.2     8  LYS8       -0.2715
     20  CB        29.5780   58.2620  149.9840 C.3     8  LYS8        0.0311
     21  CG        29.9030   57.8430  151.4260 C.3     8  LYS8        0.0038
     22  CD        31.1830   57.0080  151.5430 C.3     8  LYS8        0.0206
     23  CE        31.5170   56.6900  152.9800 C.3     8  LYS8        0.1093
     24  NZ        32.4120   55.5090  153.0840 N.3     8  LYS8       -0.1314
     25  N         31.0260   58.8590  147.1620 N.am    9  LEU9       -0.1977
     26  CA        30.9620   58.8180  145.7050 C.3     9  LEU9        0.1596
     27  C         29.8000   57.9450  145.2930 C.2     9  LEU9        0.2287
     28  O         29.6320   56.8500  145.8430 O.2     9  LEU9       -0.2864
     29  CB        32.2800   58.2650  145.1370 C.3     9  LEU9        0.0297
     30  CG        33.4140   59.2240  144.7540 C.3     9  LEU9        0.0022
     31  CD1       33.2350   60.6640  145.2510 C.3     9  LEU9        0.0001
     32  CD2       34.7710   58.6020  144.9970 C.3     9  LEU9        0.0001
     33  N         29.0850   63.3670  144.3530 N.3    48  ILE48      -0.1245
     34  CA        29.4820   63.3450  145.7570 C.3    48  ILE48       0.1561
     35  C         28.2420   63.6380  146.5930 C.2    48  ILE48       0.2260
     36  O         27.7600   64.7770  146.6340 O.2    48  ILE48      -0.2867
     37  CB        30.6410   64.3240  146.0800 C.3    48  ILE48       0.0252
     38  CG1       31.8430   64.1040  145.1350 C.3    48  ILE48       0.0019
     39  CG2       31.0660   64.1710  147.5470 C.3    48  ILE48       0.0019
     40  CD1       32.6180   65.3780  144.7730 C.3    48  ILE48       0.0001
     41  N         34.3890   72.3740  142.2050 N.3    71  ILE71      -0.1245
     42  CA        33.3310   71.6250  142.8990 C.3    71  ILE71       0.1561
     43  C         32.0250   72.4220  142.7940 C.2    71  ILE71       0.2260
     44  O         31.9810   73.6020  143.1600 O.2    71  ILE71      -0.2867
     45  CB        33.6970   71.2570  144.3690 C.3    71  ILE71       0.0252
     46  CG1       34.7860   70.1520  144.4090 C.3    71  ILE71       0.0019
     47  CG2       32.4570   70.8260  145.1870 C.3    71  ILE71       0.0019
     48  CD1       34.3410   68.7130  144.0030 C.3    71  ILE71       0.0001
     49  N         30.3920   75.7640  144.5130 N.3    86  MET86      -0.1230
     50  CA        30.5640   75.7620  145.9690 C.3    86  MET86       0.1702
     51  C         30.7790   74.3550  146.5000 C.2    86  MET86       0.2592
     52  O         30.2380   73.3890  145.9530 O.2    86  MET86      -0.2718
     53  CB        29.3500   76.3930  146.6990 C.3    86  MET86       0.0401
     54  CG        28.0120   75.7680  146.3470 C.3    86  MET86       0.0596
     55  SD        26.7940   76.0200  147.6420 S.3    86  MET86      -0.1393
     56  CE        25.5870   76.9700  146.7430 C.3    86  MET86       0.0692
     57  N         31.5320   74.2440  147.5920 N.am   87  ASN87      -0.1961
     58  CA        31.7420   72.9690  148.2620 C.3    87  ASN87       0.1804
     59  C         30.5760   72.6970  149.2000 C.2    87  ASN87       0.2463
     60  O         30.0310   73.6680  149.7360 O.2    87  ASN87      -0.2730
     61  CB        33.0410   72.9950  149.0660 C.3    87  ASN87       0.1195
     62  CG        34.2900   73.3380  148.2960 C.2    87  ASN87       0.2630
     63  OD1       34.6530   72.6790  147.3160 O.2    87  ASN87      -0.2716
     64  ND2       35.0100   74.3410  148.7740 N.am   87  ASN87      -0.0877
     65  N         30.1790   71.4230  149.4610 N.am   88  PRO88      -0.2716
     66  CA        29.1400   71.1900  150.4840 C.3    88  PRO88       0.1521
     67  C         29.6720   71.7130  151.8300 C.2    88  PRO88       0.2440
     68  O         30.7880   71.3500  152.2000 O.2    88  PRO88      -0.2731
     69  CB        28.9350   69.6660  150.4580 C.3    88  PRO88       0.0310
     70  CG        30.1860   69.1090  149.8880 C.3    88  PRO88       0.0237
     71  CD        30.7270   70.1510  148.9420 C.3    88  PRO88       0.0939
     72  N         28.9950   72.6720  152.5030 N.am   89  PRO89      -0.2716
     73  CA        29.5780   73.2460  153.7280 C.3    89  PRO89       0.1536
     74  C         29.5400   72.2990  154.9190 C.2    89  PRO89       0.2599
     75  O         28.7520   71.3550  154.9410 O.2    89  PRO89      -0.2715
     76  CB        28.7200   74.4860  153.9810 C.3    89  PRO89       0.0310
     77  CG        27.4240   74.1930  153.3470 C.3    89  PRO89       0.0237
     78  CD        27.6830   73.2800  152.1910 C.3    89  PRO89       0.0939
     79  N         30.3970   72.5650  155.9130 N.am   90  ASP90      -0.1958
     80  CA        30.4680   71.7910  157.1510 C.3    90  ASP90       0.1840
     81  C         29.1960   71.9700  157.9810 C.2    90  ASP90       0.2622
     82  O         28.7270   71.0100  158.5880 O.2    90  ASP90      -0.2715
     83  CB        31.6930   72.2140  157.9780 C.3    90  ASP90       0.1450
     84  CG        33.0410   71.9050  157.3490 C.2    90  ASP90       0.3671
     85  OD1       33.1120   70.9690  156.5120 O.co2  90  ASP90      -0.2456
     86  OD2       34.0370   72.5690  157.7250 O.co2  90  ASP90      -0.2456
     87  N         28.6460   73.2020  157.9950 N.am   91  ASN91      -0.1972
     88  CA        27.4620   73.5770  158.7630 C.3    91  ASN91       0.1688
     89  C         26.5260   74.5010  157.9750 C.2    91  ASN91       0.2292
     90  O         26.9920   75.3680  157.2440 O.2    91  ASN91      -0.2864
     91  CB        27.8760   74.2610  160.0790 C.3    91  ASN91       0.1181
     92  CG        28.6310   73.3570  161.0330 C.2    91  ASN91       0.2629
     93  OD1       28.0540   72.4770  161.6860 O.2    91  ASN91      -0.2716
     94  ND2       29.9420   73.5470  161.1360 N.am   91  ASN91      -0.0877
     95  N         23.0610   76.8290  158.9050 N.3    93  LYS93      -0.1245
     96  CA        22.3730   77.4150  160.0520 C.3    93  LYS93       0.1561
     97  C         20.8430   77.2630  160.0790 C.2    93  LYS93       0.2260
     98  O         20.2940   77.1310  161.1740 O.2    93  LYS93      -0.2867
     99  CB        22.7330   78.9060  160.1790 C.3    93  LYS93       0.0271
    100  CG        24.0750   79.1480  160.8970 C.3    93  LYS93       0.0035
    101  CD        25.3190   78.9910  159.9970 C.3    93  LYS93       0.0206
    102  CE        26.3600   78.0650  160.5910 C.3    93  LYS93       0.1093
    103  NZ        27.5330   77.9160  159.6920 N.3    93  LYS93      -0.1314
@<TRIPOS>BOND
     1    41    42    1
     2    43    42    1
     3    43    44    2
     4    42    45    1
     5    48    46    1
     6    33    34    1
     7    45    46    1
     8    45    47    1
     9    49    50    1
    10    30    32    1
    11    30    29    1
    12    30    31    1
    13    40    38    1
    14    38    37    1
    15    29    26    1
    16    27    26    1
    17    27    28    2
    18    26    25    1
    19    34    37    1
    20    34    35    1
    21    52    51    2
    22    50    51    1
    23    50    53    1
    24    37    39    1
    25    54    53    1
    26    54    55    1
    27    51    57   am
    28    35    36    2
    29    56    55    1
    30    25    18   am
    31    63    62    2
    32    19    18    2
    33    57    58    1
    34    18    17    1
    35    58    61    1
    36    58    59    1
    37    62    64   am
    38    62    61    1
    39    71    65    1
    40    71    70    1
    41    59    65   am
    42    59    60    2
    43    17    20    1
    44    17    16    1
    45    65    66    1
    46    70    69    1
    47    20    21    1
    48    16    12   am
    49    69    66    1
    50    66    67    1
    51    12    13    2
    52    12    11    1
    53    14    11    1
    54    14    15    1
    55    21    22    1
    56    22    23    1
    57    11    10    1
    58    67    68    2
    59    67    72   am
    60    78    72    1
    61    78    77    1
    62    72    73    1
    63    23    24    1
    64    77    76    1
    65    73    76    1
    66    73    74    1
    67     7     8    1
    68     7     6    1
    69     8     9    1
    70    74    75    2
    71    74    79   am
    72     6     5    1
    73    79    80    1
    74    85    84   ar
    75     5     2    1
    76    80    83    1
    77    80    81    1
    78    90    89    2
    79    84    86   ar
    80    84    83    1
    81     2     3    1
    82     2     1    1
    83    89    88    1
    84    81    87   am
    85    81    82    2
    86    87    88    1
    87     3     4    2
    88    88    91    1
    89    95    96    1
    90   103   102    1
    91   101   102    1
    92   101   100    1
    93    96    97    1
    94    96    99    1
    95    91    92    1
    96    97    98    2
    97    99   100    1
    98    92    94   am
    99    92    93    2
