@<TRIPOS>MOLECULE
tmp/3wo2C00.pdb
 96 89 0 0 0
SMALL
GASTEIGER

@<TRIPOS>ATOM
      1  N        -16.7990   61.6740  104.1700 N.3     9  LEU9       -0.1231
      2  CA       -16.7350   61.9140  105.6050 C.3     9  LEU9        0.1693
      3  C        -15.5830   61.1150  106.1800 C.2     9  LEU9        0.2593
      4  O        -15.4090   59.9510  105.8190 O.2     9  LEU9       -0.2718
      5  CB       -18.0620   61.5080  106.2490 C.3     9  LEU9        0.0284
      6  CG       -19.1770   62.5420  106.4430 C.3     9  LEU9        0.0019
      7  CD1      -18.9850   63.8430  105.6890 C.3     9  LEU9        0.0001
      8  CD2      -20.5270   61.9280  106.3380 C.3     9  LEU9        0.0001
      9  N        -14.7510   61.7560  107.0090 N.am   10  SER10      -0.1938
     10  CA       -13.5790   61.1280  107.6170 C.3    10  SER10       0.2055
     11  C        -13.2370   61.7190  108.9870 C.2    10  SER10       0.2642
     12  O        -13.5470   62.8790  109.2750 O.2    10  SER10      -0.2714
     13  CB       -12.3580   61.2800  106.7110 C.3    10  SER10       0.2130
     14  OG       -12.5480   60.7410  105.4150 O.3    10  SER10      -0.2179
     15  N        -12.5490   60.9100  109.8090 N.am   11  VAL11      -0.1977
     16  CA       -11.9710   61.2910  111.0890 C.3    11  VAL11       0.1596
     17  C        -10.4460   61.2220  110.8750 C.2    11  VAL11       0.2287
     18  O         -9.9540   60.2680  110.2690 O.2    11  VAL11      -0.2864
     19  CB       -12.5010   60.4370  112.2760 C.3    11  VAL11       0.0276
     20  CG1      -11.5630   60.4970  113.4820 C.3    11  VAL11       0.0022
     21  CG2      -13.9040   60.8900  112.6770 C.3    11  VAL11       0.0022
     22  N         -6.5820   61.4630  112.6260 N.3    13  ARG13      -0.1245
     23  CA        -5.8350   61.2270  113.8590 C.3    13  ARG13       0.1563
     24  C         -4.3360   61.3870  113.6370 C.2    13  ARG13       0.2260
     25  O         -3.8470   61.0660  112.5580 O.2    13  ARG13      -0.2867
     26  CB        -6.1080   59.8040  114.3970 C.3    13  ARG13       0.0307
     27  CG        -7.5400   59.5450  114.8580 C.3    13  ARG13       0.0489
     28  CD        -7.7590   58.0730  115.1600 C.3    13  ARG13       0.2205
     29  NE        -9.1800   57.7300  115.1570 N.pl3  13  ARG13      -0.0865
     30  CZ        -9.9460   57.6810  116.2430 C.cat  13  ARG13       0.5346
     31  NH1       -9.4310   57.9350  117.4400 N.pl3  13  ARG13       0.1354
     32  NH2      -11.2310   57.3680  116.1420 N.pl3  13  ARG13       0.1354
     33  N        -14.0390   56.3900  121.5360 N.3    35  ASP35      -0.1239
     34  CA       -15.0330   56.2350  120.4730 C.3    35  ASP35       0.1674
     35  C        -16.3160   57.0300  120.8010 C.2    35  ASP35       0.2266
     36  O        -16.8970   57.6360  119.8970 O.2    35  ASP35      -0.2867
     37  CB       -15.3360   54.7450  120.2490 C.3    35  ASP35       0.1410
     38  CG       -14.1020   53.9280  119.8960 C.2    35  ASP35       0.3668
     39  OD1      -13.4850   54.2050  118.8400 O.co2  35  ASP35      -0.2456
     40  OD2      -13.7370   53.0280  120.6900 O.co2  35  ASP35      -0.2456
     41  N        -15.4990   60.9870  120.5360 N.3    38  CYS38      -0.1221
     42  CA       -15.4870   61.3500  119.1150 C.3    38  CYS38       0.1808
     43  C        -16.9360   61.4530  118.5670 C.2    38  CYS38       0.2601
     44  O        -17.2440   62.3780  117.8090 O.2    38  CYS38      -0.2717
     45  CB       -14.6570   60.3390  118.3280 C.3    38  CYS38       0.0970
     46  SG       -14.2010   60.8840  116.6660 S.3    38  CYS38      -0.0800
     47  N        -17.8160   60.5220  118.9940 N.am   39  ARG39      -0.1979
     48  CA       -19.2370   60.4480  118.6290 C.3    39  ARG39       0.1597
     49  C        -20.0270   61.6570  119.1840 C.2    39  ARG39       0.2287
     50  O        -20.8610   62.2140  118.4710 O.2    39  ARG39      -0.2864
     51  CB       -19.8480   59.1240  119.1600 C.3    39  ARG39       0.0334
     52  CG       -21.2330   58.7690  118.6160 C.3    39  ARG39       0.0492
     53  CD       -22.2590   58.5610  119.7150 C.3    39  ARG39       0.2205
     54  NE       -22.6300   59.8320  120.3420 N.pl3  39  ARG39      -0.0865
     55  CZ       -23.6140   59.9880  121.2210 C.cat  39  ARG39       0.5346
     56  NH1      -24.3510   58.9490  121.5960 N.pl3  39  ARG39       0.1354
     57  NH2      -23.8680   61.1830  121.7330 N.pl3  39  ARG39       0.1354
     58  N        -19.1310   64.9000  117.2900 N.3    42  ALA42      -0.1245
     59  CA       -19.3740   64.6350  115.8640 C.3    42  ALA42       0.1562
     60  C        -19.3430   65.8630  114.8940 C.2    42  ALA42       0.2260
     61  O        -18.6420   65.7410  113.8920 O.2    42  ALA42      -0.2867
     62  CB       -20.6810   63.8870  115.6810 C.3    42  ALA42       0.0290
     63  N        -15.9790   65.2880  112.5620 N.3    46  ILE46      -0.1245
     64  CA       -16.2140   64.6610  111.2480 C.3    46  ILE46       0.1561
     65  C        -15.8370   65.6640  110.1440 C.2    46  ILE46       0.2260
     66  O        -16.4950   66.6950  109.9500 O.2    46  ILE46      -0.2867
     67  CB       -17.6430   64.0670  111.0620 C.3    46  ILE46       0.0252
     68  CG1      -17.9790   63.0500  112.1850 C.3    46  ILE46       0.0019
     69  CG2      -17.7550   63.3900  109.7000 C.3    46  ILE46       0.0019
     70  CD1      -19.4690   62.6030  112.2610 C.3    46  ILE46       0.0001
     71  N         -9.4980   57.9000  108.9290 N.3   154  GLN154     -0.1231
     72  CA       -10.4950   56.8710  109.1610 C.3   154  GLN154      0.1698
     73  C        -11.7500   57.2080  108.3630 C.2   154  GLN154      0.2592
     74  O        -12.5100   58.1090  108.7240 O.2   154  GLN154     -0.2718
     75  CB       -10.7910   56.6920  110.6610 C.3   154  GLN154      0.0381
     76  CG       -11.5150   55.3860  110.9580 C.3   154  GLN154      0.0905
     77  CD       -12.0500   55.2670  112.3690 C.2   154  GLN154      0.2608
     78  OE1      -11.7030   56.0350  113.2790 O.2   154  GLN154     -0.2717
     79  NE2      -12.9150   54.2850  112.5770 N.am  154  GLN154     -0.0878
     80  N        -11.9220   56.5130  107.2480 N.am  155  ASN155     -0.1960
     81  CA       -13.0880   56.6400  106.3790 C.3   155  ASN155      0.1819
     82  C        -13.8060   55.2770  106.3470 C.2   155  ASN155      0.2621
     83  O        -14.5890   54.9980  105.4360 O.2   155  ASN155     -0.2715
     84  CB       -12.6980   57.1510  104.9770 C.3   155  ASN155      0.1195
     85  CG       -11.3910   56.6490  104.4100 C.2   155  ASN155      0.2630
     86  OD1      -10.5380   57.4380  103.9930 O.2   155  ASN155     -0.2716
     87  ND2      -11.2160   55.3370  104.3400 N.am  155  ASN155     -0.0877
     88  N        -13.5500   54.4610  107.4100 N.am  156  GLU156     -0.1977
     89  CA       -14.0060   53.0870  107.6900 C.3   156  GLU156      0.1602
     90  C        -13.6710   52.1530  106.5080 C.2   156  GLU156      0.2287
     91  O        -14.5370   51.4550  105.9680 O.2   156  GLU156     -0.2864
     92  CB       -15.4880   53.0050  108.0990 C.3   156  GLU156      0.0415
     93  CG       -15.6700   52.6470  109.5670 C.3   156  GLU156      0.1163
     94  CD       -17.0600   52.2110  109.9960 C.2   156  GLU156      0.3649
     95  OE1      -17.5890   51.2360  109.4140 O.co2 156  GLU156     -0.2457
     96  OE2      -17.5920   52.8030  110.9630 O.co2 156  GLU156     -0.2457
@<TRIPOS>BOND
     1    86    85    2
     2     1     2    1
     3    87    85   am
     4    85    84    1
     5    84    81    1
     6    14    13    1
     7    83    82    2
     8     2     3    1
     9     2     5    1
    10     7     6    1
    11     4     3    2
    12    91    90    2
    13     3     9   am
    14     5     6    1
    15     8     6    1
    16    82    81    1
    17    82    88   am
    18    81    80    1
    19    90    89    1
    20    13    10    1
    21     9    10    1
    22    80    73   am
    23    88    89    1
    24    10    11    1
    25    89    92    1
    26    92    93    1
    27    73    74    2
    28    73    72    1
    29    71    72    1
    30    11    12    2
    31    11    15   am
    32    72    75    1
    33    95    94   ar
    34    93    94    1
    35    69    67    1
    36    15    16    1
    37    66    65    2
    38    94    96   ar
    39    65    64    1
    40    18    17    2
    41    75    76    1
    42    17    16    1
    43    76    77    1
    44    67    64    1
    45    67    68    1
    46    16    19    1
    47    64    63    1
    48    68    70    1
    49    19    21    1
    50    19    20    1
    51    77    79   am
    52    77    78    2
    53    25    24    2
    54    22    23    1
    55    24    23    1
    56    23    26    1
    57    61    60    2
    58    26    27    1
    59    27    28    1
    60    60    59    1
    61    29    28    1
    62    29    30    2
    63    62    59    1
    64    59    58    1
    65    32    30    1
    66    30    31    1
    67    46    45    1
    68    44    43    2
    69    45    42    1
    70    50    49    2
    71    43    47   am
    72    43    42    1
    73    52    51    1
    74    52    53    1
    75    48    47    1
    76    48    51    1
    77    48    49    1
    78    39    38   ar
    79    42    41    1
    80    53    54    1
    81    38    37    1
    82    38    40   ar
    83    36    35    2
    84    37    34    1
    85    54    55    2
    86    34    35    1
    87    34    33    1
    88    55    56    1
    89    55    57    1
