@<TRIPOS>MOLECULE
tmp/3wo3L00.pdb
 107 102 0 0 0
SMALL
GASTEIGER

@<TRIPOS>ATOM
      1  N         25.1970   49.6790  -91.6430 N.3    12  GLY12      -0.1225
      2  CA        25.8440   50.4370  -92.7100 C.3    12  GLY12       0.1811
      3  C         25.0650   50.5000  -94.0100 C.2    12  GLY12       0.2280
      4  O         25.6550   50.6890  -95.0770 O.2    12  GLY12      -0.2866
      5  N         27.0320   43.1000  -90.4720 N.3    55  ARG55      -0.1231
      6  CA        27.3950   42.9550  -91.8820 C.3    55  ARG55       0.1694
      7  C         28.5330   41.9440  -92.0440 C.2    55  ARG55       0.2592
      8  O         29.4840   41.9660  -91.2540 O.2    55  ARG55      -0.2718
      9  CB        27.8110   44.3260  -92.4790 C.3    55  ARG55       0.0321
     10  CG        27.9410   44.3500  -94.0120 C.3    55  ARG55       0.0489
     11  CD        28.2410   45.7320  -94.5940 C.3    55  ARG55       0.2205
     12  NE        27.0300   46.4740  -94.9560 N.pl3  55  ARG55      -0.0865
     13  CZ        26.3680   46.3250  -96.1020 C.cat  55  ARG55       0.5346
     14  NH1       26.7850   45.4510  -97.0110 N.pl3  55  ARG55       0.1354
     15  NH2       25.2740   47.0370  -96.3400 N.pl3  55  ARG55       0.1354
     16  N         28.4630   41.0890  -93.0890 N.am   56  ASN56      -0.1960
     17  CA        29.5470   40.1540  -93.4010 C.3    56  ASN56       0.1819
     18  C         30.6200   40.9200  -94.2080 C.2    56  ASN56       0.2621
     19  O         30.2810   41.6220  -95.1650 O.2    56  ASN56      -0.2715
     20  CB        29.0190   38.9340  -94.1620 C.3    56  ASN56       0.1195
     21  CG        29.9450   37.7380  -94.1740 C.2    56  ASN56       0.2630
     22  OD1       31.1530   37.8340  -94.4210 O.2    56  ASN56      -0.2716
     23  ND2       29.3760   36.5630  -93.9750 N.am   56  ASN56      -0.0877
     24  N         31.8980   40.8340  -93.7880 N.am   57  LYS57      -0.1963
     25  CA        33.0030   41.5360  -94.4540 C.3    57  LYS57       0.1728
     26  C         33.5940   40.7030  -95.5910 C.2    57  LYS57       0.2616
     27  O         34.0510   41.2670  -96.5870 O.2    57  LYS57      -0.2715
     28  CB        34.0990   41.9110  -93.4480 C.3    57  LYS57       0.0311
     29  CG        33.6540   42.8890  -92.3490 C.3    57  LYS57       0.0038
     30  CD        33.0080   44.2000  -92.7920 C.3    57  LYS57       0.0206
     31  CE        32.8060   45.2130  -91.6570 C.3    57  LYS57       0.1093
     32  NZ        31.4520   45.2330  -91.0710 N.3    57  LYS57      -0.1314
     33  N         33.5810   39.3660  -95.4390 N.am   58  HIS58      -0.1959
     34  CA        34.1050   38.4170  -96.4220 C.3    58  HIS58       0.1787
     35  C         33.1840   38.2970  -97.6400 C.2    58  HIS58       0.2621
     36  O         33.6800   38.1390  -98.7580 O.2    58  HIS58      -0.2715
     37  CB        34.3060   37.0320  -95.7910 C.3    58  HIS58       0.0785
     38  CG        34.9940   37.0600  -94.4640 C.ar   58  HIS58       0.0821
     39  ND1       34.3210   36.7410  -93.2970 N.ar   58  HIS58      -0.2267
     40  CD2       36.2750   37.3770  -94.1590 C.ar   58  HIS58       0.1154
     41  CE1       35.2110   36.8670  -92.3260 C.ar   58  HIS58       0.1986
     42  NE2       36.4000   37.2500  -92.7960 N.ar   58  HIS58      -0.2212
     43  N         31.8550   38.3520  -97.4200 N.am   59  SER59      -0.1936
     44  CA        30.8390   38.2470  -98.4680 C.3    59  SER59       0.2055
     45  C         30.2610   39.6230  -98.8420 C.2    59  SER59       0.2643
     46  O         30.1730   40.5100  -97.9900 O.2    59  SER59      -0.2714
     47  CB        29.7200   37.3110  -98.0190 C.3    59  SER59       0.2130
     48  OG        28.7250   37.1150  -99.0150 O.3    59  SER59      -0.2179
     49  N         29.8330   39.7750 -100.1220 N.am   60  CYS60      -0.1967
     50  CA        29.2440   40.9930 -100.7100 C.3    60  CYS60       0.1712
     51  C         27.7990   41.1940 -100.2180 C.2    60  CYS60       0.2296
     52  O         27.1350   42.1550 -100.6270 O.2    60  CYS60      -0.2864
     53  CB        29.3120   40.9470 -102.2380 C.3    60  CYS60       0.0983
     54  SG        28.3550   39.6040 -102.9910 S.3    60  CYS60      -0.0798
     55  N         25.0200   40.9070 -108.9520 N.3    96  TYR96      -0.1241
     56  CA        26.0760   39.9160 -108.7730 C.3    96  TYR96       0.1605
     57  C         25.4920   38.5350 -108.5640 C.2    96  TYR96       0.2264
     58  O         24.4700   38.3970 -107.8990 O.2    96  TYR96      -0.2867
     59  CB        26.9680   40.2650 -107.5530 C.3    96  TYR96       0.0534
     60  CG        27.5840   41.6530 -107.5410 C.ar   96  TYR96      -0.0201
     61  CD1       26.8060   42.7830 -107.2920 C.ar   96  TYR96      -0.0009
     62  CD2       28.9610   41.8270 -107.6540 C.ar   96  TYR96      -0.0009
     63  CE1       27.3670   44.0610 -107.2660 C.ar   96  TYR96       0.0417
     64  CE2       29.5360   43.1020 -107.6280 C.ar   96  TYR96       0.0417
     65  CZ        28.7350   44.2180 -107.4270 C.ar   96  TYR96       0.1957
     66  OH        29.2880   45.4800 -107.3880 O.3    96  TYR96      -0.2866
     67  N         22.7970   45.3890 -105.8610 N.3   127  VAL127     -0.1245
     68  CA        23.5090   46.3580 -105.0140 C.3   127  VAL127      0.1561
     69  C         23.2970   47.7920 -105.5420 C.2   127  VAL127      0.2260
     70  O         24.0560   48.2720 -106.3890 O.2   127  VAL127     -0.2867
     71  CB        25.0100   46.0110 -104.8520 C.3   127  VAL127      0.0252
     72  CG1       25.6480   46.8770 -103.7750 C.3   127  VAL127      0.0019
     73  CG2       25.2010   44.5420 -104.5070 C.3   127  VAL127      0.0019
     74  N         23.7820   51.4350 -105.5500 N.3   129  PHE129     -0.1241
     75  CA        24.7220   52.4410 -105.0500 C.3   129  PHE129      0.1605
     76  C         24.0460   53.8130 -105.0570 C.2   129  PHE129      0.2264
     77  O         23.7050   54.3360 -106.1230 O.2   129  PHE129     -0.2867
     78  CB        26.0380   52.4460 -105.8570 C.3   129  PHE129      0.0534
     79  CG        26.7430   51.1130 -105.9310 C.ar  129  PHE129     -0.0203
     80  CD1       27.5200   50.6560 -104.8700 C.ar  129  PHE129     -0.0042
     81  CD2       26.6470   50.3210 -107.0700 C.ar  129  PHE129     -0.0042
     82  CE1       28.1740   49.4200 -104.9390 C.ar  129  PHE129     -0.0003
     83  CE2       27.3080   49.0890 -107.1430 C.ar  129  PHE129     -0.0003
     84  CZ        28.0680   48.6470 -106.0780 C.ar  129  PHE129     -0.0000
     85  N         28.5200   57.2090  -99.5060 N.3   136  LEU136     -0.1245
     86  CA        27.6510   56.1340  -99.9990 C.3   136  LEU136      0.1561
     87  C         26.6830   55.6650  -98.9190 C.2   136  LEU136      0.2260
     88  O         27.1100   55.3150  -97.8180 O.2   136  LEU136     -0.2867
     89  CB        28.5020   54.9460 -100.4760 C.3   136  LEU136      0.0270
     90  CG        29.1070   55.0400 -101.8670 C.3   136  LEU136      0.0019
     91  CD1       30.5050   55.6270 -101.8250 C.3   136  LEU136      0.0001
     92  CD2       29.1720   53.6730 -102.4970 C.3   136  LEU136      0.0001
     93  N         25.2030   51.9110 -100.1120 N.3   137  ASN137     -0.1240
     94  CA        24.5130   50.9710 -100.9960 C.3   137  ASN137      0.1653
     95  C         23.4110   50.1960 -100.2740 C.2   137  ASN137      0.2266
     96  O         23.4220   50.0850  -99.0460 O.2   137  ASN137     -0.2867
     97  CB        25.4910   49.9900 -101.6680 C.3   137  ASN137      0.1155
     98  CG        26.0780   48.9410 -100.7540 C.2   137  ASN137      0.2627
     99  OD1       25.4940   47.8630 -100.5340 O.2   137  ASN137     -0.2716
    100  ND2       27.2570   49.2670 -100.2300 N.am  137  ASN137     -0.0877
    101  N         22.0120   46.5100 -100.5970 N.3   139  THR139     -0.1218
    102  CA        22.1950   45.1610 -101.1330 C.3   139  THR139      0.1862
    103  C         20.9490   44.3270 -100.8150 C.2   139  THR139      0.2287
    104  O         20.5040   44.3220  -99.6660 O.2   139  THR139     -0.2866
    105  CB        23.4720   44.5010 -100.5790 C.3   139  THR139      0.1770
    106  OG1       24.5980   45.3760 -100.7330 O.3   139  THR139     -0.2211
    107  CG2       23.7770   43.1750 -101.2620 C.3   139  THR139      0.0375
@<TRIPOS>BOND
     1    55    56    1
     2    56    57    1
     3    56    59    1
     4    57    58    2
     5    62    64   ar
     6    62    60   ar
     7    64    65   ar
     8    59    60    1
     9    60    61   ar
    10    65    66    1
    11    65    63   ar
    12    61    63   ar
    13    83    81   ar
    14    83    84   ar
    15    81    79   ar
    16    70    69    2
    17    77    76    2
    18    84    82   ar
    19    79    78    1
    20    79    80   ar
    21    67    68    1
    22    78    75    1
    23    74    75    1
    24    69    68    1
    25    76    75    1
    26    68    71    1
    27    82    80   ar
    28    71    73    1
    29    71    72    1
    30    54    53    1
    31    92    90    1
    32    53    50    1
    33    90    91    1
    34    90    89    1
    35    97    94    1
    36    97    98    1
    37   107   105    1
    38   102   103    1
    39   102   101    1
    40   102   105    1
    41    94    95    1
    42    94    93    1
    43   103   104    2
    44    98    99    2
    45    98   100   am
    46   106   105    1
    47    50    51    1
    48    50    49    1
    49    52    51    2
    50    89    86    1
    51    95    96    2
    52    49    45   am
    53    86    85    1
    54    86    87    1
    55    48    47    1
    56    87    88    2
    57    45    44    1
    58    45    46    2
    59    36    35    2
    60    44    47    1
    61    44    43    1
    62    35    43   am
    63    35    34    1
    64    14    13    1
    65    27    26    2
    66    34    37    1
    67    34    33    1
    68    15    13    1
    69    13    12    2
    70    37    38    1
    71    26    33   am
    72    26    25    1
    73    19    18    2
    74     4     3    2
    75    12    11    1
    76    11    10    1
    77    38    40   ar
    78    38    39   ar
    79    25    24    1
    80    25    28    1
    81    22    21    2
    82    18    24   am
    83    18    17    1
    84    21    20    1
    85    21    23   am
    86    20    17    1
    87    40    42   ar
    88    10     9    1
    89     3     2    1
    90    28    29    1
    91    17    16    1
    92    39    41   ar
    93    16     7   am
    94    42    41   ar
    95    30    29    1
    96    30    31    1
    97     2     1    1
    98     9     6    1
    99     7     6    1
   100     7     8    2
   101     6     5    1
   102    31    32    1
