@<TRIPOS>MOLECULE
tmp/3wo3J04.pdb
 78 75 0 0 0
SMALL
GASTEIGER

@<TRIPOS>ATOM
      1  N        -10.7690   16.9540  -73.3400 N.3   206  MET206     -0.1230
      2  CA       -11.5760   18.1280  -73.6660 C.3   206  MET206      0.1702
      3  C        -10.6080   19.2380  -73.9790 C.2   206  MET206      0.2592
      4  O         -9.8580   19.6640  -73.0990 O.2   206  MET206     -0.2718
      5  CB       -12.5460   18.5230  -72.5430 C.3   206  MET206      0.0401
      6  CG       -13.8390   17.7010  -72.5000 C.3   206  MET206      0.0596
      7  SD       -14.9060   17.7310  -73.9730 S.3   206  MET206     -0.1393
      8  CE       -15.0240   19.4970  -74.2830 C.3   206  MET206      0.0692
      9  N        -10.5580   19.6520  -75.2410 N.am  207  PHE207     -0.1962
     10  CA        -9.6120   20.6640  -75.6890 C.3   207  PHE207      0.1771
     11  C        -10.2740   21.7220  -76.5950 C.2   207  PHE207      0.2620
     12  O         -9.6180   22.2910  -77.4730 O.2   207  PHE207     -0.2715
     13  CB        -8.4410   19.9830  -76.3980 C.3   207  PHE207      0.0574
     14  CG        -8.8420   18.9610  -77.4430 C.ar  207  PHE207     -0.0200
     15  CD1       -9.0690   17.6370  -77.0950 C.ar  207  PHE207     -0.0042
     16  CD2       -8.9730   19.3180  -78.7770 C.ar  207  PHE207     -0.0042
     17  CE1       -9.4230   16.6890  -78.0650 C.ar  207  PHE207     -0.0003
     18  CE2       -9.3080   18.3650  -79.7440 C.ar  207  PHE207     -0.0003
     19  CZ        -9.5420   17.0590  -79.3800 C.ar  207  PHE207     -0.0000
     20  N        -11.5580   21.9830  -76.3550 N.am  208  GLY208     -0.1954
     21  CA       -12.3280   22.9990  -77.0650 C.3   208  GLY208      0.1869
     22  C        -12.8310   22.6880  -78.4650 C.2   208  GLY208      0.2309
     23  O        -12.7790   23.5610  -79.3390 O.2   208  GLY208     -0.2863
     24  N         -4.7740   27.8340  -70.4180 N.3   250  VAL250     -0.1231
     25  CA        -5.9990   27.1730  -70.8400 C.3   250  VAL250      0.1692
     26  C         -5.9810   25.7830  -70.2120 C.2   250  VAL250      0.2592
     27  O         -4.9450   25.0960  -70.2660 O.2   250  VAL250     -0.2718
     28  CB        -6.1240   27.1490  -72.3940 C.3   250  VAL250      0.0266
     29  CG1       -7.1940   26.1630  -72.8690 C.3   250  VAL250      0.0020
     30  CG2       -6.3990   28.5450  -72.9430 C.3   250  VAL250      0.0020
     31  N         -7.1200   25.3940  -69.5930 N.am  251  LEU251     -0.1966
     32  CA        -7.3040   24.0940  -68.9530 C.3   251  LEU251      0.1728
     33  C         -7.6550   23.0180  -69.9790 C.2   251  LEU251      0.2616
     34  O         -8.7660   23.0230  -70.5210 O.2   251  LEU251     -0.2715
     35  CB        -8.4160   24.1400  -67.8890 C.3   251  LEU251      0.0311
     36  CG        -8.1940   24.9800  -66.6600 C.3   251  LEU251      0.0022
     37  CD1       -9.0520   26.2270  -66.7040 C.3   251  LEU251      0.0001
     38  CD2       -8.5240   24.1950  -65.4290 C.3   251  LEU251      0.0001
     39  N         -6.7130   22.1010  -70.2500 N.am  252  TYR252     -0.1960
     40  CA        -6.9670   20.9590  -71.1190 C.3   252  TYR252      0.1771
     41  C         -7.3000   19.8160  -70.1920 C.2   252  TYR252      0.2619
     42  O         -6.5040   19.4920  -69.3000 O.2   252  TYR252     -0.2715
     43  CB        -5.7920   20.6750  -72.0490 C.3   252  TYR252      0.0574
     44  CG        -5.5810   21.7860  -73.0510 C.ar  252  TYR252     -0.0198
     45  CD1       -6.4580   21.9660  -74.1170 C.ar  252  TYR252     -0.0009
     46  CD2       -4.5140   22.6680  -72.9280 C.ar  252  TYR252     -0.0009
     47  CE1       -6.2750   22.9930  -75.0380 C.ar  252  TYR252      0.0417
     48  CE2       -4.3140   23.6930  -73.8480 C.ar  252  TYR252      0.0417
     49  CZ        -5.2020   23.8560  -74.8990 C.ar  252  TYR252      0.1957
     50  OH        -5.0090   24.8690  -75.8080 O.3   252  TYR252     -0.2866
     51  N         -8.5280   19.2980  -70.3000 N.am  253  ASN253     -0.1972
     52  CA        -9.0090   18.3000  -69.3560 C.3   253  ASN253      0.1688
     53  C         -9.0310   16.8880  -69.9200 C.2   253  ASN253      0.2292
     54  O         -9.3300   16.6790  -71.0880 O.2   253  ASN253     -0.2864
     55  CB       -10.4000   18.6840  -68.8440 C.3   253  ASN253      0.1181
     56  CG       -10.4620   20.0970  -68.3420 C.2   253  ASN253      0.2629
     57  OD1       -9.5420   20.5690  -67.6610 O.2   253  ASN253     -0.2716
     58  ND2      -11.5320   20.8080  -68.6960 N.am  253  ASN253     -0.0877
     59  N        -10.7670   13.2520  -69.0010 N.3   255  THR255     -0.1218
     60  CA       -11.7370   12.6180  -68.1220 C.3   255  THR255      0.1862
     61  C        -11.7790   11.1250  -68.3520 C.2   255  THR255      0.2287
     62  O        -11.5430   10.6520  -69.4640 O.2   255  THR255     -0.2866
     63  CB       -13.1630   13.2270  -68.2130 C.3   255  THR255      0.1770
     64  OG1      -14.0310   12.3310  -68.8980 O.3   255  THR255     -0.2211
     65  CG2      -13.2190   14.6170  -68.8310 C.3   255  THR255      0.0375
     66  N        -11.9790   13.7560  -63.5950 N.3   264  THR264     -0.1218
     67  CA       -11.3110   14.6250  -64.5650 C.3   264  THR264      0.1862
     68  C        -10.0480   15.2360  -63.9690 C.2   264  THR264      0.2287
     69  O        -10.0590   15.5990  -62.7970 O.2   264  THR264     -0.2866
     70  CB       -12.3030   15.7300  -64.9950 C.3   264  THR264      0.1770
     71  OG1      -13.4960   15.1300  -65.5040 O.3   264  THR264     -0.2211
     72  CG2      -11.7350   16.6730  -66.0310 C.3   264  THR264      0.0375
     73  N         -6.8420   18.2550  -64.9450 N.3   266  SER266     -0.1217
     74  CA        -6.5720   19.3960  -65.8230 C.3   266  SER266      0.1889
     75  C         -5.0970   19.6540  -66.0260 C.2   266  SER266      0.2288
     76  O         -4.2790   19.4420  -65.1270 O.2   266  SER266     -0.2866
     77  CB        -7.2210   20.6570  -65.2680 C.3   266  SER266      0.2089
     78  OG        -8.6300   20.5240  -65.1890 O.3   266  SER266     -0.2183
@<TRIPOS>BOND
     1    18    19   ar
     2    18    16   ar
     3    19    17   ar
     4    23    22    2
     5    16    14   ar
     6    22    21    1
     7    17    15   ar
     8    12    11    2
     9    14    15   ar
    10    14    13    1
    11    21    20    1
    12    11    20   am
    13    11    10    1
    14    13    10    1
    15    50    49    1
    16    10     9    1
    17     9     3   am
    18    47    49   ar
    19    47    45   ar
    20    49    48   ar
    21     8     7    1
    22    45    44   ar
    23     3     2    1
    24     3     4    2
    25     7     6    1
    26    48    46   ar
    27     2     1    1
    28     2     5    1
    29    44    46   ar
    30    44    43    1
    31    30    28    1
    32    29    28    1
    33     5     6    1
    34    28    25    1
    35    43    40    1
    36    40    39    1
    37    40    41    1
    38    54    53    2
    39    25    24    1
    40    25    26    1
    41    34    33    2
    42    51    41   am
    43    51    52    1
    44    27    26    2
    45    39    33   am
    46    26    31   am
    47    41    42    2
    48    33    32    1
    49    53    52    1
    50    31    32    1
    51    62    61    2
    52    52    55    1
    53    59    60    1
    54    32    35    1
    55    64    63    1
    56    55    56    1
    57    65    63    1
    58    58    56   am
    59    61    60    1
    60    56    57    2
    61    63    60    1
    62    35    36    1
    63    37    36    1
    64    36    38    1
    65    72    70    1
    66    75    74    1
    67    75    76    2
    68    74    77    1
    69    74    73    1
    70    71    70    1
    71    77    78    1
    72    70    67    1
    73    67    68    1
    74    67    66    1
    75    68    69    2
