@<TRIPOS>MOLECULE
tmp/3wo3F01.pdb
 120 114 0 0 0
SMALL
GASTEIGER

@<TRIPOS>ATOM
      1  N        -65.7850   49.1580  -35.8280 N.3    16  GLY16      -0.1225
      2  CA       -66.7500   49.5660  -36.8470 C.3    16  GLY16       0.1811
      3  C        -66.5650   48.9470  -38.2200 C.2    16  GLY16       0.2280
      4  O        -67.2010   49.3630  -39.2000 O.2    16  GLY16      -0.2866
      5  N        -66.5570   45.8270  -32.5960 N.3    61  GLU61      -0.1245
      6  CA       -66.4330   47.0400  -31.7740 C.3    61  GLU61       0.1567
      7  C        -65.4330   46.7900  -30.6440 C.2    61  GLU61       0.2260
      8  O        -65.1130   45.6370  -30.3660 O.2    61  GLU61      -0.2867
      9  CB       -67.7860   47.5400  -31.2580 C.3    61  GLU61       0.0388
     10  CG       -68.7640   47.9780  -32.3440 C.3    61  GLU61       0.1160
     11  CD       -68.5180   49.2940  -33.0690 C.2    61  GLU61       0.3649
     12  OE1      -67.4550   49.9200  -32.8480 O.co2  61  GLU61      -0.2457
     13  OE2      -69.3940   49.6980  -33.8700 O.co2  61  GLU61      -0.2457
     14  N        -60.6660   53.4700  -34.1370 N.3    86  ARG86      -0.1245
     15  CA       -60.6980   54.0230  -35.4880 C.3    86  ARG86       0.1563
     16  C        -60.2230   55.4750  -35.4820 C.2    86  ARG86       0.2260
     17  O        -60.6400   56.2610  -34.6270 O.2    86  ARG86      -0.2867
     18  CB       -62.1320   53.9170  -36.0840 C.3    86  ARG86       0.0307
     19  CG       -62.2420   54.2230  -37.5870 C.3    86  ARG86       0.0489
     20  CD       -63.6250   53.9660  -38.1870 C.3    86  ARG86       0.2205
     21  NE       -63.7460   52.6130  -38.7460 N.pl3  86  ARG86      -0.0865
     22  CZ       -63.3320   52.2380  -39.9590 C.cat  86  ARG86       0.5346
     23  NH1      -62.7410   53.1110  -40.7670 N.pl3  86  ARG86       0.1354
     24  NH2      -63.4910   50.9850  -40.3660 N.pl3  86  ARG86       0.1354
     25  N        -60.8850   58.5280  -36.7540 N.3    88  LYS88      -0.1231
     26  CA       -62.0430   59.1810  -37.3510 C.3    88  LYS88       0.1693
     27  C        -61.6710   60.5090  -38.0180 C.2    88  LYS88       0.2592
     28  O        -62.5310   61.1510  -38.6220 O.2    88  LYS88      -0.2718
     29  CB       -63.1480   59.3850  -36.2950 C.3    88  LYS88       0.0285
     30  CG       -63.7880   58.0840  -35.8040 C.3    88  LYS88       0.0035
     31  CD       -64.5070   58.2790  -34.4820 C.3    88  LYS88       0.0206
     32  CE       -65.1430   57.0150  -33.9560 C.3    88  LYS88       0.1093
     33  NZ       -65.8680   57.2480  -32.6740 N.3    88  LYS88      -0.1314
     34  N        -60.3950   60.9050  -37.9440 N.am   89  HIS89      -0.1962
     35  CA       -59.9160   62.1350  -38.5780 C.3    89  HIS89       0.1787
     36  C        -59.2880   61.8610  -39.9670 C.2    89  HIS89       0.2621
     37  O        -59.3060   62.7530  -40.8250 O.2    89  HIS89      -0.2715
     38  CB       -58.9530   62.8870  -37.6580 C.3    89  HIS89       0.0785
     39  CG       -59.6650   63.5330  -36.5130 C.ar   89  HIS89       0.0821
     40  ND1      -59.3470   63.2280  -35.2020 N.ar   89  HIS89      -0.2267
     41  CD2      -60.7030   64.4060  -36.5240 C.ar   89  HIS89       0.1154
     42  CE1      -60.1720   63.9490  -34.4600 C.ar   89  HIS89       0.1986
     43  NE2      -61.0130   64.6680  -35.2130 N.ar   89  HIS89      -0.2212
     44  N        -58.7730   60.6280  -40.1880 N.am   90  SER90      -0.1936
     45  CA       -58.2560   60.1690  -41.4670 C.3    90  SER90       0.2055
     46  C        -59.3200   59.3190  -42.1460 C.2    90  SER90       0.2643
     47  O        -60.4890   59.3480  -41.7530 O.2    90  SER90      -0.2714
     48  CB       -56.9790   59.3660  -41.2690 C.3    90  SER90       0.2130
     49  OG       -56.4380   58.9790  -42.5210 O.3    90  SER90      -0.2179
     50  N        -58.9260   58.6040  -43.1990 N.am   91  CYS91      -0.1967
     51  CA       -59.7750   57.6710  -43.9370 C.3    91  CYS91       0.1712
     52  C        -59.3260   56.2450  -43.6070 C.2    91  CYS91       0.2296
     53  O        -59.9190   55.2920  -44.1120 O.2    91  CYS91      -0.2864
     54  CB       -59.7400   57.9510  -45.4400 C.3    91  CYS91       0.0983
     55  SG       -58.1020   57.7750  -46.1950 S.3    91  CYS91      -0.0798
     56  N        -57.8850   54.9710  -52.5230 N.3   127  TYR127     -0.1241
     57  CA       -57.4300   56.3120  -52.1810 C.3   127  TYR127      0.1605
     58  C        -55.9280   56.3390  -51.9590 C.2   127  TYR127      0.2264
     59  O        -55.3750   55.3930  -51.4100 O.2   127  TYR127     -0.2867
     60  CB       -58.1250   56.8190  -50.9020 C.3   127  TYR127      0.0534
     61  CG       -59.6400   56.7900  -50.8990 C.ar  127  TYR127     -0.0201
     62  CD1      -60.3350   55.5850  -50.7940 C.ar  127  TYR127     -0.0009
     63  CD2      -60.3790   57.9690  -50.8600 C.ar  127  TYR127     -0.0009
     64  CE1      -61.7310   55.5480  -50.7600 C.ar  127  TYR127      0.0417
     65  CE2      -61.7740   57.9470  -50.8050 C.ar  127  TYR127      0.0417
     66  CZ       -62.4450   56.7310  -50.7500 C.ar  127  TYR127      0.1957
     67  OH       -63.8180   56.6690  -50.6980 O.3   127  TYR127     -0.2866
     68  N        -60.9910   50.7420  -50.0010 N.3   158  VAL158     -0.1245
     69  CA       -62.1970   50.8140  -49.1830 C.3   158  VAL158      0.1561
     70  C        -63.3130   50.0590  -49.8830 C.2   158  VAL158      0.2260
     71  O        -63.8160   50.5270  -50.9030 O.2   158  VAL158     -0.2867
     72  CB       -62.6190   52.2550  -48.8190 C.3   158  VAL158      0.0252
     73  CG1      -63.8030   52.2330  -47.8680 C.3   158  VAL158      0.0019
     74  CG2      -61.4630   53.0260  -48.1960 C.3   158  VAL158      0.0019
     75  N        -66.9910   49.0350  -49.8860 N.3   160  PHE160     -0.1241
     76  CA       -68.3100   49.4090  -49.3580 C.3   160  PHE160      0.1605
     77  C        -69.3130   48.2940  -49.5760 C.2   160  PHE160      0.2264
     78  O        -69.5330   47.8530  -50.7090 O.2   160  PHE160     -0.2867
     79  CB       -68.8420   50.7090  -49.9890 C.3   160  PHE160      0.0534
     80  CG       -67.9150   51.8960  -49.8850 C.ar  160  PHE160     -0.0203
     81  CD1      -67.8580   52.6530  -48.7210 C.ar  160  PHE160     -0.0042
     82  CD2      -67.1200   52.2730  -50.9610 C.ar  160  PHE160     -0.0042
     83  CE1      -67.0070   53.7570  -48.6330 C.ar  160  PHE160     -0.0003
     84  CE2      -66.2680   53.3750  -50.8700 C.ar  160  PHE160     -0.0003
     85  CZ       -66.2150   54.1090  -49.7080 C.ar  160  PHE160     -0.0000
     86  N        -77.9410   47.8580  -43.3900 N.3   166  LYS166     -0.1245
     87  CA       -76.8740   48.7550  -42.9500 C.3   166  LYS166      0.1561
     88  C        -75.7020   48.7120  -43.9040 C.2   166  LYS166      0.2260
     89  O        -75.3930   47.6390  -44.4190 O.2   166  LYS166     -0.2867
     90  CB       -76.4180   48.4060  -41.5220 C.3   166  LYS166      0.0271
     91  CG       -76.7420   49.4970  -40.4970 C.3   166  LYS166      0.0035
     92  CD       -75.6520   49.7080  -39.4520 C.3   166  LYS166      0.0206
     93  CE       -74.5160   50.5860  -39.9550 C.3   166  LYS166      0.1093
     94  NZ       -73.3630   50.6480  -39.0060 N.3   166  LYS166     -0.1314
     95  N        -71.5710   49.3780  -44.5340 N.3   168  PHE168     -0.1227
     96  CA       -70.2720   49.2070  -43.8810 C.3   168  PHE168      0.1736
     97  C        -69.1640   49.2630  -44.8960 C.2   168  PHE168      0.2595
     98  O        -69.4190   49.2300  -46.1030 O.2   168  PHE168     -0.2718
     99  CB       -70.2000   47.8470  -43.1760 C.3   168  PHE168      0.0547
    100  CG       -71.1740   47.6350  -42.0500 C.ar  168  PHE168     -0.0202
    101  CD1      -70.8770   48.0680  -40.7630 C.ar  168  PHE168     -0.0042
    102  CD2      -72.3670   46.9520  -42.2590 C.ar  168  PHE168     -0.0042
    103  CE1      -71.7730   47.8540  -39.7140 C.ar  168  PHE168     -0.0003
    104  CE2      -73.2560   46.7300  -41.2060 C.ar  168  PHE168     -0.0003
    105  CZ       -72.9560   47.1900  -39.9430 C.ar  168  PHE168     -0.0000
    106  N        -67.9160   49.2920  -44.4100 N.am  169  ASN169     -0.1974
    107  CA       -66.7610   49.2450  -45.2890 C.3   169  ASN169      0.1688
    108  C        -65.6140   48.4900  -44.6350 C.2   169  ASN169      0.2292
    109  O        -65.5330   48.3830  -43.4110 O.2   169  ASN169     -0.2864
    110  CB       -66.3200   50.6290  -45.7650 C.3   169  ASN169      0.1181
    111  CG       -65.6230   51.4710  -44.7340 C.2   169  ASN169      0.2629
    112  OD1      -64.4030   51.3790  -44.5290 O.2   169  ASN169     -0.2716
    113  ND2      -66.4080   52.3160  -44.0990 N.am  169  ASN169     -0.0877
    114  N        -61.6980   48.8410  -44.9240 N.3   171  THR171     -0.1218
    115  CA       -60.5620   49.6520  -45.3660 C.3   171  THR171      0.1862
    116  C        -59.2980   48.8490  -45.1540 C.2   171  THR171      0.2287
    117  O        -59.1060   48.3050  -44.0660 O.2   171  THR171     -0.2866
    118  CB       -60.5110   51.0120  -44.6380 C.3   171  THR171      0.1770
    119  OG1      -61.7950   51.6730  -44.7100 O.3   171  THR171     -0.2211
    120  CG2      -59.4260   51.9330  -45.1950 C.3   171  THR171      0.0375
@<TRIPOS>BOND
     1    56    57    1
     2    57    58    1
     3    57    60    1
     4    58    59    2
     5    82    84   ar
     6    82    80   ar
     7    71    70    2
     8    60    61    1
     9    61    63   ar
    10    61    62   ar
    11    84    85   ar
    12    63    65   ar
    13    65    66   ar
    14    62    64   ar
    15    64    66   ar
    16    66    67    1
    17    78    77    2
    18    68    69    1
    19    79    80    1
    20    79    76    1
    21    75    76    1
    22    80    81   ar
    23    70    69    1
    24    85    83   ar
    25    77    76    1
    26    69    72    1
    27    72    74    1
    28    72    73    1
    29    81    83   ar
    30    55    54    1
    31    98    97    2
    32   110   107    1
    33   110   111    1
    34    54    51    1
    35   115   116    1
    36   115   114    1
    37   115   118    1
    38   107   108    1
    39   107   106    1
    40   120   118    1
    41   116   117    2
    42    97   106   am
    43    97    96    1
    44   111   112    2
    45   111   113   am
    46   119   118    1
    47   108   109    2
    48    95    96    1
    49    89    88    2
    50    53    52    2
    51    51    52    1
    52    51    50    1
    53    88    87    1
    54    96    99    1
    55    86    87    1
    56    50    46   am
    57    99   100    1
    58    87    90    1
    59    49    48    1
    60   102   100   ar
    61   102   104   ar
    62    46    47    2
    63    46    45    1
    64   100   101   ar
    65    90    91    1
    66    45    48    1
    67    45    44    1
    68   104   105   ar
    69    37    36    2
    70    23    22    1
    71   101   103   ar
    72    91    92    1
    73    24    22    1
    74    44    36   am
    75    36    35    1
    76    22    21    2
    77    93    92    1
    78    93    94    1
    79   105   103   ar
    80     4     3    2
    81    21    20    1
    82    28    27    2
    83    35    34    1
    84    35    38    1
    85     3     2    1
    86    20    19    1
    87    27    34   am
    88    27    26    1
    89    38    39    1
    90    19    18    1
    91    26    25    1
    92    26    29    1
    93     2     1    1
    94    41    39   ar
    95    41    43   ar
    96    39    40   ar
    97    29    30    1
    98    18    15    1
    99    30    31    1
   100    15    16    1
   101    15    14    1
   102    16    17    2
   103    43    42   ar
   104    40    42   ar
   105    31    32    1
   106    32    33    1
   107    13    11   ar
   108    11    12   ar
   109    11    10    1
   110     5     6    1
   111    10     9    1
   112     6     9    1
   113     6     7    1
   114     7     8    2
