@<TRIPOS>MOLECULE
tmp/3wo4B01.pdb
 119 115 0 0 0
SMALL
GASTEIGER

@<TRIPOS>ATOM
      1  N        -39.0300  -11.0570  -22.7110 N.3    15  GLU15      -0.1231
      2  CA       -38.8930  -11.3320  -24.1400 C.3    15  GLU15       0.1699
      3  C        -38.3000  -10.1360  -24.8960 C.2    15  GLU15       0.2592
      4  O        -38.6700   -8.9910  -24.6240 O.2    15  GLU15      -0.2718
      5  CB       -40.2570  -11.7290  -24.7440 C.3    15  GLU15       0.0402
      6  CG       -41.4210  -10.8210  -24.3630 C.3    15  GLU15       0.1161
      7  CD       -42.3640  -10.4200  -25.4810 C.2    15  GLU15       0.3649
      8  OE1      -41.9860  -10.5260  -26.6720 O.co2  15  GLU15      -0.2457
      9  OE2      -43.4890   -9.9790  -25.1550 O.co2  15  GLU15      -0.2457
     10  N        -37.3830  -10.4270  -25.8240 N.am   16  GLY16      -0.1957
     11  CA       -36.7140   -9.4360  -26.6690 C.3    16  GLY16       0.1869
     12  C        -35.4270   -8.8650  -26.1010 C.2    16  GLY16       0.2309
     13  O        -34.8520   -7.9390  -26.6840 O.2    16  GLY16      -0.2863
     14  N        -43.3480   -8.5190  -22.4770 N.3    97  ARG97      -0.1245
     15  CA       -42.8130   -7.1500  -22.4820 C.3    97  ARG97       0.1563
     16  C        -43.9410   -6.1040  -22.4500 C.2    97  ARG97       0.2260
     17  O        -44.8840   -6.1890  -23.2490 O.2    97  ARG97      -0.2867
     18  CB       -41.9050   -6.9320  -23.7250 C.3    97  ARG97       0.0307
     19  CG       -41.2090   -5.5620  -23.7910 C.3    97  ARG97       0.0489
     20  CD       -40.1330   -5.4690  -24.8650 C.3    97  ARG97       0.2205
     21  NE       -38.9390   -6.2510  -24.5310 N.pl3  97  ARG97      -0.0865
     22  CZ       -37.9270   -5.8130  -23.7840 C.cat  97  ARG97       0.5346
     23  NH1      -37.9480   -4.5860  -23.2750 N.pl3  97  ARG97       0.1354
     24  NH2      -36.8910   -6.6010  -23.5330 N.pl3  97  ARG97       0.1354
     25  N        -45.1910   -3.3320  -23.7850 N.3    99  LYS99      -0.1231
     26  CA       -45.0560   -2.6200  -25.0580 C.3    99  LYS99       0.1693
     27  C        -45.5010   -1.1610  -24.9510 C.2    99  LYS99       0.2592
     28  O        -44.8920   -0.3000  -25.5830 O.2    99  LYS99      -0.2718
     29  CB       -45.8420   -3.3410  -26.1540 C.3    99  LYS99       0.0285
     30  CG       -45.5370   -4.8170  -26.1430 C.3    99  LYS99       0.0035
     31  CD       -44.2990   -4.9020  -27.0310 C.3    99  LYS99       0.0206
     32  CE       -44.3500   -6.3050  -27.6120 C.3    99  LYS99       0.1093
     33  NZ       -43.8210   -7.3210  -26.6580 N.3    99  LYS99      -0.1314
     34  N        -46.5280   -0.8760  -24.1320 N.am  100  HIS100     -0.1962
     35  CA       -47.0060    0.4850  -23.8970 C.3   100  HIS100      0.1787
     36  C        -46.2380    1.0960  -22.7080 C.2   100  HIS100      0.2621
     37  O        -46.8350    1.7240  -21.8300 O.2   100  HIS100     -0.2715
     38  CB       -48.5250    0.4810  -23.6710 C.3   100  HIS100      0.0785
     39  CG       -49.2930    0.2180  -24.9220 C.ar  100  HIS100      0.0821
     40  ND1      -49.2660   -1.0210  -25.5380 N.ar  100  HIS100     -0.2267
     41  CD2      -50.0640    1.0540  -25.6550 C.ar  100  HIS100      0.1154
     42  CE1      -50.0210   -0.9020  -26.6190 C.ar  100  HIS100      0.1986
     43  NE2      -50.5260    0.3270  -26.7310 N.ar  100  HIS100     -0.2212
     44  N        -44.8960    0.8810  -22.6900 N.am  101  SER101     -0.1936
     45  CA       -43.9250    1.3410  -21.6830 C.3   101  SER101      0.2055
     46  C        -42.4610    1.0780  -22.1470 C.2   101  SER101      0.2643
     47  O        -42.2360    0.5680  -23.2520 O.2   101  SER101     -0.2714
     48  CB       -44.1830    0.6730  -20.3360 C.3   101  SER101      0.2130
     49  OG       -43.3560    1.2540  -19.3460 O.3   101  SER101     -0.2179
     50  N        -41.4790    1.4560  -21.3020 N.am  102  CYS102     -0.1967
     51  CA       -40.0490    1.3000  -21.5740 C.3   102  CYS102      0.1712
     52  C        -39.4670    0.1600  -20.7410 C.2   102  CYS102      0.2296
     53  O        -38.3970   -0.3600  -21.0630 O.2   102  CYS102     -0.2864
     54  CB       -39.3190    2.6090  -21.3010 C.3   102  CYS102      0.0983
     55  SG       -39.0780    2.9650  -19.5410 S.3   102  CYS102     -0.0798
     56  N        -33.2460    6.3060  -17.1990 N.3   138  TYR138     -0.1241
     57  CA       -34.6190    6.7970  -17.3030 C.3   138  TYR138      0.1605
     58  C        -35.3050    6.8780  -15.9540 C.2   138  TYR138      0.2264
     59  O        -35.2520    5.9260  -15.1790 O.2   138  TYR138     -0.2867
     60  CB       -35.4630    5.9040  -18.2350 C.3   138  TYR138      0.0534
     61  CG       -35.0280    5.9000  -19.6830 C.ar  138  TYR138     -0.0201
     62  CD1      -33.9290    5.1570  -20.0980 C.ar  138  TYR138     -0.0009
     63  CD2      -35.7660    6.5690  -20.6550 C.ar  138  TYR138     -0.0009
     64  CE1      -33.5270    5.1380  -21.4290 C.ar  138  TYR138      0.0417
     65  CE2      -35.3890    6.5320  -22.0010 C.ar  138  TYR138      0.0417
     66  CZ       -34.2690    5.8070  -22.3830 C.ar  138  TYR138      0.1957
     67  OH       -33.8600    5.7400  -23.6910 O.3   138  TYR138     -0.2866
     68  N        -30.9410    1.3020  -19.2740 N.3   169  VAL169     -0.1245
     69  CA       -30.8880    0.6000  -20.5650 C.3   169  VAL169      0.1561
     70  C        -29.4510    0.5740  -21.1720 C.2   169  VAL169      0.2260
     71  O        -28.7090    1.5570  -21.0870 O.2   169  VAL169     -0.2867
     72  CB       -31.9450    1.1800  -21.5480 C.3   169  VAL169      0.0252
     73  CG1      -31.6170    2.6020  -21.9500 C.3   169  VAL169      0.0019
     74  CG2      -32.1380    0.3010  -22.7750 C.3   169  VAL169      0.0019
     75  N        -27.8380   -0.4090  -24.8140 N.3   171  PHE171     -0.1241
     76  CA       -27.9890   -0.6970  -26.2380 C.3   171  PHE171      0.1605
     77  C        -26.7290   -1.3570  -26.7900 C.2   171  PHE171      0.2264
     78  O        -25.6160   -0.8920  -26.5500 O.2   171  PHE171     -0.2867
     79  CB       -28.3150    0.5810  -27.0250 C.3   171  PHE171      0.0534
     80  CG       -29.4970    1.3640  -26.5110 C.ar  171  PHE171     -0.0203
     81  CD1      -30.7950    0.9980  -26.8490 C.ar  171  PHE171     -0.0042
     82  CD2      -29.3140    2.4860  -25.7130 C.ar  171  PHE171     -0.0042
     83  CE1      -31.8890    1.7360  -26.3860 C.ar  171  PHE171     -0.0003
     84  CE2      -30.4060    3.2280  -25.2580 C.ar  171  PHE171     -0.0003
     85  CZ       -31.6870    2.8440  -25.5910 C.ar  171  PHE171     -0.0000
     86  N        -29.8170   -4.5590  -33.5420 N.3   178  LEU178     -0.1231
     87  CA       -29.6920   -3.8220  -32.2810 C.3   178  LEU178      0.1693
     88  C        -30.6530   -4.3930  -31.2310 C.2   178  LEU178      0.2592
     89  O        -31.8430   -4.5750  -31.4990 O.2   178  LEU178     -0.2718
     90  CB       -29.9280   -2.3080  -32.4560 C.3   178  LEU178      0.0284
     91  CG       -30.2740   -1.5510  -31.1590 C.3   178  LEU178      0.0019
     92  CD1      -29.1440   -0.6660  -30.6930 C.3   178  LEU178      0.0001
     93  CD2      -31.5950   -0.8300  -31.2640 C.3   178  LEU178      0.0001
     94  N        -30.1210   -4.6380  -30.0260 N.am  179  PHE179     -0.1962
     95  CA       -30.8460   -5.1290  -28.8570 C.3   179  PHE179      0.1771
     96  C        -30.6050   -4.1950  -27.6910 C.2   179  PHE179      0.2619
     97  O        -29.7740   -3.2890  -27.8030 O.2   179  PHE179     -0.2715
     98  CB       -30.3720   -6.5380  -28.4870 C.3   179  PHE179      0.0574
     99  CG       -30.5270   -7.6000  -29.5410 C.ar  179  PHE179     -0.0200
    100  CD1      -31.6720   -8.3800  -29.5980 C.ar  179  PHE179     -0.0042
    101  CD2      -29.4950   -7.8730  -30.4300 C.ar  179  PHE179     -0.0042
    102  CE1      -31.7960   -9.3940  -30.5450 C.ar  179  PHE179     -0.0003
    103  CE2      -29.6240   -8.8810  -31.3820 C.ar  179  PHE179     -0.0003
    104  CZ       -30.7720   -9.6390  -31.4300 C.ar  179  PHE179     -0.0000
    105  N        -31.3000   -4.4200  -26.5620 N.am  180  ASN180     -0.1972
    106  CA       -31.0850   -3.6230  -25.3600 C.3   180  ASN180      0.1688
    107  C        -31.3620   -4.4350  -24.0850 C.2   180  ASN180      0.2292
    108  O        -32.2650   -5.2760  -24.0610 O.2   180  ASN180     -0.2864
    109  CB       -31.8990   -2.3210  -25.3810 C.3   180  ASN180      0.1181
    110  CG       -33.3860   -2.4610  -25.1760 C.2   180  ASN180      0.2629
    111  OD1      -33.8680   -2.5820  -24.0410 O.2   180  ASN180     -0.2716
    112  ND2      -34.1310   -2.4120  -26.2750 N.am  180  ASN180     -0.0877
    113  N        -32.4340   -3.8090  -20.2850 N.3   182  THR182     -0.1218
    114  CA       -33.0730   -2.8050  -19.4310 C.3   182  THR182      0.1862
    115  C        -33.2550   -3.3770  -18.0280 C.2   182  THR182      0.2287
    116  O        -33.8470   -4.4480  -17.8940 O.2   182  THR182     -0.2866
    117  CB       -34.4270   -2.3570  -20.0510 C.3   182  THR182      0.1770
    118  OG1      -34.4810   -2.6470  -21.4560 O.3   182  THR182     -0.2211
    119  CG2      -34.7310   -0.8950  -19.8010 C.3   182  THR182      0.0375
@<TRIPOS>BOND
     1    86    87    1
     2    90    87    1
     3    90    91    1
     4    87    88    1
     5    89    88    2
     6   104   103   ar
     7   104   102   ar
     8   103   101   ar
     9    93    91    1
    10    88    94   am
    11    91    92    1
    12   102   100   ar
    13   101    99   ar
    14    94    95    1
    15   100    99   ar
    16    99    98    1
    17    95    98    1
    18    95    96    1
    19    97    96    2
    20    96   105   am
    21    32    31    1
    22    32    33    1
    23    31    30    1
    24    79    80    1
    25    79    76    1
    26    81    80   ar
    27    81    83   ar
    28    77    78    2
    29    77    76    1
    30    43    42   ar
    31    43    41   ar
    32    13    12    2
    33     8     7   ar
    34    11    12    1
    35    11    10    1
    36    42    40   ar
    37   105   106    1
    38    80    82   ar
    39    83    85   ar
    40   112   110   am
    41    76    75    1
    42    29    30    1
    43    29    26    1
    44    10     3   am
    45    82    84   ar
    46    41    39   ar
    47    85    84   ar
    48    28    27    2
    49    40    39   ar
    50     7     9   ar
    51     7     6    1
    52   109   106    1
    53   109   110    1
    54   106   107    1
    55   110   111    2
    56    26    27    1
    57    26    25    1
    58    27    34   am
    59    39    38    1
    60     3     4    2
    61     3     2    1
    62    20    21    1
    63    20    19    1
    64     5     6    1
    65     5     2    1
    66    21    22    2
    67     2     1    1
    68    34    35    1
    69   107   108    2
    70    35    38    1
    71    35    36    1
    72    19    18    1
    73    22    24    1
    74    22    23    1
    75    18    15    1
    76    67    66    1
    77    47    46    2
    78    17    16    2
    79    74    72    1
    80    36    44   am
    81    36    37    2
    82    44    45    1
    83    15    14    1
    84    15    16    1
    85    66    65   ar
    86    66    64   ar
    87    46    45    1
    88    46    50   am
    89    65    63   ar
    90    73    72    1
    91    45    48    1
    92    51    50    1
    93    51    54    1
    94    51    52    1
    95    72    69    1
    96   118   117    1
    97    64    62   ar
    98    54    55    1
    99    70    71    2
   100    70    69    1
   101    53    52    2
   102    63    61   ar
   103    69    68    1
   104    48    49    1
   105   113   114    1
   106    62    61   ar
   107   117   119    1
   108   117   114    1
   109    61    60    1
   110   114   115    1
   111    60    57    1
   112   115   116    2
   113    57    56    1
   114    57    58    1
   115    58    59    2
