@<TRIPOS>MOLECULE
tmp/3wo6A00.pdb
 88 87 0 0 0
SMALL
GASTEIGER

@<TRIPOS>ATOM
      1  N         65.7020   25.6820   56.8790 N.3   154  PHE154     -0.1241
      2  CA        65.0670   26.1820   58.0940 C.3   154  PHE154      0.1605
      3  C         64.3780   25.0580   58.8560 C.2   154  PHE154      0.2264
      4  O         64.3730   25.0430   60.0870 O.2   154  PHE154     -0.2867
      5  CB        64.0750   27.2990   57.7710 C.3   154  PHE154      0.0534
      6  CG        64.7300   28.5930   57.3920 C.ar  154  PHE154     -0.0203
      7  CD1       65.0440   28.8660   56.0730 C.ar  154  PHE154     -0.0042
      8  CD2       65.0420   29.5340   58.3590 C.ar  154  PHE154     -0.0042
      9  CE1       65.6500   30.0550   55.7210 C.ar  154  PHE154     -0.0003
     10  CE2       65.6500   30.7260   58.0140 C.ar  154  PHE154     -0.0003
     11  CZ        65.9550   30.9870   56.6940 C.ar  154  PHE154     -0.0000
     12  N         66.9280   23.2410   60.7220 N.3   157  GLY157     -0.1210
     13  CA        67.3240   23.9940   61.8970 C.3   157  GLY157      0.1956
     14  C         66.2970   23.8970   63.0090 C.2   157  GLY157      0.2611
     15  O         66.6450   23.7940   64.1860 O.2   157  GLY157     -0.2717
     16  N         65.0240   23.9340   62.6320 N.am  158  ILE158     -0.1979
     17  CA        63.9390   23.8200   63.5960 C.3   158  ILE158      0.1595
     18  C         63.9230   22.4350   64.2420 C.2   158  ILE158      0.2287
     19  O         63.8140   22.3100   65.4620 O.2   158  ILE158     -0.2864
     20  CB        62.5760   24.1180   62.9370 C.3   158  ILE158      0.0276
     21  CG1       62.4800   25.6010   62.5650 C.3   158  ILE158      0.0022
     22  CG2       61.4390   23.7360   63.8650 C.3   158  ILE158      0.0022
     23  CD1       61.2070   25.9730   61.8290 C.3   158  ILE158      0.0001
     24  N         66.6930   22.0300   66.6850 N.3   161  TYR161     -0.1227
     25  CA        66.3470   22.6960   67.9370 C.3   161  TYR161      0.1736
     26  C         65.4780   21.8110   68.8280 C.2   161  TYR161      0.2595
     27  O         65.7710   21.6320   70.0110 O.2   161  TYR161     -0.2718
     28  CB        65.6290   24.0190   67.6530 C.3   161  TYR161      0.0548
     29  CG        65.0340   24.6790   68.8790 C.ar  161  TYR161     -0.0200
     30  CD1       63.7000   24.4880   69.2170 C.ar  161  TYR161     -0.0009
     31  CD2       65.8050   25.4970   69.6940 C.ar  161  TYR161     -0.0009
     32  CE1       63.1520   25.0890   70.3360 C.ar  161  TYR161      0.0417
     33  CE2       65.2660   26.1040   70.8140 C.ar  161  TYR161      0.0417
     34  CZ        63.9400   25.8960   71.1300 C.ar  161  TYR161      0.1957
     35  OH        63.3990   26.4970   72.2420 O.3   161  TYR161     -0.2866
     36  N         64.4090   21.2630   68.2570 N.am  162  PHE162     -0.1976
     37  CA        63.4780   20.4330   69.0170 C.3   162  PHE162      0.1639
     38  C         64.0660   19.0690   69.3660 C.2   162  PHE162      0.2290
     39  O         63.6170   18.4140   70.3060 O.2   162  PHE162     -0.2864
     40  CB        62.1460   20.2750   68.2750 C.3   162  PHE162      0.0560
     41  CG        61.2830   21.5040   68.3140 C.ar  162  PHE162     -0.0200
     42  CD1       60.6390   21.8750   69.4840 C.ar  162  PHE162     -0.0042
     43  CD2       61.1130   22.2860   67.1850 C.ar  162  PHE162     -0.0042
     44  CE1       59.8450   23.0060   69.5270 C.ar  162  PHE162     -0.0003
     45  CE2       60.3190   23.4180   67.2220 C.ar  162  PHE162     -0.0003
     46  CZ        59.6840   23.7780   68.3950 C.ar  162  PHE162     -0.0000
     47  N         71.1400   24.6450   71.6530 N.3   178  LEU178     -0.1231
     48  CA        69.8210   25.1630   71.3000 C.3   178  LEU178      0.1693
     49  C         69.8520   26.3500   70.3390 C.2   178  LEU178      0.2592
     50  O         68.9390   26.5190   69.5300 O.2   178  LEU178     -0.2718
     51  CB        69.0350   25.5440   72.5570 C.3   178  LEU178      0.0284
     52  CG        68.5010   24.3970   73.4160 C.3   178  LEU178      0.0019
     53  CD1       67.7480   24.9390   74.6220 C.3   178  LEU178      0.0001
     54  CD2       67.6080   23.4880   72.5860 C.3   178  LEU178      0.0001
     55  N         70.8890   27.1760   70.4320 N.am  179  TYR179     -0.1976
     56  CA        70.9300   28.4180   69.6650 C.3   179  TYR179      0.1639
     57  C         71.9900   28.4200   68.5700 C.2   179  TYR179      0.2290
     58  O         71.6910   28.7100   67.4130 O.2   179  TYR179     -0.2864
     59  CB        71.1290   29.6140   70.5970 C.3   179  TYR179      0.0560
     60  CG        70.0680   29.7300   71.6660 C.ar  179  TYR179     -0.0198
     61  CD1       68.7530   29.3610   71.4090 C.ar  179  TYR179     -0.0009
     62  CD2       70.3810   30.1990   72.9340 C.ar  179  TYR179     -0.0009
     63  CE1       67.7800   29.4600   72.3820 C.ar  179  TYR179      0.0417
     64  CE2       69.4130   30.3030   73.9140 C.ar  179  TYR179      0.0417
     65  CZ        68.1150   29.9320   73.6320 C.ar  179  TYR179      0.1957
     66  OH        67.1490   30.0340   74.6060 O.3   179  TYR179     -0.2866
     67  N         71.4940   25.1880   65.6160 N.3   182  PRO182     -0.2102
     68  CA        70.5110   25.2880   64.5290 C.3   182  PRO182      0.1504
     69  C         70.8600   26.3560   63.4960 C.2   182  PRO182      0.2575
     70  O         70.5410   26.1850   62.3200 O.2   182  PRO182     -0.2718
     71  CB        69.2200   25.6750   65.2600 C.3   182  PRO182      0.0282
     72  CG        69.4160   25.2000   66.6500 C.3   182  PRO182      0.0208
     73  CD        70.8680   25.4390   66.9260 C.3   182  PRO182      0.0893
     74  N         71.5010   27.4370   63.9290 N.am  183  VAL183     -0.1980
     75  CA        71.9080   28.5010   63.0160 C.3   183  VAL183      0.1595
     76  C         73.0100   28.0300   62.0650 C.2   183  VAL183      0.2287
     77  O         73.0100   28.3750   60.8830 O.2   183  VAL183     -0.2864
     78  CB        72.3700   29.7550   63.7870 C.3   183  VAL183      0.0276
     79  CG1       72.8720   30.8260   62.8280 C.3   183  VAL183      0.0022
     80  CG2       71.2310   30.2920   64.6360 C.3   183  VAL183      0.0022
     81  N         71.2850   25.9210   59.3650 N.3   186  ILE186     -0.1245
     82  CA        70.5770   26.7280   58.3770 C.3   186  ILE186      0.1561
     83  C         71.5500   27.3550   57.3820 C.2   186  ILE186      0.2260
     84  O         71.3470   27.2730   56.1710 O.2   186  ILE186     -0.2867
     85  CB        69.7320   27.8380   59.0370 C.3   186  ILE186      0.0252
     86  CG1       68.6500   27.2270   59.9290 C.3   186  ILE186      0.0019
     87  CG2       69.0960   28.7280   57.9780 C.3   186  ILE186      0.0019
     88  CD1       67.8480   28.2510   60.7010 C.3   186  ILE186      0.0001
@<TRIPOS>BOND
     1     9     7   ar
     2     9    11   ar
     3     7     6   ar
     4    84    83    2
     5    11    10   ar
     6     1     2    1
     7    83    82    1
     8     6     5    1
     9     6     8   ar
    10     5     2    1
    11    87    85    1
    12    10     8   ar
    13     2     3    1
    14    82    85    1
    15    82    81    1
    16     3     4    2
    17    85    86    1
    18    86    88    1
    19    12    13    1
    20    77    76    2
    21    23    21    1
    22    13    14    1
    23    76    75    1
    24    70    69    2
    25    21    20    1
    26    16    14   am
    27    16    17    1
    28    79    78    1
    29    20    17    1
    30    20    22    1
    31    14    15    2
    32    75    78    1
    33    75    74    1
    34    69    74   am
    35    69    68    1
    36    17    18    1
    37    78    80    1
    38    18    19    2
    39    68    71    1
    40    68    67    1
    41    71    72    1
    42    67    73    1
    43    72    73    1
    44    24    25    1
    45    43    45   ar
    46    43    41   ar
    47    45    46   ar
    48    58    57    2
    49    28    25    1
    50    28    29    1
    51    25    26    1
    52    36    26   am
    53    36    37    1
    54    40    41    1
    55    40    37    1
    56    41    42   ar
    57    46    44   ar
    58    57    56    1
    59    26    27    2
    60    29    30   ar
    61    29    31   ar
    62    37    38    1
    63    30    32   ar
    64    38    39    2
    65    42    44   ar
    66    50    49    2
    67    56    55    1
    68    56    59    1
    69    31    33   ar
    70    32    34   ar
    71    49    55   am
    72    49    48    1
    73    59    60    1
    74    33    34   ar
    75    34    35    1
    76    48    47    1
    77    48    51    1
    78    61    60   ar
    79    61    63   ar
    80    60    62   ar
    81    63    65   ar
    82    51    52    1
    83    54    52    1
    84    62    64   ar
    85    52    53    1
    86    65    64   ar
    87    65    66    1
