@<TRIPOS>MOLECULE
tmp/3wo6A01.pdb
 89 85 0 0 0
SMALL
GASTEIGER

@<TRIPOS>ATOM
      1  N         85.2520    3.4560   47.5640 N.3    16  PHE16      -0.1227
      2  CA        84.8570    2.7990   48.8080 C.3    16  PHE16       0.1736
      3  C         84.0030    3.6700   49.7250 C.2    16  PHE16       0.2595
      4  O         83.4520    3.1850   50.7120 O.2    16  PHE16      -0.2718
      5  CB        86.0870    2.2740   49.5530 C.3    16  PHE16       0.0547
      6  CG        86.8650    1.2490   48.7820 C.ar   16  PHE16      -0.0202
      7  CD1       86.3890   -0.0460   48.6520 C.ar   16  PHE16      -0.0042
      8  CD2       88.0670    1.5810   48.1810 C.ar   16  PHE16      -0.0042
      9  CE1       87.1010   -0.9910   47.9390 C.ar   16  PHE16      -0.0003
     10  CE2       88.7830    0.6400   47.4680 C.ar   16  PHE16      -0.0003
     11  CZ        88.2990   -0.6480   47.3460 C.ar   16  PHE16      -0.0000
     12  N         83.8900    4.9530   49.4010 N.am   17  PHE17      -0.1976
     13  CA        83.0570    5.8490   50.1920 C.3    17  PHE17       0.1639
     14  C         81.9060    6.4300   49.3780 C.2    17  PHE17       0.2290
     15  O         80.7420    6.3020   49.7560 O.2    17  PHE17      -0.2864
     16  CB        83.8930    6.9750   50.8030 C.3    17  PHE17       0.0560
     17  CG        84.8630    6.5090   51.8490 C.ar   17  PHE17      -0.0200
     18  CD1       86.1450    6.1160   51.5000 C.ar   17  PHE17      -0.0042
     19  CD2       84.4930    6.4630   53.1830 C.ar   17  PHE17      -0.0042
     20  CE1       87.0380    5.6850   52.4620 C.ar   17  PHE17      -0.0003
     21  CE2       85.3820    6.0340   54.1500 C.ar   17  PHE17      -0.0003
     22  CZ        86.6570    5.6460   53.7880 C.ar   17  PHE17      -0.0000
     23  N         79.6570    3.3100   47.1740 N.3    20  PRO20      -0.2102
     24  CA        78.6850    2.5020   47.9210 C.3    20  PRO20       0.1504
     25  C         77.4920    3.3260   48.4000 C.2    20  PRO20       0.2575
     26  O         76.3690    2.8220   48.4230 O.2    20  PRO20      -0.2718
     27  CB        79.4950    2.0020   49.1220 C.3    20  PRO20       0.0282
     28  CG        80.9040    2.0270   48.6600 C.3    20  PRO20       0.0208
     29  CD        81.0010    3.2310   47.7760 C.3    20  PRO20       0.0893
     30  N         77.7370    4.5790   48.7730 N.am   21  MET21      -0.1980
     31  CA        76.6610    5.4780   49.1710 C.3    21  MET21       0.1605
     32  C         75.7600    5.7840   47.9790 C.2    21  MET21       0.2287
     33  O         74.5360    5.8020   48.1010 O.2    21  MET21      -0.2864
     34  CB        77.2290    6.7770   49.7440 C.3    21  MET21       0.0413
     35  CG        76.1700    7.7950   50.1360 C.3    21  MET21       0.0598
     36  SD        75.2080    7.3000   51.5800 S.3    21  MET21      -0.1393
     37  CE        76.4330    7.4570   52.8770 C.3    21  MET21       0.0692
     38  N         73.7390    2.6980   46.9760 N.3    24  LEU24      -0.1245
     39  CA        72.6760    2.4310   47.9370 C.3    24  LEU24       0.1561
     40  C         71.4500    3.2960   47.6560 C.2    24  LEU24       0.2260
     41  O         70.3150    2.8290   47.7370 O.2    24  LEU24      -0.2867
     42  CB        73.1800    2.6710   49.3620 C.3    24  LEU24       0.0270
     43  CG        72.2500    2.2520   50.5020 C.3    24  LEU24       0.0019
     44  CD1       72.0460    0.7440   50.4960 C.3    24  LEU24       0.0001
     45  CD2       72.7920    2.7200   51.8440 C.3    24  LEU24       0.0001
     46  N         71.1530    4.3100   57.7140 N.3    47  ILE47      -0.1245
     47  CA        72.4090    4.7830   58.2870 C.3    47  ILE47       0.1561
     48  C         72.2890    4.9170   59.8030 C.2    47  ILE47       0.2260
     49  O         73.2030    4.5560   60.5470 O.2    47  ILE47      -0.2867
     50  CB        72.8340    6.1380   57.6770 C.3    47  ILE47       0.0252
     51  CG1       73.2320    5.9640   56.2110 C.3    47  ILE47       0.0019
     52  CG2       73.9910    6.7480   58.4560 C.3    47  ILE47       0.0019
     53  CD1       73.6830    7.2510   55.5460 C.3    47  ILE47       0.0001
     54  N         74.3590    3.1810   63.0360 N.3    51  LEU51      -0.1245
     55  CA        75.0460    3.9780   64.0470 C.3    51  LEU51       0.1561
     56  C         74.4610    3.7370   65.4320 C.2    51  LEU51       0.2260
     57  O         75.0410    4.1470   66.4380 O.2    51  LEU51      -0.2867
     58  CB        74.9520    5.4680   63.7140 C.3    51  LEU51       0.0270
     59  CG        75.5060    5.9390   62.3700 C.3    51  LEU51       0.0019
     60  CD1       75.2840    7.4360   62.1980 C.3    51  LEU51       0.0001
     61  CD2       76.9800    5.5940   62.2470 C.3    51  LEU51       0.0001
     62  N         82.6440   10.3440   63.0350 N.3   117  ILE117     -0.1245
     63  CA        82.1640    9.3930   62.0370 C.3   117  ILE117      0.1561
     64  C         80.9960    9.9670   61.2310 C.2   117  ILE117      0.2260
     65  O         80.6970    9.4970   60.1350 O.2   117  ILE117     -0.2867
     66  CB        81.7640    8.0380   62.6710 C.3   117  ILE117      0.0252
     67  CG1       81.7220    6.9350   61.6090 C.3   117  ILE117      0.0019
     68  CG2       80.4320    8.1490   63.3990 C.3   117  ILE117      0.0019
     69  CD1       81.2620    5.5920   62.1370 C.3   117  ILE117      0.0001
     70  N         82.4800   11.8240   57.5590 N.3   120  PRO120     -0.2102
     71  CA        82.6980   11.1750   56.2610 C.3   120  PRO120      0.1504
     72  C         81.4190   10.5680   55.6890 C.2   120  PRO120      0.2575
     73  O         81.3010   10.4320   54.4730 O.2   120  PRO120     -0.2718
     74  CB        83.7150   10.0770   56.5850 C.3   120  PRO120      0.0282
     75  CG        83.4780    9.7630   58.0110 C.3   120  PRO120      0.0208
     76  CD        83.1190   11.0700   58.6540 C.3   120  PRO120      0.0893
     77  N         80.4800   10.2030   56.5560 N.am  121  ILE121     -0.1980
     78  CA        79.1750    9.7310   56.1060 C.3   121  ILE121      0.1595
     79  C         78.4330   10.8720   55.4150 C.2   121  ILE121      0.2287
     80  O         77.8240   10.6870   54.3600 O.2   121  ILE121     -0.2864
     81  CB        78.3300    9.2000   57.2810 C.3   121  ILE121      0.0276
     82  CG1       78.9920    7.9660   57.8990 C.3   121  ILE121      0.0022
     83  CG2       76.9240    8.8610   56.8190 C.3   121  ILE121      0.0022
     84  CD1       78.2410    7.3960   59.0850 C.3   121  ILE121      0.0001
     85  N         80.4590   11.6150   52.0730 N.3   124  ALA124     -0.1245
     86  CA        80.1980   10.6150   51.0450 C.3   124  ALA124      0.1562
     87  C         78.7910   10.7850   50.4820 C.2   124  ALA124      0.2260
     88  O         78.5650   10.5930   49.2870 O.2   124  ALA124     -0.2867
     89  CB        80.3850    9.2140   51.6030 C.3   124  ALA124      0.0290
@<TRIPOS>BOND
     1    38    39    1
     2    23    29    1
     3    23    24    1
     4    11    10   ar
     5    11     9   ar
     6    10     8   ar
     7     1     2    1
     8    40    41    2
     9    40    39    1
    10    29    28    1
    11    24    25    1
    12    24    27    1
    13    39    42    1
    14     9     7   ar
    15    32    33    2
    16    32    31    1
    17     8     6   ar
    18    25    26    2
    19    25    30   am
    20     7     6   ar
    21    28    27    1
    22    30    31    1
    23     6     5    1
    24     2     5    1
    25     2     3    1
    26    31    34    1
    27    88    87    2
    28    42    43    1
    29    14    15    2
    30    14    13    1
    31    12     3   am
    32    12    13    1
    33     3     4    2
    34    34    35    1
    35    35    36    1
    36    13    16    1
    37    87    86    1
    38    44    43    1
    39    43    45    1
    40    16    17    1
    41    86    89    1
    42    86    85    1
    43    18    17   ar
    44    18    20   ar
    45    36    37    1
    46    17    19   ar
    47    20    22   ar
    48    19    21   ar
    49    22    21   ar
    50    80    79    2
    51    73    72    2
    52    79    78    1
    53    53    51    1
    54    72    71    1
    55    72    77   am
    56    78    77    1
    57    78    81    1
    58    51    50    1
    59    71    74    1
    60    71    70    1
    61    74    75    1
    62    83    81    1
    63    81    82    1
    64    70    76    1
    65    50    47    1
    66    50    52    1
    67    46    47    1
    68    82    84    1
    69    75    76    1
    70    47    48    1
    71    48    49    2
    72    65    64    2
    73    64    63    1
    74    67    69    1
    75    67    66    1
    76    63    66    1
    77    63    62    1
    78    60    59    1
    79    61    59    1
    80    59    58    1
    81    66    68    1
    82    54    55    1
    83    58    55    1
    84    55    56    1
    85    56    57    2
