@<TRIPOS>MOLECULE
tmp/3wogB01.pdb
 131 130 0 0 0
SMALL
GASTEIGER

@<TRIPOS>ATOM
      1  N        -23.5510  -86.3350   -7.7790 N.3    86  ASP86      -0.1239
      2  CA       -22.8660  -85.9350   -6.5430 C.3    86  ASP86       0.1674
      3  C        -21.9030  -84.7460   -6.7290 C.2    86  ASP86       0.2266
      4  O        -21.3810  -84.2080   -5.7460 O.2    86  ASP86      -0.2867
      5  CB       -22.1120  -87.1240   -5.9420 C.3    86  ASP86       0.1410
      6  CG       -23.0120  -88.0300   -5.1090 C.2    86  ASP86       0.3668
      7  OD1      -23.4270  -87.6230   -3.9990 O.co2  86  ASP86      -0.2456
      8  OD2      -23.2920  -89.1570   -5.5660 O.co2  86  ASP86      -0.2456
      9  N        -17.0800  -94.4310   -6.5730 N.3   102  LYS102     -0.1231
     10  CA       -18.0260  -93.4640   -7.1250 C.3   102  LYS102      0.1693
     11  C        -18.8110  -92.7160   -6.0340 C.2   102  LYS102      0.2593
     12  O        -18.3490  -92.6060   -4.8950 O.2   102  LYS102     -0.2718
     13  CB       -18.9620  -94.1440   -8.1390 C.3   102  LYS102      0.0285
     14  CG       -19.6860  -95.3850   -7.6230 C.3   102  LYS102      0.0035
     15  CD       -19.9840  -96.3740   -8.7440 C.3   102  LYS102      0.0206
     16  CE       -18.7470  -97.1910   -9.0930 C.3   102  LYS102      0.1093
     17  NZ       -18.9930  -98.1030  -10.2420 N.3   102  LYS102     -0.1314
     18  N        -19.9800  -92.1940   -6.3950 N.am  103  GLY103     -0.1942
     19  CA       -20.8420  -91.4830   -5.4570 C.3   103  GLY103      0.2014
     20  C        -20.2240  -90.2100   -4.8920 C.2   103  GLY103      0.2639
     21  O        -19.6100  -89.4170   -5.6220 O.2   103  GLY103     -0.2714
     22  N        -20.3780  -90.0250   -3.5850 N.am  104  GLY104     -0.1939
     23  CA       -19.8660  -88.8490   -2.9000 C.3   104  GLY104      0.2014
     24  C        -18.3590  -88.8220   -2.7550 C.2   104  GLY104      0.2638
     25  O        -17.8110  -87.8620   -2.2350 O.2   104  GLY104     -0.2714
     26  N        -17.6800  -89.8750   -3.1990 N.am  105  LEU105     -0.1977
     27  CA       -16.2200  -89.9000   -3.1470 C.3   105  LEU105      0.1596
     28  C        -15.5990  -89.4040   -4.4560 C.2   105  LEU105      0.2287
     29  O        -14.3790  -89.3700   -4.5930 O.2   105  LEU105     -0.2864
     30  CB       -15.7080  -91.2930   -2.7650 C.3   105  LEU105      0.0297
     31  CG       -16.0980  -91.7480   -1.3510 C.3   105  LEU105      0.0022
     32  CD1      -15.9190  -93.2450   -1.1870 C.3   105  LEU105      0.0001
     33  CD2      -15.3000  -90.9950   -0.2980 C.3   105  LEU105      0.0001
     34  N        -13.8040  -91.7600    3.4460 N.3   112  TYR112     -0.1241
     35  CA       -13.8060  -90.3450    3.8130 C.3   112  TYR112      0.1605
     36  C        -12.7460  -89.9750    4.8460 C.2   112  TYR112      0.2264
     37  O        -12.8750  -88.9770    5.5550 O.2   112  TYR112     -0.2867
     38  CB       -15.2040  -89.8720    4.2340 C.3   112  TYR112      0.0534
     39  CG       -15.8200  -90.5600    5.4370 C.ar  112  TYR112     -0.0201
     40  CD1      -15.8310  -89.9370    6.6870 C.ar  112  TYR112     -0.0009
     41  CD2      -16.4310  -91.8130    5.3180 C.ar  112  TYR112     -0.0009
     42  CE1      -16.4090  -90.5520    7.7900 C.ar  112  TYR112      0.0417
     43  CE2      -17.0100  -92.4360    6.4160 C.ar  112  TYR112      0.0417
     44  CZ       -16.9950  -91.8010    7.6470 C.ar  112  TYR112      0.1957
     45  OH       -17.5680  -92.4110    8.7380 O.3   112  TYR112     -0.2866
     46  N        -24.1980  -82.5810   -3.3380 N.3   128  LEU128     -0.1231
     47  CA       -24.9050  -83.4220   -2.3810 C.3   128  LEU128      0.1693
     48  C        -24.2030  -83.4910   -1.0410 C.2   128  LEU128      0.2592
     49  O        -23.0230  -83.8810   -0.9440 O.2   128  LEU128     -0.2718
     50  CB       -25.1620  -84.8240   -2.9490 C.3   128  LEU128      0.0284
     51  CG       -26.0600  -85.6440   -2.0120 C.3   128  LEU128      0.0019
     52  CD1      -27.3480  -86.0570   -2.6950 C.3   128  LEU128      0.0001
     53  CD2      -25.3080  -86.8250   -1.4290 C.3   128  LEU128      0.0001
     54  N        -24.9610  -83.1020   -0.0200 N.am  129  TYR129     -0.1962
     55  CA       -24.5290  -83.1460    1.3650 C.3   129  TYR129      0.1771
     56  C        -24.2820  -84.5820    1.8280 C.2   129  TYR129      0.2620
     57  O        -25.2060  -85.3760    1.9370 O.2   129  TYR129     -0.2715
     58  CB       -25.5740  -82.4470    2.2560 C.3   129  TYR129      0.0574
     59  CG       -25.4300  -82.7060    3.7510 C.ar  129  TYR129     -0.0198
     60  CD1      -24.2160  -82.4890    4.4080 C.ar  129  TYR129     -0.0009
     61  CD2      -26.5170  -83.1520    4.5070 C.ar  129  TYR129     -0.0009
     62  CE1      -24.0840  -82.7200    5.7670 C.ar  129  TYR129      0.0417
     63  CE2      -26.3970  -83.3860    5.8690 C.ar  129  TYR129      0.0417
     64  CZ       -25.1790  -83.1680    6.4940 C.ar  129  TYR129      0.1957
     65  OH       -25.0490  -83.3950    7.8440 O.3   129  TYR129     -0.2866
     66  N        -23.0270  -84.9110    2.0860 N.am  130  ASN130     -0.1958
     67  CA       -22.7170  -86.1840    2.7020 C.3   130  ASN130      0.1819
     68  C        -22.5350  -85.9890    4.2010 C.2   130  ASN130      0.2621
     69  O        -21.5330  -85.4170    4.6610 O.2   130  ASN130     -0.2715
     70  CB       -21.5090  -86.8500    2.0440 C.3   130  ASN130      0.1195
     71  CG       -21.7680  -87.2050    0.5900 C.2   130  ASN130      0.2630
     72  OD1      -21.6510  -86.3590   -0.3100 O.2   130  ASN130     -0.2716
     73  ND2      -22.1310  -88.4640    0.3490 N.am  130  ASN130     -0.0877
     74  N        -23.5370  -86.4670    4.9390 N.am  131  VAL131     -0.1963
     75  CA       -23.6790  -86.2720    6.3890 C.3   131  VAL131      0.1727
     76  C        -22.3900  -86.5090    7.1850 C.2   131  VAL131      0.2616
     77  O        -22.1630  -85.8510    8.1930 O.2   131  VAL131     -0.2715
     78  CB       -24.9030  -87.0750    6.9480 C.3   131  VAL131      0.0290
     79  CG1      -24.7210  -88.5730    6.7480 C.3   131  VAL131      0.0023
     80  CG2      -25.1880  -86.7470    8.4090 C.3   131  VAL131      0.0023
     81  N        -21.5350  -87.4100    6.7100 N.am  132  HIS132     -0.1959
     82  CA       -20.3310  -87.8010    7.4470 C.3   132  HIS132      0.1787
     83  C        -19.1330  -86.8920    7.3280 C.2   132  HIS132      0.2620
     84  O        -18.1680  -87.0510    8.0920 O.2   132  HIS132     -0.2715
     85  CB       -19.9310  -89.2310    7.0850 C.3   132  HIS132      0.0785
     86  CG       -20.8020  -90.2840    7.7260 C.ar  132  HIS132      0.0821
     87  ND1      -20.4470  -90.9290    8.8520 N.ar  132  HIS132     -0.2267
     88  CD2      -22.0530  -90.7820    7.3640 C.ar  132  HIS132      0.1154
     89  CE1      -21.4150  -91.8030    9.1910 C.ar  132  HIS132      0.1986
     90  NE2      -22.3980  -91.7100    8.2800 N.ar  132  HIS132     -0.2212
     91  N        -19.1610  -85.9450    6.3830 N.am  133  TRP133     -0.1974
     92  CA       -17.9870  -85.0880    6.1270 C.3   133  TRP133      0.1640
     93  C        -18.2320  -83.7140    5.5320 C.2   133  TRP133      0.2290
     94  O        -17.3860  -82.8320    5.6840 O.2   133  TRP133     -0.2864
     95  CB       -16.9330  -85.8360    5.2990 C.3   133  TRP133      0.0576
     96  CG       -17.3460  -86.1110    3.8700 C.ar  133  TRP133      0.0006
     97  CD1      -17.3600  -85.2150    2.8030 C.ar  133  TRP133      0.0946
     98  CD2      -17.8160  -87.3870    3.2970 C.ar  133  TRP133      0.0152
     99  NE1      -17.8020  -85.8250    1.6550 N.ar  133  TRP133     -0.2442
    100  CE2      -18.0880  -87.1250    1.8780 C.ar  133  TRP133      0.0810
    101  CE3      -18.0410  -88.6640    3.8010 C.ar  133  TRP133      0.0012
    102  CZ2      -18.5500  -88.1160    1.0220 C.ar  133  TRP133      0.0191
    103  CZ3      -18.5070  -89.6560    2.9250 C.ar  133  TRP133      0.0001
    104  CH2      -18.7560  -89.3850    1.5720 C.ar  133  TRP133      0.0015
    105  N        -25.4690  -89.6090   -8.3780 N.3   214  GLY214     -0.1210
    106  CA       -25.9090  -90.2370   -7.1310 C.3   214  GLY214      0.1956
    107  C        -26.2620  -91.6970   -7.3370 C.2   214  GLY214      0.2612
    108  O        -26.7340  -92.0840   -8.4160 O.2   214  GLY214     -0.2717
    109  N        -26.0200  -92.5080   -6.3100 N.am  215  ILE215     -0.1965
    110  CA       -26.3320  -93.9400   -6.3720 C.3   215  ILE215      0.1727
    111  C        -27.7720  -94.2710   -5.9620 C.2   215  ILE215      0.2616
    112  O        -28.2460  -95.3710   -6.2300 O.2   215  ILE215     -0.2715
    113  CB       -25.3340  -94.7990   -5.5630 C.3   215  ILE215      0.0290
    114  CG1      -25.3670  -94.4300   -4.0740 C.3   215  ILE215      0.0022
    115  CG2      -23.9320  -94.6720   -6.1450 C.3   215  ILE215      0.0023
    116  CD1      -24.6180  -95.3930   -3.1780 C.3   215  ILE215      0.0001
    117  N        -28.4590  -93.3160   -5.3320 N.am  216  THR216     -0.1951
    118  CA       -29.8200  -93.5200   -4.8220 C.3   216  THR216      0.1897
    119  C        -30.8510  -92.7980   -5.6780 C.2   216  THR216      0.2313
    120  O        -30.7330  -91.5940   -5.8940 O.2   216  THR216     -0.2863
    121  CB       -29.9600  -92.9960   -3.3790 C.3   216  THR216      0.1794
    122  OG1      -28.8870  -93.4970   -2.5750 O.3   216  THR216     -0.2208
    123  CG2      -31.2900  -93.4210   -2.7740 C.3   216  THR216      0.0378
    124  N        -31.5120  -88.8510   -6.9110 N.3   219  ASN219     -0.1240
    125  CA       -30.3010  -88.0340   -6.8100 C.3   219  ASN219      0.1653
    126  C        -29.3770  -88.2170   -8.0130 C.2   219  ASN219      0.2266
    127  O        -28.4940  -89.0770   -8.0150 O.2   219  ASN219     -0.2867
    128  CB       -29.5590  -88.3330   -5.5070 C.3   219  ASN219      0.1155
    129  CG       -30.3710  -87.9680   -4.2860 C.2   219  ASN219      0.2627
    130  OD1      -31.1910  -87.0460   -4.3210 O.2   219  ASN219     -0.2716
    131  ND2      -30.1570  -88.6950   -3.2000 N.am  219  ASN219     -0.0877
@<TRIPOS>BOND
     1    17    16    1
     2    16    15    1
     3    15    14    1
     4   108   107    2
     5   105   106    1
     6    13    14    1
     7    13    10    1
     8   127   126    2
     9   126   125    1
    10     1     2    1
    11   107   106    1
    12   107   109   am
    13    10     9    1
    14    10    11    1
    15   124   125    1
    16   125   128    1
    17     3     2    1
    18     3     4    2
    19     2     5    1
    20    18    11   am
    21    18    19    1
    22   110   109    1
    23   110   111    1
    24   110   113    1
    25   112   111    2
    26   115   113    1
    27    11    12    2
    28   111   117   am
    29     5     6    1
    30   120   119    2
    31   119   118    1
    32    21    20    2
    33     8     6   ar
    34   113   114    1
    35   128   129    1
    36    19    20    1
    37   117   118    1
    38     6     7   ar
    39    20    22   am
    40   118   121    1
    41    29    28    2
    42    28    27    1
    43   130   129    2
    44   129   131   am
    45   114   116    1
    46    22    23    1
    47   121   123    1
    48   121   122    1
    49    46    47    1
    50    26    27    1
    51    26    24   am
    52    27    30    1
    53    50    47    1
    54    50    51    1
    55    23    24    1
    56    30    31    1
    57    24    25    2
    58    52    51    1
    59    47    48    1
    60    51    53    1
    61    31    32    1
    62    31    33    1
    63    48    49    2
    64    48    54   am
    65    72    71    2
    66    54    55    1
    67    73    71   am
    68    71    70    1
    69   102   104   ar
    70   102   100   ar
    71    55    56    1
    72    55    58    1
    73   104   103   ar
    74    99   100   ar
    75    99    97   ar
    76    56    57    2
    77    56    66   am
    78   100    98   ar
    79    70    67    1
    80    66    67    1
    81    58    59    1
    82    67    68    1
    83    97    96   ar
    84   103   101   ar
    85    98   101   ar
    86    98    96   ar
    87    34    35    1
    88    59    60   ar
    89    59    61   ar
    90    35    38    1
    91    35    36    1
    92    96    95    1
    93    68    69    2
    94    68    74   am
    95    38    39    1
    96    60    62   ar
    97    61    63   ar
    98    36    37    2
    99    74    75    1
   100    95    92    1
   101    41    39   ar
   102    41    43   ar
   103    39    40   ar
   104    93    94    2
   105    93    92    1
   106    62    64   ar
   107    63    64   ar
   108    92    91    1
   109    91    83   am
   110    75    78    1
   111    75    76    1
   112    43    44   ar
   113    64    65    1
   114    40    42   ar
   115    81    76   am
   116    81    82    1
   117    79    78    1
   118    78    80    1
   119    85    82    1
   120    85    86    1
   121    76    77    2
   122    83    82    1
   123    83    84    2
   124    88    86   ar
   125    88    90   ar
   126    44    42   ar
   127    44    45    1
   128    86    87   ar
   129    90    89   ar
   130    87    89   ar
