@<TRIPOS>MOLECULE
tmp/3wonA01.pdb
 126 120 0 0 0
SMALL
GASTEIGER

@<TRIPOS>ATOM
      1  N         62.8640   25.6260   30.1730 N.3    45  GLY45      -0.1210
      2  CA        61.7350   26.0260   30.9640 C.3    45  GLY45       0.1956
      3  C         62.0350   26.5930   32.3800 C.2    45  GLY45       0.2612
      4  O         61.1080   27.0490   33.1000 O.2    45  GLY45      -0.2717
      5  N         63.3010   26.6060   32.7670 N.am   46  CYS46      -0.1970
      6  CA        63.7730   27.3930   33.9340 C.3    46  CYS46       0.1712
      7  C         65.1150   28.0470   33.5380 C.2    46  CYS46       0.2296
      8  O         65.7320   27.6580   32.5670 O.2    46  CYS46      -0.2864
      9  CB        63.9930   26.4340   35.1450 C.3    46  CYS46       0.0983
     10  SG        62.4530   26.2600   36.2360 S.3    46  CYS46      -0.0798
     11  N         61.7660   24.5910   43.0210 N.3    62  HIS62      -0.1241
     12  CA        60.6840   24.1150   42.1560 C.3    62  HIS62       0.1621
     13  C         61.1790   23.7720   40.7390 C.2    62  HIS62       0.2264
     14  O         60.5500   22.9850   40.0410 O.2    62  HIS62      -0.2867
     15  CB        59.4620   25.0500   42.1920 C.3    62  HIS62       0.0745
     16  CG        59.5920   26.2660   41.3610 C.ar   62  HIS62       0.0817
     17  ND1       60.0140   27.4590   41.8870 N.ar   62  HIS62      -0.2268
     18  CD2       59.3690   26.4930   40.0460 C.ar   62  HIS62       0.1154
     19  CE1       59.9860   28.3890   40.9610 C.ar   62  HIS62       0.1986
     20  NE2       59.6560   27.8200   39.8170 N.ar   62  HIS62      -0.2212
     21  N         51.9650   32.1090   44.2930 N.3   192  TRP192     -0.1241
     22  CA        51.4740   33.3300   43.6930 C.3   192  TRP192      0.1605
     23  C         51.1440   34.3720   44.7210 C.2   192  TRP192      0.2264
     24  O         50.3840   35.2620   44.4160 O.2   192  TRP192     -0.2867
     25  CB        50.2840   33.1220   42.7930 C.3   192  TRP192      0.0550
     26  CG        50.5610   32.1760   41.6840 C.ar  192  TRP192      0.0003
     27  CD1       50.0740   30.8940   41.5620 C.ar  192  TRP192      0.0946
     28  CD2       51.4080   32.3790   40.5720 C.ar  192  TRP192      0.0152
     29  NE1       50.5270   30.3180   40.3910 N.ar  192  TRP192     -0.2442
     30  CE2       51.3620   31.2120   39.7700 C.ar  192  TRP192      0.0810
     31  CE3       52.1910   33.4360   40.1440 C.ar  192  TRP192      0.0012
     32  CZ2       52.1200   31.0700   38.6030 C.ar  192  TRP192      0.0191
     33  CZ3       52.9200   33.2880   38.9680 C.ar  192  TRP192      0.0001
     34  CH2       52.9310   32.0990   38.2400 C.ar  192  TRP192      0.0015
     35  N         49.9390   24.8310   40.1560 N.3   306  ASN306     -0.1240
     36  CA        50.5490   26.1290   39.8180 C.3   306  ASN306      0.1653
     37  C         49.8110   26.8150   38.6590 C.2   306  ASN306      0.2266
     38  O         49.4350   28.0050   38.7250 O.2   306  ASN306     -0.2867
     39  CB        51.9940   25.9030   39.4770 C.3   306  ASN306      0.1155
     40  CG        52.7400   27.2180   39.2450 C.2   306  ASN306      0.2627
     41  OD1       52.6910   28.1070   40.0700 O.2   306  ASN306     -0.2716
     42  ND2       53.3990   27.3230   38.1470 N.am  306  ASN306     -0.0877
     43  N         47.4020   30.0910   38.8160 N.3   310  ASN310     -0.1240
     44  CA        47.7880   31.1700   37.9860 C.3   310  ASN310      0.1653
     45  C         46.5800   31.6730   37.2100 C.2   310  ASN310      0.2266
     46  O         46.3210   32.8540   37.0960 O.2   310  ASN310     -0.2867
     47  CB        48.8370   30.7570   36.9600 C.3   310  ASN310      0.1155
     48  CG        49.2410   31.9100   36.0600 C.2   310  ASN310      0.2627
     49  OD1       50.1690   32.7310   36.3500 O.2   310  ASN310     -0.2716
     50  ND2       48.5500   32.0710   35.0860 N.am  310  ASN310     -0.0877
     51  N         59.0410   39.7490   34.9360 N.3   628  ILE628     -0.1231
     52  CA        59.3850   38.3720   34.6740 C.3   628  ILE628      0.1692
     53  C         58.1160   37.5550   34.4860 C.2   628  ILE628      0.2593
     54  O         57.0240   37.9960   34.8100 O.2   628  ILE628     -0.2718
     55  CB        60.2220   37.7380   35.7630 C.3   628  ILE628      0.0266
     56  CG1       59.5940   37.8160   37.1650 C.3   628  ILE628      0.0019
     57  CG2       61.5580   38.4360   35.8060 C.3   628  ILE628      0.0020
     58  CD1       60.2270   36.7630   38.1020 C.3   628  ILE628      0.0001
     59  N         58.3200   36.3460   34.0000 N.am  629  THR629     -0.1939
     60  CA        57.2240   35.4080   33.8670 C.3   629  THR629      0.2028
     61  C         57.6910   33.9840   33.8550 C.2   629  THR629      0.2643
     62  O         58.9030   33.7310   33.9650 O.2   629  THR629     -0.2714
     63  CB        56.3160   35.8130   32.6680 C.3   629  THR629      0.1808
     64  OG1       55.1080   35.0520   32.7750 O.3   629  THR629     -0.2208
     65  CG2       56.9200   35.4840   31.3750 C.3   629  THR629      0.0379
     66  N         56.7750   33.0360   33.6060 N.am  630  GLY630     -0.1939
     67  CA        57.1210   31.6140   33.5250 C.3   630  GLY630      0.2014
     68  C         58.3640   31.3580   32.6480 C.2   630  GLY630      0.2639
     69  O         58.4510   31.8810   31.5350 O.2   630  GLY630     -0.2714
     70  N         59.3210   30.6150   33.1530 N.am  631  GLY631     -0.1954
     71  CA        60.6120   30.4230   32.5020 C.3   631  GLY631      0.1869
     72  C         61.7400   31.1970   33.2040 C.2   631  GLY631      0.2309
     73  O         62.9010   30.7840   33.1730 O.2   631  GLY631     -0.2863
     74  N         61.9190   31.4820   36.5210 N.3   633  SER633     -0.1217
     75  CA        62.2670   30.8670   37.7770 C.3   633  SER633      0.1889
     76  C         63.7020   30.3750   37.7240 C.2   633  SER633      0.2288
     77  O         64.1170   29.8970   36.6610 O.2   633  SER633     -0.2866
     78  CB        61.3510   29.6960   38.0760 C.3   633  SER633      0.2089
     79  OG        60.2550   30.3110   38.7740 O.3   633  SER633     -0.2183
     80  N         61.8220   33.7610   41.6810 N.3   649  PHE649     -0.1227
     81  CA        60.9390   32.5470   41.6910 C.3   649  PHE649      0.1736
     82  C         59.4680   32.6990   41.4750 C.2   649  PHE649      0.2595
     83  O         58.8460   31.6850   41.1340 O.2   649  PHE649     -0.2718
     84  CB        61.2260   31.6130   42.9140 C.3   649  PHE649      0.0547
     85  CG        60.7060   32.1070   44.2650 C.ar  649  PHE649     -0.0202
     86  CD1       61.4220   33.0290   45.0360 C.ar  649  PHE649     -0.0042
     87  CD2       59.5430   31.6040   44.8050 C.ar  649  PHE649     -0.0042
     88  CE1       60.9920   33.4540   46.2880 C.ar  649  PHE649     -0.0003
     89  CE2       59.1000   32.0150   46.0610 C.ar  649  PHE649     -0.0003
     90  CZ        59.8310   32.9430   46.8270 C.ar  649  PHE649     -0.0000
     91  N         58.8330   33.8480   41.7090 N.am  650  ASP650     -0.1960
     92  CA        57.3710   33.9270   41.6090 C.3   650  ASP650      0.1840
     93  C         57.0090   35.3900   41.3510 C.2   650  ASP650      0.2622
     94  O         57.8850   36.2700   41.2410 O.2   650  ASP650     -0.2715
     95  CB        56.7130   33.4210   42.8820 C.3   650  ASP650      0.1450
     96  CG        55.2860   32.8140   42.6470 C.2   650  ASP650      0.3671
     97  OD1       54.7530   32.9240   41.4930 O.co2 650  ASP650     -0.2456
     98  OD2       54.7390   32.3260   43.6220 O.co2 650  ASP650     -0.2456
     99  N         55.7140   35.5860   41.1530 N.am  651  GLY651     -0.1954
    100  CA        55.0870   36.8830   41.1970 C.3   651  GLY651      0.1869
    101  C         53.9820   36.9770   42.1880 C.2   651  GLY651      0.2309
    102  O         53.4000   35.9550   42.6110 O.2   651  GLY651     -0.2863
    103  N         49.9570   40.3920   39.9780 N.3   655  SER655     -0.1202
    104  CA        50.8780   40.5600   38.8860 C.3   655  SER655      0.2020
    105  C         50.4890   39.7610   37.6560 C.2   655  SER655      0.2618
    106  O         51.0000   40.0270   36.5780 O.2   655  SER655     -0.2717
    107  CB        52.3070   40.1930   39.2870 C.3   655  SER655      0.2103
    108  OG        52.5700   38.7640   39.3290 O.3   655  SER655     -0.2182
    109  N         49.7510   38.6780   37.8720 N.am  656  VAL656     -0.1979
    110  CA        49.7820   37.5460   36.8710 C.3   656  VAL656      0.1595
    111  C         49.0120   37.9630   35.5800 C.2   656  VAL656      0.2287
    112  O         49.3600   37.5520   34.4570 O.2   656  VAL656     -0.2864
    113  CB        49.2920   36.2240   37.4380 C.3   656  VAL656      0.0276
    114  CG1       50.2790   35.7020   38.4650 C.3   656  VAL656      0.0022
    115  CG2       47.8780   36.2580   38.0420 C.3   656  VAL656      0.0022
    116  N         55.0620   42.8090   40.5280 N.3   668  ARG668     -0.1245
    117  CA        56.3680   42.6210   41.1820 C.3   668  ARG668      0.1563
    118  C         56.9130   41.1950   41.0060 C.2   668  ARG668      0.2260
    119  O         56.1250   40.2570   40.9540 O.2   668  ARG668     -0.2867
    120  CB        56.1920   42.8770   42.6530 C.3   668  ARG668      0.0307
    121  CG        55.7630   44.3020   43.0670 C.3   668  ARG668      0.0489
    122  CD        56.7970   45.3390   42.7860 C.3   668  ARG668      0.2205
    123  NE        56.3440   46.6770   43.1940 N.pl3 668  ARG668     -0.0865
    124  CZ        55.7390   47.5580   42.4040 C.cat 668  ARG668      0.5346
    125  NH1       55.4370   47.2610   41.1680 N.pl3 668  ARG668      0.1354
    126  NH2       55.3560   48.7320   42.9030 N.pl3 668  ARG668      0.1354
@<TRIPOS>BOND
     1     1     2    1
     2     2     3    1
     3    65    63    1
     4    69    68    2
     5     3     5   am
     6     3     4    2
     7    71    70    1
     8    71    72    1
     9     8     7    2
    10    68    70   am
    11    68    67    1
    12    63    64    1
    13    63    60    1
    14     5     6    1
    15    73    72    2
    16    67    66    1
    17     7     6    1
    18    66    61   am
    19    61    60    1
    20    61    62    2
    21    60    59    1
    22     6     9    1
    23    59    53   am
    24   112   111    2
    25    53    52    1
    26    53    54    2
    27    52    51    1
    28    52    55    1
    29    50    48   am
    30     9    10    1
    31   111   110    1
    32    55    57    1
    33    55    56    1
    34    48    49    2
    35    48    47    1
    36    74    75    1
    37   106   105    2
    38    77    76    2
    39   110   113    1
    40   110   109    1
    41    47    44    1
    42    46    45    2
    43    56    58    1
    44    45    44    1
    45   113   115    1
    46   113   114    1
    47   105   109   am
    48   105   104    1
    49    76    75    1
    50    75    78    1
    51    44    43    1
    52    78    79    1
    53    42    40   am
    54    34    32   ar
    55    34    33   ar
    56    32    30   ar
    57    37    38    2
    58    37    36    1
    59   104   107    1
    60   104   103    1
    61    33    31   ar
    62    40    39    1
    63    40    41    2
    64   107   108    1
    65    39    36    1
    66    30    29   ar
    67    30    28   ar
    68    20    18   ar
    69    20    19   ar
    70    36    35    1
    71    14    13    2
    72    18    16   ar
    73    31    28   ar
    74    29    27   ar
    75   116   117    1
    76    28    26   ar
    77    13    12    1
    78   119   118    2
    79    19    17   ar
    80   118   117    1
    81    83    82    2
    82    99   100    1
    83    99    93   am
    84   125   124    1
    85   117   120    1
    86   100   101    1
    87    94    93    2
    88    93    92    1
    89    16    17   ar
    90    16    15    1
    91    82    81    1
    92    82    91   am
    93    97    96   ar
    94    27    26   ar
    95    92    91    1
    96    92    95    1
    97    80    81    1
    98    26    25    1
    99    81    84    1
   100    12    15    1
   101    12    11    1
   102   101   102    2
   103   124   126    1
   104   124   123    2
   105    96    95    1
   106    96    98   ar
   107   120   121    1
   108   122   121    1
   109   122   123    1
   110    25    22    1
   111    84    85    1
   112    22    21    1
   113    22    23    1
   114    85    87   ar
   115    85    86   ar
   116    24    23    2
   117    87    89   ar
   118    86    88   ar
   119    89    90   ar
   120    88    90   ar
