@<TRIPOS>MOLECULE
tmp/3wp6A00.pdb
 109 107 0 0 0
SMALL
GASTEIGER

@<TRIPOS>ATOM
      1  N        -17.9580   20.4460  -20.3050 N.3    22  ASN22      -0.1240
      2  CA       -17.7320   19.6470  -19.1130 C.3    22  ASN22       0.1653
      3  C        -16.4360   20.0560  -18.4740 C.2    22  ASN22       0.2266
      4  O        -15.3980   20.1580  -19.0940 O.2    22  ASN22      -0.2867
      5  CB       -17.7020   18.1500  -19.4420 C.3    22  ASN22       0.1155
      6  CG       -19.0880   17.5960  -19.7700 C.2    22  ASN22       0.2627
      7  OD1      -20.0870   18.3220  -19.7450 O.2    22  ASN22      -0.2716
      8  ND2      -19.1310   16.3100  -20.1300 N.am   22  ASN22      -0.0877
      9  N        -18.4130   21.6030  -10.5990 N.3    33  GLU33      -0.1245
     10  CA       -18.3970   20.7630  -11.8040 C.3    33  GLU33       0.1567
     11  C        -19.6260   21.0650  -12.6210 C.2    33  GLU33       0.2260
     12  O        -20.7580   21.1440  -12.1390 O.2    33  GLU33      -0.2867
     13  CB       -18.3310   19.2740  -11.4510 C.3    33  GLU33       0.0388
     14  CG       -18.3360   18.3660  -12.6530 C.3    33  GLU33       0.1160
     15  CD       -17.8630   16.9420  -12.3810 C.2    33  GLU33       0.3649
     16  OE1      -17.5030   16.6210  -11.2160 O.co2  33  GLU33      -0.2457
     17  OE2      -17.8310   16.1580  -13.3730 O.co2  33  GLU33      -0.2457
     18  N        -21.3560   19.0710  -15.8110 N.3    35  TRP35      -0.1241
     19  CA       -21.3390   17.8130  -16.5950 C.3    35  TRP35       0.1605
     20  C        -22.6610   17.6340  -17.2880 C.2    35  TRP35       0.2264
     21  O        -23.6990   17.7310  -16.6700 O.2    35  TRP35      -0.2867
     22  CB       -21.0560   16.5790  -15.7160 C.3    35  TRP35       0.0550
     23  CG       -20.8750   15.3290  -16.5620 C.ar   35  TRP35       0.0003
     24  CD1      -19.7020   14.8610  -17.0600 C.ar   35  TRP35       0.0946
     25  CD2      -21.8920   14.4680  -17.0340 C.ar   35  TRP35       0.0152
     26  NE1      -19.9220   13.7520  -17.8140 N.ar   35  TRP35      -0.2442
     27  CE2      -21.2620   13.4760  -17.8100 C.ar   35  TRP35       0.0810
     28  CE3      -23.2800   14.4080  -16.8600 C.ar   35  TRP35       0.0012
     29  CZ2      -21.9790   12.4440  -18.4330 C.ar   35  TRP35       0.0191
     30  CZ3      -23.9910   13.3860  -17.4800 C.ar   35  TRP35       0.0001
     31  CH2      -23.3350   12.4150  -18.2440 C.ar   35  TRP35       0.0015
     32  N        -26.0280   18.2820  -15.1840 N.3    62  LEU62      -0.1245
     33  CA       -25.7170   18.4810  -13.7600 C.3    62  LEU62       0.1561
     34  C        -24.8730   19.7200  -13.5760 C.2    62  LEU62       0.2260
     35  O        -23.8000   19.8160  -14.1560 O.2    62  LEU62      -0.2867
     36  CB       -24.9690   17.2820  -13.1760 C.3    62  LEU62       0.0270
     37  CG       -25.7380   15.9630  -12.9250 C.3    62  LEU62       0.0019
     38  CD1      -25.9310   15.1970  -14.2210 C.3    62  LEU62       0.0001
     39  CD2      -25.0100   15.0540  -11.9630 C.3    62  LEU62       0.0001
     40  N        -23.1060   21.6410  -10.1760 N.3    64  ARG64      -0.1245
     41  CA       -22.9380   21.3760   -8.7310 C.3    64  ARG64       0.1563
     42  C        -21.7220   22.1440   -8.2210 C.2    64  ARG64       0.2260
     43  O        -20.7110   22.3280   -8.8810 O.2    64  ARG64      -0.2867
     44  CB       -22.8470   19.8720   -8.4760 C.3    64  ARG64       0.0307
     45  CG       -21.6260   19.1700   -9.0380 C.3    64  ARG64       0.0489
     46  CD       -21.7390   17.6870   -8.8730 C.3    64  ARG64       0.2205
     47  NE       -20.6630   16.7790   -9.1260 N.pl3  64  ARG64      -0.0865
     48  CZ       -20.5800   15.9350  -10.1560 C.cat  64  ARG64       0.5346
     49  NH1      -21.2110   16.1800  -11.2990 N.pl3  64  ARG64       0.1354
     50  NH2      -19.7960   14.8940  -10.0670 N.pl3  64  ARG64       0.1354
     51  N        -25.5060   15.9680   -3.5310 N.3   103  TYR103     -0.1241
     52  CA       -25.1000   14.8410   -4.3520 C.3   103  TYR103      0.1605
     53  C        -23.6200   14.5730   -4.1930 C.2   103  TYR103      0.2264
     54  O        -22.8090   15.4970   -3.9730 O.2   103  TYR103     -0.2867
     55  CB       -25.3910   15.2290   -5.7960 C.3   103  TYR103      0.0534
     56  CG       -24.7890   14.4110   -6.9080 C.ar  103  TYR103     -0.0201
     57  CD1      -23.6230   14.7730   -7.5230 C.ar  103  TYR103     -0.0009
     58  CD2      -25.4610   13.3170   -7.4080 C.ar  103  TYR103     -0.0009
     59  CE1      -23.1550   14.0670   -8.6620 C.ar  103  TYR103      0.0417
     60  CE2      -24.9950   12.6440   -8.5340 C.ar  103  TYR103      0.0417
     61  CZ       -23.8210   13.0040   -9.1240 C.ar  103  TYR103      0.1957
     62  OH       -23.3460   12.3810  -10.2980 O.3   103  TYR103     -0.2866
     63  N        -20.4520   11.0900   -4.6310 N.3   105  TRP105     -0.1241
     64  CA       -20.0360    9.7410   -4.8910 C.3   105  TRP105      0.1605
     65  C        -19.1660    9.2320   -3.7620 C.2   105  TRP105      0.2264
     66  O        -18.4450   10.0320   -3.1470 O.2   105  TRP105     -0.2867
     67  CB       -19.2410    9.6180   -6.2130 C.3   105  TRP105      0.0550
     68  CG       -19.9940    9.8940   -7.4510 C.ar  105  TRP105      0.0003
     69  CD1      -20.3500   11.1060   -7.9360 C.ar  105  TRP105      0.0946
     70  CD2      -20.4870    8.9180   -8.3850 C.ar  105  TRP105      0.0152
     71  NE1      -21.0160   10.9610   -9.1300 N.ar  105  TRP105     -0.2442
     72  CE2      -21.1290    9.6270   -9.4070 C.ar  105  TRP105      0.0810
     73  CE3      -20.4620    7.5250   -8.4390 C.ar  105  TRP105      0.0012
     74  CZ2      -21.7020    8.9800  -10.4960 C.ar  105  TRP105      0.0191
     75  CZ3      -21.0220    6.8860   -9.5080 C.ar  105  TRP105      0.0001
     76  CH2      -21.6520    7.6150  -10.5080 C.ar  105  TRP105      0.0015
     77  N        -22.6950    6.5750  -17.0510 N.3   154  PRO154     -0.2102
     78  CA       -21.4920    7.3220  -16.7870 C.3   154  PRO154      0.1504
     79  C        -21.2370    7.3950  -15.2870 C.2   154  PRO154      0.2576
     80  O        -22.1800    7.3170  -14.4760 O.2   154  PRO154     -0.2718
     81  CB       -21.7890    8.7070  -17.3690 C.3   154  PRO154      0.0282
     82  CG       -22.8840    8.4910  -18.3210 C.3   154  PRO154      0.0208
     83  CD       -23.6860    7.3510  -17.8040 C.3   154  PRO154      0.0893
     84  N        -19.9810    7.4980  -14.9490 N.am  155  SER155     -0.1938
     85  CA       -19.6010    7.6230  -13.5290 C.3   155  SER155      0.2055
     86  C        -18.2820    8.3470  -13.4330 C.2   155  SER155      0.2643
     87  O        -17.5650    8.5980  -14.4160 O.2   155  SER155     -0.2714
     88  CB       -19.4760    6.2390  -12.8690 C.3   155  SER155      0.2130
     89  OG       -18.2010    5.6620  -13.0850 O.3   155  SER155     -0.2179
     90  N        -17.9020    8.6520  -12.2180 N.am  156  ILE156     -0.1963
     91  CA       -16.5800    9.2160  -11.9470 C.3   156  ILE156      0.1727
     92  C        -15.3920    8.3070  -12.2770 C.2   156  ILE156      0.2616
     93  O        -14.2540    8.7630  -12.2900 O.2   156  ILE156     -0.2715
     94  CB       -16.4670    9.7040  -10.4490 C.3   156  ILE156      0.0290
     95  CG1      -16.6100    8.5530   -9.4640 C.3   156  ILE156      0.0022
     96  CG2      -17.5120   10.8040  -10.1970 C.3   156  ILE156      0.0023
     97  CD1      -16.2910    8.9270   -8.0130 C.3   156  ILE156      0.0001
     98  N        -15.6800    7.0150  -12.4960 N.am  157  ASP157     -0.1957
     99  CA       -14.7010    6.0100  -12.8920 C.3   157  ASP157      0.1840
    100  C        -14.7930    5.6360  -14.3780 C.2   157  ASP157      0.2622
    101  O        -14.0810    4.7400  -14.8220 O.2   157  ASP157     -0.2715
    102  CB       -14.8880    4.7220  -12.0620 C.3   157  ASP157      0.1450
    103  CG       -14.3890    4.8480  -10.6360 C.2   157  ASP157      0.3671
    104  OD1      -13.7080    5.8070  -10.3440 O.co2 157  ASP157     -0.2456
    105  OD2      -14.6540    3.9010   -9.8840 O.co2 157  ASP157     -0.2456
    106  N        -15.6470    6.3170  -15.1220 N.am  158  GLY158     -0.1954
    107  CA       -15.9760    5.8930  -16.4880 C.3   158  GLY158      0.1869
    108  C        -17.2930    5.1440  -16.5460 C.2   158  GLY158      0.2309
    109  O        -17.8830    4.8390  -15.5360 O.2   158  GLY158     -0.2863
@<TRIPOS>BOND
     1     1     2    1
     2     8     6   am
     3     6     7    2
     4     6     5    1
     5     5     2    1
     6     2     3    1
     7     4     3    2
     8    29    31   ar
     9    29    27   ar
    10    82    83    1
    11    82    81    1
    12    31    30   ar
    13    26    27   ar
    14    26    24   ar
    15    27    25   ar
    16    83    77    1
    17    30    28   ar
    18    81    78    1
    19    20    21    2
    20    20    19    1
    21    24    23   ar
    22    77    78    1
    23    25    28   ar
    24    25    23   ar
    25    78    79    1
    26    19    18    1
    27    19    22    1
    28    23    22    1
    29   108   107    1
    30   108   109    2
    31   107   106    1
    32    79    84   am
    33    79    80    2
    34    32    33    1
    35   106   100   am
    36    84    85    1
    37   101   100    2
    38    87    86    2
    39   100    99    1
    40    38    37    1
    41    35    34    2
    42    33    34    1
    43    33    36    1
    44    85    86    1
    45    85    88    1
    46    86    90   am
    47    17    15   ar
    48    36    37    1
    49    89    88    1
    50    37    39    1
    51    99    98    1
    52    99   102    1
    53    14    15    1
    54    14    13    1
    55    11    12    2
    56    11    10    1
    57    98    92   am
    58    15    16   ar
    59    93    92    2
    60    92    91    1
    61    90    91    1
    62   102   103    1
    63    91    94    1
    64    10    13    1
    65    10     9    1
    66    49    48    1
    67   103   104   ar
    68   103   105   ar
    69    76    74   ar
    70    76    75   ar
    71    74    72   ar
    72    94    96    1
    73    94    95    1
    74    62    61    1
    75    40    41    1
    76    48    50    1
    77    48    47    2
    78    75    73   ar
    79    95    97    1
    80    72    71   ar
    81    72    70   ar
    82    71    69   ar
    83    47    46    1
    84    61    59   ar
    85    61    60   ar
    86    45    46    1
    87    45    44    1
    88    43    42    2
    89    41    44    1
    90    41    42    1
    91    59    57   ar
    92    60    58   ar
    93    73    70   ar
    94    70    68   ar
    95    69    68   ar
    96    57    56   ar
    97    68    67    1
    98    58    56   ar
    99    56    55    1
   100    67    64    1
   101    55    52    1
   102    64    63    1
   103    64    65    1
   104    52    53    1
   105    52    51    1
   106    53    54    2
   107    65    66    2
