@<TRIPOS>MOLECULE
tmp/3wp6A01.pdb
 136 131 0 0 0
SMALL
GASTEIGER

@<TRIPOS>ATOM
      1  N        -29.0520   14.7780  -20.1110 N.3    60  ASP60      -0.1239
      2  CA       -28.8080   14.7950  -18.6730 C.3    60  ASP60       0.1674
      3  C        -27.7930   15.8990  -18.4040 C.2    60  ASP60       0.2266
      4  O        -26.6780   15.8290  -18.9410 O.2    60  ASP60      -0.2867
      5  CB       -28.2880   13.4300  -18.2370 C.3    60  ASP60       0.1410
      6  CG       -28.3090   13.2560  -16.7120 C.2    60  ASP60       0.3668
      7  OD1      -28.9440   14.1050  -16.0060 O.co2  60  ASP60      -0.2456
      8  OD2      -27.6670   12.3030  -16.2650 O.co2  60  ASP60      -0.2456
      9  N        -26.0280   18.2820  -15.1840 N.3    62  LEU62      -0.1245
     10  CA       -25.7170   18.4810  -13.7600 C.3    62  LEU62       0.1561
     11  C        -24.8730   19.7200  -13.5760 C.2    62  LEU62       0.2260
     12  O        -23.8000   19.8160  -14.1560 O.2    62  LEU62      -0.2867
     13  CB       -24.9690   17.2820  -13.1760 C.3    62  LEU62       0.0270
     14  CG       -25.7380   15.9630  -12.9250 C.3    62  LEU62       0.0019
     15  CD1      -25.9310   15.1970  -14.2210 C.3    62  LEU62       0.0001
     16  CD2      -25.0100   15.0540  -11.9630 C.3    62  LEU62       0.0001
     17  N        -37.9330   15.9530  -17.9030 N.3    96  GLY96      -0.1210
     18  CA       -38.5820   14.6730  -17.5910 C.3    96  GLY96       0.1956
     19  C        -38.2570   14.1800  -16.1940 C.2    96  GLY96       0.2611
     20  O        -39.0690   13.5100  -15.5510 O.2    96  GLY96      -0.2717
     21  N        -37.0590   14.5020  -15.7120 N.am   97  TYR97      -0.1976
     22  CA       -36.6510   14.1610  -14.3590 C.3    97  TYR97       0.1639
     23  C        -35.6970   15.2170  -13.8600 C.2    97  TYR97       0.2290
     24  O        -34.9650   15.8240  -14.6650 O.2    97  TYR97      -0.2864
     25  CB       -36.0260   12.7730  -14.2930 C.3    97  TYR97       0.0560
     26  CG       -34.7370   12.5880  -15.0520 C.ar   97  TYR97      -0.0198
     27  CD1      -33.5220   12.8710  -14.4630 C.ar   97  TYR97      -0.0009
     28  CD2      -34.7270   12.0970  -16.3670 C.ar   97  TYR97      -0.0009
     29  CE1      -32.3350   12.6910  -15.1420 C.ar   97  TYR97       0.0417
     30  CE2      -33.5440   11.8890  -17.0390 C.ar   97  TYR97       0.0417
     31  CZ       -32.3540   12.2210  -16.4400 C.ar   97  TYR97       0.1957
     32  OH       -31.1970   12.0090  -17.1410 O.3    97  TYR97      -0.2866
     33  N        -33.3890   16.5090   -9.9890 N.3    99  TYR99      -0.1241
     34  CA       -33.0550   16.4190   -8.5790 C.3    99  TYR99       0.1605
     35  C        -32.3400   17.6990   -8.1890 C.2    99  TYR99       0.2264
     36  O        -31.3860   18.1030   -8.8770 O.2    99  TYR99      -0.2867
     37  CB       -32.1290   15.2380   -8.3150 C.3    99  TYR99       0.0534
     38  CG       -32.5880   13.9470   -8.9350 C.ar   99  TYR99      -0.0201
     39  CD1      -33.6760   13.2720   -8.4580 C.ar   99  TYR99      -0.0009
     40  CD2      -31.9040   13.4210  -10.0410 C.ar   99  TYR99      -0.0009
     41  CE1      -34.1390   12.1320   -9.0970 C.ar   99  TYR99       0.0417
     42  CE2      -32.3530   12.2680  -10.6710 C.ar   99  TYR99       0.0417
     43  CZ       -33.4660   11.6150  -10.1580 C.ar   99  TYR99       0.1957
     44  OH       -33.9130   10.4730  -10.7830 O.3    99  TYR99      -0.2866
     45  N        -25.5060   15.9680   -3.5310 N.3   103  TYR103     -0.1241
     46  CA       -25.1000   14.8410   -4.3520 C.3   103  TYR103      0.1605
     47  C        -23.6200   14.5730   -4.1930 C.2   103  TYR103      0.2264
     48  O        -22.8090   15.4970   -3.9730 O.2   103  TYR103     -0.2867
     49  CB       -25.3910   15.2290   -5.7960 C.3   103  TYR103      0.0534
     50  CG       -24.7890   14.4110   -6.9080 C.ar  103  TYR103     -0.0201
     51  CD1      -23.6230   14.7730   -7.5230 C.ar  103  TYR103     -0.0009
     52  CD2      -25.4610   13.3170   -7.4080 C.ar  103  TYR103     -0.0009
     53  CE1      -23.1550   14.0670   -8.6620 C.ar  103  TYR103      0.0417
     54  CE2      -24.9950   12.6440   -8.5340 C.ar  103  TYR103      0.0417
     55  CZ       -23.8210   13.0040   -9.1240 C.ar  103  TYR103      0.1957
     56  OH       -23.3460   12.3810  -10.2980 O.3   103  TYR103     -0.2866
     57  N        -27.7730   10.8400   -3.5110 N.3   114  TYR114     -0.1241
     58  CA       -28.6000   12.0240   -3.6370 C.3   114  TYR114      0.1605
     59  C        -29.4480   12.2290   -2.3790 C.2   114  TYR114      0.2264
     60  O        -30.1190   11.2830   -1.9170 O.2   114  TYR114     -0.2867
     61  CB       -29.6130   11.8890   -4.7790 C.3   114  TYR114      0.0534
     62  CG       -29.0930   11.8740   -6.2090 C.ar  114  TYR114     -0.0201
     63  CD1      -28.5350   10.7610   -6.7270 C.ar  114  TYR114     -0.0009
     64  CD2      -29.2450   12.9750   -7.0050 C.ar  114  TYR114     -0.0009
     65  CE1      -28.1600   10.7220   -8.0800 C.ar  114  TYR114      0.0417
     66  CE2      -28.8530   12.9690   -8.3290 C.ar  114  TYR114      0.0417
     67  CZ       -28.2950   11.8190   -8.8370 C.ar  114  TYR114      0.1957
     68  OH       -27.9530   11.8210  -10.2140 O.3   114  TYR114     -0.2866
     69  N        -39.8040    5.1080   -9.7110 N.3   128  TRP128     -0.1227
     70  CA       -38.8170    4.7480  -10.7270 C.3   128  TRP128      0.1737
     71  C        -37.3850    5.1590  -10.4110 C.2   128  TRP128      0.2595
     72  O        -36.4550    4.7540  -11.1140 O.2   128  TRP128     -0.2718
     73  CB       -39.2010    5.2900  -12.1150 C.3   128  TRP128      0.0564
     74  CG       -39.6820    6.6960  -12.1220 C.ar  128  TRP128      0.0003
     75  CD1      -40.9980    7.0970  -12.1960 C.ar  128  TRP128      0.0946
     76  CD2      -38.8950    7.8950  -12.0840 C.ar  128  TRP128      0.0152
     77  NE1      -41.0710    8.4610  -12.1760 N.ar  128  TRP128     -0.2442
     78  CE2      -39.8040    8.9840  -12.1280 C.ar  128  TRP128      0.0810
     79  CE3      -37.5200    8.1630  -12.0160 C.ar  128  TRP128      0.0012
     80  CZ2      -39.3850   10.3180  -12.1160 C.ar  128  TRP128      0.0191
     81  CZ3      -37.0990    9.5200  -11.9830 C.ar  128  TRP128      0.0001
     82  CH2      -38.0400   10.5640  -12.0330 C.ar  128  TRP128      0.0015
     83  N        -37.1840    5.9640   -9.3840 N.am  129  VAL129     -0.1980
     84  CA       -35.8150    6.3910   -9.0320 C.3   129  VAL129      0.1595
     85  C        -34.9530    5.2090   -8.6020 C.2   129  VAL129      0.2287
     86  O        -33.7410    5.2210   -8.7840 O.2   129  VAL129     -0.2864
     87  CB       -35.7600    7.4800   -7.9560 C.3   129  VAL129      0.0276
     88  CG1      -36.3610    8.7730   -8.4400 C.3   129  VAL129      0.0022
     89  CG2      -36.4060    7.0350   -6.6600 C.3   129  VAL129      0.0022
     90  N        -27.5220    1.2010  -11.2040 N.3   151  ARG151     -0.1245
     91  CA       -27.5350    1.9700  -12.4710 C.3   151  ARG151      0.1563
     92  C        -26.3190    1.6330  -13.2970 C.2   151  ARG151      0.2260
     93  O        -25.2300    1.4650  -12.7890 O.2   151  ARG151     -0.2867
     94  CB       -27.5520    3.4850  -12.2140 C.3   151  ARG151      0.0307
     95  CG       -27.3920    4.3370  -13.4610 C.3   151  ARG151      0.0489
     96  CD       -27.5920    5.8150  -13.1830 C.3   151  ARG151      0.2205
     97  NE       -27.2710    6.6540  -14.3360 N.pl3 151  ARG151     -0.0865
     98  CZ       -28.0790    6.8880  -15.3630 C.cat 151  ARG151      0.5346
     99  NH1      -29.3020    6.3520  -15.4090 N.pl3 151  ARG151      0.1354
    100  NH2      -27.6350    7.6580  -16.3680 N.pl3 151  ARG151      0.1354
    101  N        -26.8730    3.3090   -6.3910 N.3   164  GLN164     -0.1245
    102  CA       -27.2450    4.6840   -6.0410 C.3   164  GLN164      0.1566
    103  C        -28.0630    4.6450   -4.7810 C.2   164  GLN164      0.2260
    104  O        -28.9040    3.7420   -4.5880 O.2   164  GLN164     -0.2867
    105  CB       -28.0450    5.4050   -7.1220 C.3   164  GLN164      0.0367
    106  CG       -27.4530    5.3390   -8.5350 C.3   164  GLN164      0.0905
    107  CD       -28.3640    6.0670   -9.4880 C.2   164  GLN164      0.2608
    108  OE1      -29.4580    5.6230   -9.7580 O.2   164  GLN164     -0.2717
    109  NE2      -27.9060    7.2010  -10.0130 N.am  164  GLN164     -0.0878
    110  N        -30.7410    7.1530   -2.5670 N.3   166  PHE166     -0.1241
    111  CA       -31.5670    8.3450   -2.6120 C.3   166  PHE166      0.1605
    112  C        -32.3670    8.5170   -1.3190 C.2   166  PHE166      0.2264
    113  O        -32.9860    7.5650   -0.8230 O.2   166  PHE166     -0.2867
    114  CB       -32.6300    8.2660   -3.7360 C.3   166  PHE166      0.0534
    115  CG       -32.0950    8.3350   -5.1640 C.ar  166  PHE166     -0.0203
    116  CD1      -31.6670    7.1980   -5.7880 C.ar  166  PHE166     -0.0042
    117  CD2      -32.1070    9.5340   -5.8490 C.ar  166  PHE166     -0.0042
    118  CE1      -31.2330    7.2490   -7.1200 C.ar  166  PHE166     -0.0003
    119  CE2      -31.6800    9.6030   -7.1760 C.ar  166  PHE166     -0.0003
    120  CZ       -31.2220    8.4490   -7.7780 C.ar  166  PHE166     -0.0000
    121  N        -29.7980   18.9670  -11.0950 N.3   205  GLU205     -0.1245
    122  CA       -29.7930   18.0430  -12.2180 C.3   205  GLU205      0.1567
    123  C        -31.1320   18.1120  -12.9270 C.2   205  GLU205      0.2260
    124  O        -32.1720   18.1360  -12.2960 O.2   205  GLU205     -0.2867
    125  CB       -29.5430   16.5860  -11.7660 C.3   205  GLU205      0.0388
    126  CG       -29.5900   15.5830  -12.9060 C.3   205  GLU205      0.1160
    127  CD       -29.0380   14.2450  -12.5720 C.2   205  GLU205      0.3649
    128  OE1      -28.7550   13.9690  -11.3940 O.co2 205  GLU205     -0.2457
    129  OE2      -28.9420   13.3870  -13.5050 O.co2 205  GLU205     -0.2457
    130  N        -35.1920   11.3510  -20.7960 N.3   209  VAL209     -0.1245
    131  CA       -34.6760   10.0900  -21.3240 C.3   209  VAL209      0.1561
    132  C        -34.7490   10.0740  -22.8600 C.2   209  VAL209      0.2260
    133  O        -33.9600    9.3700  -23.4920 O.2   209  VAL209     -0.2867
    134  CB       -35.3570    8.8470  -20.6930 C.3   209  VAL209      0.0252
    135  CG1      -34.7910    7.5330  -21.2490 C.3   209  VAL209      0.0019
    136  CG2      -35.2020    8.8570  -19.1880 C.3   209  VAL209      0.0019
@<TRIPOS>BOND
     1   133   132    2
     2   132   131    1
     3   131   130    1
     4   131   134    1
     5   135   134    1
     6   134   136    1
     7     1     2    1
     8     4     3    2
     9     2     3    1
    10     2     5    1
    11     5     6    1
    12    17    18    1
    13    18    19    1
    14    32    31    1
    15    30    31   ar
    16    30    28   ar
    17     6     8   ar
    18     6     7   ar
    19    31    29   ar
    20   100    98    1
    21    28    26   ar
    22    19    21   am
    23    19    20    2
    24    21    22    1
    25    99    98    1
    26    98    97    2
    27     9    10    1
    28    29    27   ar
    29    26    27   ar
    30    26    25    1
    31    24    23    2
    32    22    25    1
    33    22    23    1
    34    97    96    1
    35    15    14    1
    36    12    11    2
    37    10    11    1
    38    10    13    1
    39   129   127   ar
    40    95    96    1
    41    95    94    1
    42    92    93    2
    43    92    91    1
    44    13    14    1
    45   123   124    2
    46   123   122    1
    47    14    16    1
    48   126   127    1
    49   126   125    1
    50   127   128   ar
    51    91    94    1
    52    91    90    1
    53   122   125    1
    54   122   121    1
    55    75    77   ar
    56    75    74   ar
    57    77    78   ar
    58    78    80   ar
    59    78    76   ar
    60    74    73    1
    61    74    76   ar
    62    80    82   ar
    63    73    70    1
    64    76    79   ar
    65    82    81   ar
    66    79    81   ar
    67    72    71    2
    68    44    43    1
    69    70    71    1
    70    70    69    1
    71    42    43   ar
    72    42    40   ar
    73    71    83   am
    74    56    55    1
    75    68    67    1
    76    43    41   ar
    77    40    38   ar
    78   109   107   am
    79    33    34    1
    80   108   107    2
    81   107   106    1
    82    83    84    1
    83    55    53   ar
    84    55    54   ar
    85    41    39   ar
    86    84    85    1
    87    84    87    1
    88    38    39   ar
    89    38    37    1
    90    36    35    2
    91    67    66   ar
    92    67    65   ar
    93    86    85    2
    94    53    51   ar
    95    34    37    1
    96    34    35    1
    97   106   105    1
    98    54    52   ar
    99    88    87    1
   100    66    64   ar
   101    65    63   ar
   102    87    89    1
   103   120   119   ar
   104   120   118   ar
   105    51    50   ar
   106    52    50   ar
   107   119   117   ar
   108   105   102    1
   109   118   116   ar
   110    64    62   ar
   111    50    49    1
   112    63    62   ar
   113   101   102    1
   114    62    61    1
   115   102   103    1
   116   117   115   ar
   117    49    46    1
   118   116   115   ar
   119   115   114    1
   120   103   104    2
   121    61    58    1
   122    46    47    1
   123    46    45    1
   124    47    48    2
   125   114   111    1
   126    58    57    1
   127    58    59    1
   128   111   110    1
   129   111   112    1
   130    59    60    2
   131   112   113    2
