@<TRIPOS>MOLECULE
tmp/3wpbA02.pdb
 82 74 0 0 0
SMALL
GASTEIGER

@<TRIPOS>ATOM
      1  N         10.0810    1.1550   30.7290 N.3   603  ARG603     -0.1245
      2  CA         8.9470    1.8480   31.3480 C.3   603  ARG603      0.1563
      3  C          8.6850    1.3230   32.7770 C.2   603  ARG603      0.2260
      4  O          8.7490    0.1130   33.0270 O.2   603  ARG603     -0.2867
      5  CB         7.6730    1.7110   30.4940 C.3   603  ARG603      0.0307
      6  CG         7.7630    2.3070   29.0940 C.3   603  ARG603      0.0489
      7  CD         6.5030    2.0830   28.2600 C.3   603  ARG603      0.2205
      8  NE         5.3810    2.9330   28.6720 N.pl3 603  ARG603     -0.0865
      9  CZ         5.3010    4.2500   28.4620 C.cat 603  ARG603      0.5346
     10  NH1        4.2390    4.9250   28.8860 N.pl3 603  ARG603      0.1354
     11  NH2        6.2750    4.9140   27.8400 N.pl3 603  ARG603      0.1354
     12  N         12.3370    8.7960   25.3450 N.3   649  ASP649     -0.1239
     13  CA        11.1870    9.0850   26.1900 C.3   649  ASP649      0.1674
     14  C         11.5960    9.0190   27.6560 C.2   649  ASP649      0.2266
     15  O         11.9730    7.9640   28.1600 O.2   649  ASP649     -0.2867
     16  CB        10.0700    8.0800   25.9140 C.3   649  ASP649      0.1410
     17  CG         8.7650    8.4430   26.6150 C.2   649  ASP649      0.3668
     18  OD1        8.7860    9.1830   27.6210 O.co2 649  ASP649     -0.2456
     19  OD2        7.7080    7.9640   26.1570 O.co2 649  ASP649     -0.2456
     20  N          9.3710   10.5950   29.9240 N.3   651  SER651     -0.1202
     21  CA         8.1420   11.1510   30.4750 C.3   651  SER651      0.2020
     22  C          7.8240   10.5140   31.8370 C.2   651  SER651      0.2618
     23  O          8.3090    9.4350   32.1430 O.2   651  SER651     -0.2717
     24  CB         6.9750   10.9980   29.4720 C.3   651  SER651      0.2103
     25  OG         6.6250    9.6460   29.2000 O.3   651  SER651     -0.2182
     26  N          7.0460   11.2000   32.6710 N.am  652  ARG652     -0.1979
     27  CA         6.6220   10.6440   33.9710 C.3   652  ARG652      0.1597
     28  C          7.7900   10.2300   34.9010 C.2   652  ARG652      0.2287
     29  O          7.7350    9.2020   35.5760 O.2   652  ARG652     -0.2864
     30  CB         5.6550    9.4720   33.7470 C.3   652  ARG652      0.0334
     31  CG         4.5590    9.7690   32.7290 C.3   652  ARG652      0.0492
     32  CD         3.5080    8.6720   32.6970 C.3   652  ARG652      0.2205
     33  NE         4.0340    7.4270   32.1130 N.pl3 652  ARG652     -0.0865
     34  CZ         4.4490    6.3550   32.7970 C.cat 652  ARG652      0.5346
     35  NH1        4.4060    6.3200   34.1290 N.pl3 652  ARG652      0.1354
     36  NH2        4.9110    5.2990   32.1340 N.pl3 652  ARG652      0.1354
     37  N         10.5830   13.0550   24.5650 N.3   673  ASN673     -0.1240
     38  CA         9.4180   13.3080   25.4220 C.3   673  ASN673      0.1653
     39  C          9.8240   13.6870   26.8490 C.2   673  ASN673      0.2266
     40  O         10.3500   12.8460   27.5790 O.2   673  ASN673     -0.2867
     41  CB         8.4710   12.1020   25.4330 C.3   673  ASN673      0.1155
     42  CG         7.0810   12.4610   25.9410 C.2   673  ASN673      0.2627
     43  OD1        6.9160   13.4340   26.6770 O.2   673  ASN673     -0.2716
     44  ND2        6.0780   11.6850   25.5510 N.am  673  ASN673     -0.0877
     45  N          7.5060   15.2140   28.9330 N.3   675  SER675     -0.1202
     46  CA         6.2100   15.4290   29.5640 C.3   675  SER675      0.2020
     47  C          6.1360   14.8740   30.9990 C.2   675  SER675      0.2618
     48  O          6.7560   13.8640   31.3160 O.2   675  SER675     -0.2717
     49  CB         5.1240   14.7850   28.6910 C.3   675  SER675      0.2103
     50  OG         3.8280   15.0900   29.1510 O.3   675  SER675     -0.2182
     51  N          5.3840   15.5540   31.8600 N.am  676  ALA676     -0.1979
     52  CA         5.0410   15.0210   33.1930 C.3   676  ALA676      0.1597
     53  C          6.2970   14.7280   33.9900 C.2   676  ALA676      0.2287
     54  O          6.5050   13.6300   34.4880 O.2   676  ALA676     -0.2864
     55  CB         4.1610   13.7800   33.0760 C.3   676  ALA676      0.0319
     56  N          9.9920   16.3630   17.2560 N.3   696  VAL696     -0.1245
     57  CA         9.0400   16.2970   18.3700 C.3   696  VAL696      0.1561
     58  C          9.7540   16.5780   19.6850 C.2   696  VAL696      0.2260
     59  O         10.7070   15.8910   20.0380 O.2   696  VAL696     -0.2867
     60  CB         8.3190   14.9250   18.4860 C.3   696  VAL696      0.0252
     61  CG1        7.3400   14.9360   19.6540 C.3   696  VAL696      0.0019
     62  CG2        7.5840   14.5780   17.2070 C.3   696  VAL696      0.0019
     63  N          8.1790   17.1370   23.3960 N.3   698  ASP698     -0.1239
     64  CA         6.9750   17.2310   24.2000 C.3   698  ASP698      0.1674
     65  C          7.3820   17.6670   25.6000 C.2   698  ASP698      0.2266
     66  O          8.1310   16.9680   26.2850 O.2   698  ASP698     -0.2867
     67  CB         6.2330   15.8980   24.2010 C.3   698  ASP698      0.1410
     68  CG         4.8200   16.0080   24.7540 C.2   698  ASP698      0.3668
     69  OD1        4.5200   16.9800   25.4830 O.co2 698  ASP698     -0.2456
     70  OD2        4.0120   15.1000   24.4680 O.co2 698  ASP698     -0.2456
     71  N          2.5910   19.0680   30.7130 N.3   701  ALA701     -0.1245
     72  CA         2.4640   18.5730   32.0860 C.3   701  ALA701      0.1562
     73  C          3.7430   18.7550   32.9120 C.2   701  ALA701      0.2260
     74  O          4.1590   17.8670   33.6450 O.2   701  ALA701     -0.2867
     75  CB         2.0370   17.1150   32.0710 C.3   701  ALA701      0.0290
     76  N          4.0990   19.7080   20.2930 N.3   724  PRO724     -0.2116
     77  CA         2.6800   19.4170   20.1320 C.3   724  PRO724      0.1372
     78  C          1.8630   20.0440   21.2520 C.2   724  PRO724      0.2244
     79  O          2.2580   19.9960   22.4180 O.2   724  PRO724     -0.2868
     80  CB         2.6290   17.8920   20.2130 C.3   724  PRO724      0.0268
     81  CG         3.7520   17.5420   21.1170 C.3   724  PRO724      0.0207
     82  CD         4.8360   18.5540   20.8440 C.3   724  PRO724      0.0892
@<TRIPOS>BOND
     1    62    60    1
     2    56    57    1
     3    57    60    1
     4    57    58    1
     5    60    61    1
     6    58    59    2
     7    77    80    1
     8    77    76    1
     9    77    78    1
    10    80    81    1
    11    76    82    1
    12    82    81    1
    13    78    79    2
    14    63    64    1
    15    64    67    1
    16    64    65    1
    17    67    68    1
    18    70    68   ar
    19    37    38    1
    20    68    69   ar
    21    12    13    1
    22    38    41    1
    23    38    39    1
    24    41    42    1
    25    44    42   am
    26    65    66    2
    27    16    13    1
    28    16    17    1
    29    42    43    2
    30    19    17   ar
    31    13    14    1
    32    17    18   ar
    33    39    40    2
    34    14    15    2
    35    11     9    1
    36     7     8    1
    37     7     6    1
    38     9     8    2
    39     9    10    1
    40    49    50    1
    41    49    46    1
    42    45    46    1
    43     6     5    1
    44    25    24    1
    45    24    21    1
    46    46    47    1
    47    20    21    1
    48    21    22    1
    49     5     2    1
    50    71    72    1
    51     1     2    1
    52    47    48    2
    53    47    51   am
    54     2     3    1
    55    22    23    2
    56    22    26   am
    57    51    52    1
    58    75    72    1
    59    72    73    1
    60    33    32    1
    61    33    34    2
    62    36    34    1
    63    26    27    1
    64    32    31    1
    65    31    30    1
    66     3     4    2
    67    34    35    1
    68    73    74    2
    69    55    52    1
    70    52    53    1
    71    30    27    1
    72    27    28    1
    73    53    54    2
    74    28    29    2
