@<TRIPOS>MOLECULE
tmp/3wpnA00.pdb
 126 116 0 0 0
SMALL
GASTEIGER

@<TRIPOS>ATOM
      1  N         -4.8500    7.7250   30.8340 N.3    88  TYR88      -0.1241
      2  CA        -3.6370    7.2380   31.4680 C.3    88  TYR88       0.1605
      3  C         -3.8000    5.8200   32.0030 C.2    88  TYR88       0.2264
      4  O         -4.6970    5.5620   32.7820 O.2    88  TYR88      -0.2867
      5  CB        -3.2230    8.1590   32.5960 C.3    88  TYR88       0.0534
      6  CG        -1.9440    7.6890   33.2140 C.ar   88  TYR88      -0.0201
      7  CD1       -1.9280    6.6920   34.2070 C.ar   88  TYR88      -0.0009
      8  CD2       -0.7330    8.1890   32.7690 C.ar   88  TYR88      -0.0009
      9  CE1       -0.7270    6.2530   34.7310 C.ar   88  TYR88       0.0417
     10  CE2        0.4460    7.7620   33.3060 C.ar   88  TYR88       0.0417
     11  CZ         0.4470    6.8100   34.2690 C.ar   88  TYR88       0.1957
     12  OH         1.6550    6.4290   34.7550 O.3    88  TYR88      -0.2866
     13  N         -1.5280    9.5980   27.3510 N.3   224  LEU224     -0.1245
     14  CA        -0.2930    9.7490   28.1030 C.3   224  LEU224      0.1561
     15  C          0.4790    8.4410   28.1620 C.2   224  LEU224      0.2260
     16  O         -0.1100    7.3770   28.3310 O.2   224  LEU224     -0.2867
     17  CB        -0.6130   10.2340   29.5200 C.3   224  LEU224      0.0270
     18  CG        -1.4360   11.5210   29.6600 C.3   224  LEU224      0.0019
     19  CD1       -1.8250   11.7180   31.1190 C.3   224  LEU224      0.0001
     20  CD2       -0.6560   12.7250   29.1440 C.3   224  LEU224      0.0001
     21  N          4.5020    5.0550   33.0270 N.3   227  SER227     -0.1217
     22  CA         5.7620    5.1790   33.7500 C.3   227  SER227      0.1889
     23  C          6.3890    3.8120   34.0120 C.2   227  SER227      0.2288
     24  O          7.6140    3.6600   33.9380 O.2   227  SER227     -0.2866
     25  CB         5.5670    5.9530   35.0600 C.3   227  SER227      0.2089
     26  OG         4.3860    5.5500   35.7420 O.3   227  SER227     -0.2183
     27  N         12.2790   10.5140   34.8270 N.3   228  ILE228     -0.1231
     28  CA        12.6830   10.0880   33.4330 C.3   228  ILE228      0.1692
     29  C         11.7850   10.5320   32.2580 C.2   228  ILE228      0.2592
     30  O         12.2410   10.5060   31.1100 O.2   228  ILE228     -0.2718
     31  CB        13.0540    8.5620   33.2920 C.3   228  ILE228      0.0266
     32  CG1       12.2020    7.6790   34.1950 C.3   228  ILE228      0.0019
     33  CG2       14.5840    8.3430   33.5080 C.3   228  ILE228      0.0020
     34  CD1       12.7420    6.2500   34.3540 C.3   228  ILE228      0.0001
     35  N         10.5310   10.9020   32.5250 N.am  229  ASN229     -0.1974
     36  CA         9.6300   11.4080   31.4680 C.3   229  ASN229      0.1688
     37  C          9.1580   12.8080   31.8500 C.2   229  ASN229      0.2292
     38  O          8.1760   12.9780   32.5640 O.2   229  ASN229     -0.2864
     39  CB         8.4470   10.4520   31.2040 C.3   229  ASN229      0.1181
     40  CG         7.8080   10.6370   29.8010 C.2   229  ASN229      0.2629
     41  OD1        7.2320   11.6840   29.4950 O.2   229  ASN229     -0.2716
     42  ND2        7.8750    9.5910   28.9680 N.am  229  ASN229     -0.0877
     43  N          5.4430   13.6200   31.7340 N.3   232  LEU232     -0.1231
     44  CA         4.7040   12.9430   32.7800 C.3   232  LEU232      0.1693
     45  C          5.0160   13.5400   34.1420 C.2   232  LEU232      0.2591
     46  O          4.1020   13.9640   34.8570 O.2   232  LEU232     -0.2718
     47  CB         4.9710   11.4350   32.7740 C.3   232  LEU232      0.0284
     48  CG         3.9720   10.6120   33.5960 C.3   232  LEU232      0.0019
     49  CD1        2.5320   10.7770   33.0540 C.3   232  LEU232      0.0001
     50  CD2        4.3700    9.1520   33.6130 C.3   232  LEU232      0.0001
     51  N          6.2980   13.5870   34.4970 N.am  233  LEU233     -0.1980
     52  CA         6.7280   14.1600   35.7680 C.3   233  LEU233      0.1596
     53  C          6.0940   15.5370   36.0050 C.2   233  LEU233      0.2287
     54  O          5.4380   15.7540   37.0130 O.2   233  LEU233     -0.2864
     55  CB         8.2510   14.2490   35.8160 C.3   233  LEU233      0.0297
     56  CG         8.9220   14.9410   37.0060 C.3   233  LEU233      0.0022
     57  CD1        8.5740   14.2950   38.3500 C.3   233  LEU233      0.0001
     58  CD2       10.4120   14.9540   36.8010 C.3   233  LEU233      0.0001
     59  N          3.5880   16.9840   34.4550 N.3   235  LEU235     -0.1231
     60  CA         2.1520   16.7400   34.5870 C.3   235  LEU235      0.1693
     61  C          1.7850   16.4810   36.0370 C.2   235  LEU235      0.2592
     62  O          0.8340   17.0800   36.5310 O.2   235  LEU235     -0.2718
     63  CB         1.6560   15.5990   33.6940 C.3   235  LEU235      0.0284
     64  CG         0.1300   15.4690   33.6590 C.3   235  LEU235      0.0019
     65  CD1       -0.4890   16.6940   33.0200 C.3   235  LEU235      0.0001
     66  CD2       -0.2960   14.2380   32.9080 C.3   235  LEU235      0.0001
     67  N          2.5570   15.6240   36.7120 N.am  236  GLY236     -0.1957
     68  CA         2.3860   15.3780   38.1430 C.3   236  GLY236      0.1869
     69  C          2.5230   16.6290   38.9750 C.2   236  GLY236      0.2309
     70  O          1.6160   16.9860   39.7200 O.2   236  GLY236     -0.2863
     71  N         -0.2930   19.0320   38.6660 N.3   239  ILE239     -0.1245
     72  CA        -1.4540   18.5580   39.4290 C.3   239  ILE239      0.1561
     73  C         -1.2550   19.0480   40.8820 C.2   239  ILE239      0.2260
     74  O         -2.0510   19.8340   41.4300 O.2   239  ILE239     -0.2867
     75  CB        -1.6220   16.9710   39.4110 C.3   239  ILE239      0.0252
     76  CG1       -1.8170   16.3830   38.0000 C.3   239  ILE239      0.0019
     77  CG2       -2.7350   16.5020   40.3610 C.3   239  ILE239      0.0019
     78  CD1       -2.9740   16.9340   37.2790 C.3   239  ILE239      0.0001
     79  N        -10.3820   13.0630   32.8980 N.3   272  ILE272     -0.1245
     80  CA        -9.2930   12.1090   32.9960 C.3   272  ILE272      0.1561
     81  C         -9.8380   10.7270   33.2010 C.2   272  ILE272      0.2260
     82  O        -10.6870   10.5180   34.0750 O.2   272  ILE272     -0.2867
     83  CB        -8.3750   12.4210   34.1860 C.3   272  ILE272      0.0252
     84  CG1       -7.7820   13.8290   34.0220 C.3   272  ILE272      0.0019
     85  CG2       -7.3030   11.3010   34.3740 C.3   272  ILE272      0.0019
     86  CD1       -6.4850   14.0170   34.6410 C.3   272  ILE272      0.0001
     87  N         -8.2640    7.1880   34.1020 N.3   274  ALA274     -0.1245
     88  CA        -7.0830    6.4740   34.5890 C.3   274  ALA274      0.1562
     89  C         -7.4290    4.9940   34.7090 C.2   274  ALA274      0.2260
     90  O         -8.4110    4.6310   35.3680 O.2   274  ALA274     -0.2867
     91  CB        -6.6940    7.0190   35.9080 C.3   274  ALA274      0.0290
     92  N         -0.0540    4.8300   42.9420 N.3   288  SER288     -0.1202
     93  CA         0.3710    6.0750   42.2890 C.3   288  SER288      0.2020
     94  C         -0.7300    6.7400   41.4550 C.2   288  SER288      0.2619
     95  O         -0.9980    7.9270   41.5990 O.2   288  SER288     -0.2717
     96  CB         1.5810    5.7770   41.3930 C.3   288  SER288      0.2103
     97  OG         2.1450    6.9580   40.8490 O.3   288  SER288     -0.2182
     98  N         -1.3530    5.9610   40.5810 N.am  289  THR289     -0.1952
     99  CA        -2.2920    6.4760   39.6010 C.3   289  THR289      0.1897
    100  C         -3.4660    7.0930   40.3020 C.2   289  THR289      0.2313
    101  O         -3.9320    8.1810   39.9250 O.2   289  THR289     -0.2863
    102  CB        -2.7610    5.3580   38.6820 C.3   289  THR289      0.1794
    103  OG1       -1.6350    4.8660   37.9460 O.3   289  THR289     -0.2208
    104  CG2       -3.8570    5.8370   37.7250 C.3   289  THR289      0.0378
    105  N         -2.4900   10.6910   41.8960 N.3   292  TYR292     -0.1227
    106  CA        -2.6410   11.7750   40.9190 C.3   292  TYR292      0.1736
    107  C         -4.0890   12.0040   40.5300 C.2   292  TYR292      0.2595
    108  O         -4.5340   13.1500   40.4110 O.2   292  TYR292     -0.2718
    109  CB        -1.7810   11.5470   39.6710 C.3   292  TYR292      0.0548
    110  CG        -0.3150   11.6340   39.9930 C.ar  292  TYR292     -0.0200
    111  CD1        0.3120   12.8700   40.1220 C.ar  292  TYR292     -0.0009
    112  CD2        0.4400   10.4830   40.2210 C.ar  292  TYR292     -0.0009
    113  CE1        1.6490   12.9640   40.4440 C.ar  292  TYR292      0.0417
    114  CE2        1.7860   10.5740   40.5470 C.ar  292  TYR292      0.0417
    115  CZ         2.3740   11.8210   40.6580 C.ar  292  TYR292      0.1957
    116  OH         3.6940   11.9240   40.9760 O.3   292  TYR292     -0.2866
    117  N         -4.8250   10.9120   40.3430 N.am  293  ALA293     -0.1980
    118  CA        -6.1790   11.0250   39.8500 C.3   293  ALA293      0.1597
    119  C         -7.0110   11.6750   40.9310 C.2   293  ALA293      0.2287
    120  O         -7.8160   12.5810   40.6650 O.2   293  ALA293     -0.2864
    121  CB        -6.7250    9.6610   39.4780 C.3   293  ALA293      0.0319
    122  N         -6.0890   15.2800   41.0670 N.3   296  ALA296     -0.1245
    123  CA        -6.6270   15.9630   39.9020 C.3   296  ALA296      0.1562
    124  C         -8.0910   16.3720   40.0120 C.2   296  ALA296      0.2260
    125  O         -8.4220   17.4950   39.6390 O.2   296  ALA296     -0.2867
    126  CB        -6.3720   15.1990   38.6300 C.3   296  ALA296      0.0290
@<TRIPOS>BOND
     1    13    14    1
     2    14    15    1
     3    14    17    1
     4    15    16    2
     5    42    40   am
     6    20    18    1
     7    41    40    2
     8    17    18    1
     9    18    19    1
    10    40    39    1
    11     1     2    1
    12    30    29    2
    13    39    36    1
    14     2     3    1
    15     2     5    1
    16    36    37    1
    17    36    35    1
    18    43    44    1
    19    37    38    2
    20     3     4    2
    21    29    35   am
    22    29    28    1
    23     5     6    1
    24     8     6   ar
    25     8    10   ar
    26    47    44    1
    27    47    48    1
    28    44    45    1
    29    79    80    1
    30    66    64    1
    31    80    81    1
    32    80    83    1
    33    65    64    1
    34    21    22    1
    35    49    48    1
    36    81    82    2
    37     6     7   ar
    38    31    28    1
    39    31    33    1
    40    31    32    1
    41    10    11   ar
    42    28    27    1
    43    48    50    1
    44    64    63    1
    45    63    60    1
    46    22    23    1
    47    22    25    1
    48    24    23    2
    49    84    83    1
    50    84    86    1
    51    87    88    1
    52    45    51   am
    53    45    46    2
    54    83    85    1
    55    32    34    1
    56     7     9   ar
    57    11     9   ar
    58    11    12    1
    59    59    60    1
    60    51    52    1
    61    60    61    1
    62    88    89    1
    63    88    91    1
    64    89    90    2
    65    25    26    1
    66    52    55    1
    67    52    53    1
    68    55    56    1
    69    53    54    2
    70    61    62    2
    71    61    67   am
    72    67    68    1
    73    58    56    1
    74    56    57    1
    75    78    76    1
    76   104   102    1
    77   103   102    1
    78    76    75    1
    79    68    69    1
    80   126   123    1
    81    71    72    1
    82   102    99    1
    83    69    70    2
    84    75    72    1
    85    75    77    1
    86    72    73    1
    87   121   118    1
    88    99   100    1
    89    99    98    1
    90   125   124    2
    91   109   110    1
    92   109   106    1
    93   118   117    1
    94   118   119    1
    95   123   124    1
    96   123   122    1
    97   101   100    2
    98   110   111   ar
    99   110   112   ar
   100   111   113   ar
   101   112   114   ar
   102   117   107   am
   103   108   107    2
   104   113   115   ar
   105   107   106    1
   106   114   115   ar
   107    98    94   am
   108   115   116    1
   109   120   119    2
   110    97    96    1
   111    73    74    2
   112   106   105    1
   113    96    93    1
   114    94    95    2
   115    94    93    1
   116    93    92    1
