@<TRIPOS>MOLECULE
tmp/3wptA04.pdb
 87 82 0 0 0
SMALL
GASTEIGER

@<TRIPOS>ATOM
      1  N         33.6960   89.8690   44.3310 N.3   188  HIS188     -0.1226
      2  CA        35.0690   90.3590   44.2710 C.3   188  HIS188      0.1752
      3  C         35.7040   89.9190   42.9510 C.2   188  HIS188      0.2596
      4  O         35.1090   89.1400   42.2070 O.2   188  HIS188     -0.2718
      5  CB        35.8750   89.8470   45.4650 C.3   188  HIS188      0.0759
      6  CG        37.0160   90.7360   45.8530 C.ar  188  HIS188      0.0818
      7  ND1       38.3340   90.3610   45.7140 N.ar  188  HIS188     -0.2268
      8  CD2       37.0340   91.9860   46.3730 C.ar  188  HIS188      0.1154
      9  CE1       39.1160   91.3400   46.1330 C.ar  188  HIS188      0.1986
     10  NE2       38.3510   92.3380   46.5380 N.ar  188  HIS188     -0.2212
     11  N         36.9010   90.4190   42.6570 N.am  189  ASP189     -0.1974
     12  CA        37.5510   90.1380   41.3770 C.3   189  ASP189      0.1709
     13  C         38.7450   89.1970   41.5230 C.2   189  ASP189      0.2293
     14  O         39.2260   88.6400   40.5370 O.2   189  ASP189     -0.2864
     15  CB        38.0000   91.4420   40.7150 C.3   189  ASP189      0.1436
     16  CG        39.0470   92.1780   41.5240 C.2   189  ASP189      0.3671
     17  OD1       39.0390   92.0580   42.7680 O.co2 189  ASP189     -0.2456
     18  OD2       39.8810   92.8800   40.9140 O.co2 189  ASP189     -0.2456
     19  N         40.6990   85.9090   42.0510 N.3   191  PRO191     -0.2116
     20  CA        40.2930   84.5190   41.8030 C.3   191  PRO191      0.1372
     21  C         40.3910   83.6140   43.0310 C.2   191  PRO191      0.2244
     22  O         39.6040   82.6750   43.1560 O.2   191  PRO191     -0.2868
     23  CB        41.2690   84.0590   40.7160 C.3   191  PRO191      0.0268
     24  CG        42.4660   84.9270   40.8910 C.3   191  PRO191      0.0207
     25  CD        41.9420   86.2550   41.3400 C.3   191  PRO191      0.0892
     26  N         37.3710   84.2170   45.2870 N.3   194  LEU194     -0.1245
     27  CA        36.2160   83.5960   44.6470 C.3   194  LEU194      0.1561
     28  C         36.1830   82.0880   44.8740 C.2   194  LEU194      0.2260
     29  O         35.1390   81.5280   45.2090 O.2   194  LEU194     -0.2867
     30  CB        36.2230   83.8940   43.1450 C.3   194  LEU194      0.0270
     31  CG        35.4800   85.1390   42.6510 C.3   194  LEU194      0.0019
     32  CD1       35.4670   86.2550   43.6790 C.3   194  LEU194      0.0001
     33  CD2       36.1140   85.6350   41.3590 C.3   194  LEU194      0.0001
     34  N         24.7990   84.7990   40.6330 N.3   223  GLN223     -0.1245
     35  CA        26.2390   85.0340   40.6530 C.3   223  GLN223      0.1566
     36  C         27.0120   83.7220   40.5320 C.2   223  GLN223      0.2260
     37  O         28.0250   83.6610   39.8400 O.2   223  GLN223     -0.2867
     38  CB        26.6480   85.7720   41.9300 C.3   223  GLN223      0.0367
     39  CG        28.1210   86.1610   41.9890 C.3   223  GLN223      0.0905
     40  CD        28.5080   87.1630   40.9170 C.2   223  GLN223      0.2608
     41  OE1       27.6550   87.6930   40.2070 O.2   223  GLN223     -0.2717
     42  NE2       29.8050   87.4290   40.7980 N.am  223  GLN223     -0.0878
     43  N         27.1580   82.8110   37.0560 N.3   226  LYS226     -0.1231
     44  CA        28.1290   83.6350   36.3450 C.3   226  LYS226      0.1693
     45  C         29.5260   83.0340   36.4800 C.2   226  LYS226      0.2591
     46  O         30.2480   82.9070   35.4930 O.2   226  LYS226     -0.2718
     47  CB        28.1080   85.0710   36.8740 C.3   226  LYS226      0.0285
     48  CG        29.1200   86.0020   36.2220 C.3   226  LYS226      0.0035
     49  CD        29.0880   87.3830   36.8640 C.3   226  LYS226      0.0206
     50  CE        30.2480   88.2500   36.3950 C.3   226  LYS226      0.1093
     51  NZ        30.3010   89.5490   37.1250 N.3   226  LYS226     -0.1314
     52  N         29.9010   82.6650   37.7020 N.am  227  LEU227     -0.1980
     53  CA        31.2030   82.0490   37.9520 C.3   227  LEU227      0.1596
     54  C         31.2870   80.6720   37.3030 C.2   227  LEU227      0.2287
     55  O         32.3750   80.1800   36.9970 O.2   227  LEU227     -0.2864
     56  CB        31.4690   81.9280   39.4580 C.3   227  LEU227      0.0297
     57  CG        31.9560   83.1510   40.2500 C.3   227  LEU227      0.0022
     58  CD1       32.2100   84.3660   39.3740 C.3   227  LEU227      0.0001
     59  CD2       30.9820   83.5050   41.3570 C.3   227  LEU227      0.0001
     60  N         33.3250   80.7690   34.2710 N.3   230  ALA230     -0.1231
     61  CA        34.6280   81.4180   34.3950 C.3   230  ALA230      0.1694
     62  C         35.7220   80.5670   33.7560 C.2   230  ALA230      0.2593
     63  O         35.5270   79.3780   33.5050 O.2   230  ALA230     -0.2718
     64  CB        34.9470   81.6800   35.8530 C.3   230  ALA230      0.0304
     65  N         36.8760   81.1780   33.5020 N.am  231  SER231     -0.1938
     66  CA        37.9790   80.4850   32.8420 C.3   231  SER231      0.2055
     67  C         38.8310   79.7020   33.8400 C.2   231  SER231      0.2642
     68  O         39.4550   78.7030   33.4810 O.2   231  SER231     -0.2714
     69  CB        38.8560   81.4790   32.0800 C.3   231  SER231      0.2130
     70  OG        39.5590   82.3260   32.9700 O.3   231  SER231     -0.2179
     71  N         38.8600   80.1590   35.0880 N.am  232  GLU232     -0.1976
     72  CA        39.6390   79.4880   36.1250 C.3   232  GLU232      0.1602
     73  C         38.9330   78.2230   36.5980 C.2   232  GLU232      0.2287
     74  O         37.8430   78.2820   37.1690 O.2   232  GLU232     -0.2864
     75  CB        39.8860   80.4140   37.3200 C.3   232  GLU232      0.0415
     76  CG        40.6980   81.6620   37.0080 C.3   232  GLU232      0.1163
     77  CD        39.9010   82.7310   36.2860 C.2   232  GLU232      0.3649
     78  OE1       38.6800   82.5520   36.1070 O.co2 232  GLU232     -0.2457
     79  OE2       40.5000   83.7540   35.8940 O.co2 232  GLU232     -0.2457
     80  N         37.6910   77.8890   40.1350 N.3   235  ILE235     -0.1245
     81  CA        36.4440   78.5730   40.4620 C.3   235  ILE235      0.1561
     82  C         35.2420   77.7840   39.9430 C.2   235  ILE235      0.2260
     83  O         34.2470   77.6230   40.6470 O.2   235  ILE235     -0.2867
     84  CB        36.4190   79.9990   39.8800 C.3   235  ILE235      0.0252
     85  CG1       37.5270   80.8450   40.5210 C.3   235  ILE235      0.0019
     86  CG2       35.0540   80.6500   40.1100 C.3   235  ILE235      0.0019
     87  CD1       37.6830   82.2350   39.9270 C.3   235  ILE235      0.0001
@<TRIPOS>BOND
     1    69    66    1
     2    69    70    1
     3    66    65    1
     4    66    67    1
     5    68    67    2
     6    65    62   am
     7    63    62    2
     8    62    61    1
     9    67    71   am
    10    60    61    1
    11    61    64    1
    12    71    72    1
    13    46    45    2
    14    79    77   ar
    15    78    77   ar
    16    72    73    1
    17    72    75    1
    18    48    49    1
    19    48    47    1
    20    77    76    1
    21    44    45    1
    22    44    47    1
    23    44    43    1
    24    50    49    1
    25    50    51    1
    26    45    52   am
    27    73    74    2
    28    55    54    2
    29    76    75    1
    30    54    53    1
    31    52    53    1
    32    53    56    1
    33    58    57    1
    34    56    57    1
    35    37    36    2
    36    84    86    1
    37    84    81    1
    38    84    85    1
    39    87    85    1
    40    82    81    1
    41    82    83    2
    42    80    81    1
    43    41    40    2
    44    57    59    1
    45    36    35    1
    46    14    13    2
    47    34    35    1
    48    35    38    1
    49    15    12    1
    50    15    16    1
    51    23    24    1
    52    23    20    1
    53    42    40   am
    54    24    25    1
    55    18    16   ar
    56    40    39    1
    57    25    19    1
    58    33    31    1
    59    12    13    1
    60    12    11    1
    61    16    17   ar
    62    20    19    1
    63    20    21    1
    64    38    39    1
    65     4     3    2
    66    31    30    1
    67    31    32    1
    68    11     3   am
    69     3     2    1
    70    21    22    2
    71    30    27    1
    72     2     1    1
    73     2     5    1
    74    27    28    1
    75    27    26    1
    76    28    29    2
    77     5     6    1
    78     7     6   ar
    79     7     9   ar
    80     6     8   ar
    81     9    10   ar
    82     8    10   ar
