@<TRIPOS>MOLECULE
tmp/3wptA00.pdb
 92 85 0 0 0
SMALL
GASTEIGER

@<TRIPOS>ATOM
      1  N          9.3200   61.5330   26.4840 N.3   339  ILE339     -0.1231
      2  CA         9.9980   60.2470   26.3460 C.3   339  ILE339      0.1692
      3  C         10.1390   59.8500   24.8780 C.2   339  ILE339      0.2591
      4  O         11.1260   59.2260   24.4920 O.2   339  ILE339     -0.2718
      5  CB         9.2550   59.1350   27.1080 C.3   339  ILE339      0.0266
      6  CG1        9.3530   59.3790   28.6160 C.3   339  ILE339      0.0019
      7  CG2        9.8470   57.7660   26.7760 C.3   339  ILE339      0.0020
      8  CD1        8.4620   58.4780   29.4570 C.3   339  ILE339      0.0001
      9  N          9.1460   60.1960   24.0660 N.am  340  VAL340     -0.1980
     10  CA         9.2340   59.9690   22.6290 C.3   340  VAL340      0.1595
     11  C         10.3930   60.7740   22.0510 C.2   340  VAL340      0.2287
     12  O         11.1460   60.2820   21.2090 O.2   340  VAL340     -0.2864
     13  CB         7.9260   60.3510   21.9130 C.3   340  VAL340      0.0276
     14  CG1        8.1080   60.3440   20.3960 C.3   340  VAL340      0.0022
     15  CG2        6.8060   59.3950   22.3100 C.3   340  VAL340      0.0022
     16  N         13.7460   59.2030   22.8340 N.3   343  VAL343     -0.1231
     17  CA        14.0300   58.0860   21.9400 C.3   343  VAL343      0.1692
     18  C         14.4580   58.5820   20.5620 C.2   343  VAL343      0.2592
     19  O         15.3270   57.9880   19.9230 O.2   343  VAL343     -0.2718
     20  CB        12.8070   57.1600   21.7960 C.3   343  VAL343      0.0266
     21  CG1       13.0490   56.0950   20.7300 C.3   343  VAL343      0.0020
     22  CG2       12.4860   56.5000   23.1290 C.3   343  VAL343      0.0020
     23  N         13.8370   59.6630   20.1030 N.am  344  HIS344     -0.1976
     24  CA        14.1760   60.2430   18.8090 C.3   344  HIS344      0.1656
     25  C         15.5750   60.8530   18.8190 C.2   344  HIS344      0.2291
     26  O         16.1980   61.0040   17.7680 O.2   344  HIS344     -0.2864
     27  CB        13.1400   61.2970   18.4090 C.3   344  HIS344      0.0771
     28  CG        11.8640   60.7180   17.8770 C.ar  344  HIS344      0.0820
     29  ND1       10.6590   61.3860   17.9370 N.ar  344  HIS344     -0.2267
     30  CD2       11.6070   59.5370   17.2650 C.ar  344  HIS344      0.1154
     31  CE1        9.7160   60.6390   17.3920 C.ar  344  HIS344      0.1986
     32  NE2       10.2650   59.5120   16.9750 N.ar  344  HIS344     -0.2212
     33  N         10.3360   53.5710   29.3910 N.3   373  ILE373     -0.1245
     34  CA        10.1520   53.9200   27.9890 C.3   373  ILE373      0.1561
     35  C          9.0700   53.0420   27.3720 C.2   373  ILE373      0.2260
     36  O          8.2890   53.5010   26.5400 O.2   373  ILE373     -0.2867
     37  CB        11.4600   53.7710   27.1880 C.3   373  ILE373      0.0252
     38  CG1       12.5050   54.7670   27.6980 C.3   373  ILE373      0.0019
     39  CG2       11.2080   54.0090   25.6990 C.3   373  ILE373      0.0019
     40  CD1       13.8890   54.5830   27.1050 C.3   373  ILE373      0.0001
     41  N          5.7030   54.1920   28.3730 N.3   376  ALA376     -0.1231
     42  CA         5.3590   55.3310   27.5320 C.3   376  ALA376      0.1694
     43  C          4.8930   54.8480   26.1630 C.2   376  ALA376      0.2591
     44  O          4.0650   55.4900   25.5180 O.2   376  ALA376     -0.2718
     45  CB         6.5420   56.2690   27.3920 C.3   376  ALA376      0.0304
     46  N          5.4280   53.7110   25.7270 N.am  377  ALA377     -0.1980
     47  CA         5.0440   53.1290   24.4450 C.3   377  ALA377      0.1597
     48  C          3.6790   52.4470   24.5390 C.2   377  ALA377      0.2287
     49  O          2.9510   52.3660   23.5500 O.2   377  ALA377     -0.2864
     50  CB         6.1010   52.1420   23.9740 C.3   377  ALA377      0.0319
     51  N          0.8270   54.7580   24.0850 N.3   380  LEU380     -0.1245
     52  CA         0.7670   55.1180   22.6710 C.3   380  LEU380      0.1561
     53  C          0.3400   53.9390   21.7970 C.2   380  LEU380      0.2260
     54  O         -0.1300   54.1260   20.6730 O.2   380  LEU380     -0.2867
     55  CB         2.1300   55.6430   22.2120 C.3   380  LEU380      0.0270
     56  CG         2.1500   57.0100   21.5250 C.3   380  LEU380      0.0019
     57  CD1        1.5430   58.0910   22.4140 C.3   380  LEU380      0.0001
     58  CD2        3.5800   57.3760   21.1470 C.3   380  LEU380      0.0001
     59  N          2.4560   51.4870   20.8270 N.3   382  GLU382     -0.1245
     60  CA         3.5640   51.2360   19.9110 C.3   382  GLU382      0.1567
     61  C          4.6620   50.4290   20.5970 C.2   382  GLU382      0.2260
     62  O          5.8440   50.5900   20.2930 O.2   382  GLU382     -0.2867
     63  CB         4.1350   52.5550   19.3870 C.3   382  GLU382      0.0388
     64  CG         3.0920   53.4970   18.8000 C.3   382  GLU382      0.1160
     65  CD         3.7110   54.7240   18.1570 C.2   382  GLU382      0.3649
     66  OE1        4.7910   54.5960   17.5430 O.co2 382  GLU382     -0.2457
     67  OE2        3.1190   55.8190   18.2670 O.co2 382  GLU382     -0.2457
     68  N          6.6060   48.3740   18.1700 N.3   385  LYS385     -0.1231
     69  CA         7.5080   49.1500   17.3260 C.3   385  LYS385      0.1693
     70  C          8.8260   49.4350   18.0410 C.2   385  LYS385      0.2591
     71  O          9.8870   49.4570   17.4160 O.2   385  LYS385     -0.2718
     72  CB         6.8480   50.4620   16.9020 C.3   385  LYS385      0.0285
     73  CG         5.5980   50.2730   16.0590 C.3   385  LYS385      0.0035
     74  CD         5.0710   51.5990   15.5300 C.3   385  LYS385      0.0206
     75  CE         3.8580   51.3960   14.6360 C.3   385  LYS385      0.1093
     76  NZ         2.7250   50.7510   15.3580 N.3   385  LYS385     -0.1314
     77  N          8.7540   49.6560   19.3500 N.am  386  LEU386     -0.1980
     78  CA         9.9530   49.8690   20.1510 C.3   386  LEU386      0.1596
     79  C         10.7400   48.5710   20.2850 C.2   386  LEU386      0.2287
     80  O         11.9660   48.5860   20.3760 O.2   386  LEU386     -0.2864
     81  CB         9.5920   50.4110   21.5360 C.3   386  LEU386      0.0297
     82  CG        10.7710   50.6940   22.4730 C.3   386  LEU386      0.0022
     83  CD1       11.6350   51.8270   21.9390 C.3   386  LEU386      0.0001
     84  CD2       10.2760   51.0150   23.8710 C.3   386  LEU386      0.0001
     85  N         12.8520   48.2010   17.3820 N.3   389  MET389     -0.1245
     86  CA        13.8290   49.2800   17.4760 C.3   389  MET389      0.1570
     87  C         14.9990   48.8710   18.3680 C.2   389  MET389      0.2261
     88  O         16.1230   49.3440   18.1920 O.2   389  MET389     -0.2867
     89  CB        13.1650   50.5480   18.0150 C.3   389  MET389      0.0387
     90  CG        14.0260   51.7950   17.9170 C.3   389  MET389      0.0595
     91  SD        13.1810   53.1550   17.0850 S.3   389  MET389     -0.1393
     92  CE        11.7410   53.3700   18.1300 C.3   389  MET389      0.0692
@<TRIPOS>BOND
     1    75    76    1
     2    75    74    1
     3    74    73    1
     4    73    72    1
     5    72    69    1
     6    32    30   ar
     7    32    31   ar
     8    91    90    1
     9    91    92    1
    10    30    28   ar
    11    69    70    1
    12    69    68    1
    13    85    86    1
    14    31    29   ar
    15    71    70    2
    16    86    89    1
    17    86    87    1
    18    66    65   ar
    19    26    25    2
    20    28    29   ar
    21    28    27    1
    22    90    89    1
    23    70    77   am
    24    65    67   ar
    25    65    64    1
    26    88    87    2
    27    27    24    1
    28    64    63    1
    29    24    25    1
    30    24    23    1
    31    77    78    1
    32    63    60    1
    33    60    61    1
    34    60    59    1
    35    19    18    2
    36    23    18   am
    37    78    79    1
    38    78    81    1
    39    79    80    2
    40    62    61    2
    41    14    13    1
    42    18    17    1
    43    54    53    2
    44    21    20    1
    45    58    56    1
    46    12    11    2
    47    56    55    1
    48    56    57    1
    49    81    82    1
    50    20    17    1
    51    20    22    1
    52    53    52    1
    53    13    15    1
    54    13    10    1
    55    83    82    1
    56    17    16    1
    57    11    10    1
    58    55    52    1
    59    82    84    1
    60    10     9    1
    61    52    51    1
    62    49    48    2
    63    50    47    1
    64     9     3   am
    65    47    48    1
    66    47    46    1
    67     4     3    2
    68     3     2    1
    69    44    43    2
    70    39    37    1
    71    46    43   am
    72    43    42    1
    73     2     1    1
    74     2     5    1
    75    36    35    2
    76     7     5    1
    77    40    38    1
    78     5     6    1
    79    37    38    1
    80    37    34    1
    81    35    34    1
    82    45    42    1
    83    42    41    1
    84    34    33    1
    85     6     8    1
