@<TRIPOS>MOLECULE
tmp/3wq0A01.pdb
 218 212 0 0 0
SMALL
GASTEIGER

@<TRIPOS>ATOM
      1  N         34.9010   13.6380   -0.8620 N.3    13  TRP13      -0.1241
      2  CA        34.3240   13.2880    0.4180 C.3    13  TRP13       0.1605
      3  C         35.4130   13.1180    1.4740 C.2    13  TRP13       0.2264
      4  O         35.4800   12.1050    2.1720 O.2    13  TRP13      -0.2867
      5  CB        33.4590   12.0100    0.2960 C.3    13  TRP13       0.0550
      6  CG        32.3570   12.1650   -0.7020 C.ar   13  TRP13       0.0003
      7  CD1       32.3790   11.8410   -2.0010 C.ar   13  TRP13       0.0946
      8  CD2       31.0480   12.7270   -0.4400 C.ar   13  TRP13       0.0152
      9  NE1       31.1920   12.1280   -2.6230 N.ar   13  TRP13      -0.2442
     10  CE2       30.3300   12.6700   -1.6760 C.ar   13  TRP13       0.0810
     11  CE3       30.3930   13.2010    0.7320 C.ar   13  TRP13       0.0012
     12  CZ2       28.9720   13.0950   -1.7660 C.ar   13  TRP13       0.0191
     13  CZ3       29.0790   13.6270    0.6240 C.ar   13  TRP13       0.0001
     14  CH2       28.4080   13.5510   -0.6420 C.ar   13  TRP13       0.0015
     15  N         34.5460   15.6130    8.9960 N.3    31  GLU31      -0.1245
     16  CA        34.1960   15.4770    7.5960 C.3    31  GLU31       0.1567
     17  C         34.0630   16.8790    6.9800 C.2    31  GLU31       0.2260
     18  O         33.3650   17.7350    7.5490 O.2    31  GLU31      -0.2867
     19  CB        32.8070   14.7840    7.3960 C.3    31  GLU31       0.0388
     20  CG        32.7450   13.3870    7.9420 C.3    31  GLU31       0.1160
     21  CD        31.4150   12.6880    7.7210 C.2    31  GLU31       0.3649
     22  OE1       30.4620   13.3400    7.1320 O.co2  31  GLU31      -0.2457
     23  OE2       31.2600   11.5310    8.1580 O.co2  31  GLU31      -0.2457
     24  N         32.3960   17.2500    4.1800 N.3    33  ASN33      -0.1240
     25  CA        30.9720   17.1050    3.9940 C.3    33  ASN33       0.1653
     26  C         30.3530   18.1640    3.1180 C.2    33  ASN33       0.2266
     27  O         29.2930   18.7500    3.4720 O.2    33  ASN33      -0.2867
     28  CB        30.2440   17.0250    5.3560 C.3    33  ASN33       0.1155
     29  CG        28.8300   16.5040    5.2620 C.2    33  ASN33       0.2627
     30  OD1       28.5300   15.6870    4.3740 O.2    33  ASN33      -0.2716
     31  ND2       27.9490   16.9660    6.1170 N.am   33  ASN33      -0.0877
     32  N         28.2640   18.0120    0.8650 N.3    35  TRP35      -0.1241
     33  CA        27.4520   16.9170    0.3880 C.3    35  TRP35       0.1605
     34  C         26.5490   17.3340   -0.7480 C.2    35  TRP35       0.2264
     35  O         26.1500   16.4530   -1.5410 O.2    35  TRP35      -0.2867
     36  CB        26.6780   16.2800    1.5400 C.3    35  TRP35       0.0550
     37  CG        25.7020   17.1920    2.2400 C.ar   35  TRP35       0.0003
     38  CD1       25.9540   17.9600    3.3600 C.ar   35  TRP35       0.0946
     39  CD2       24.3430   17.4400    1.8660 C.ar   35  TRP35       0.0152
     40  NE1       24.7920   18.6530    3.6930 N.ar   35  TRP35      -0.2442
     41  CE2       23.8130   18.3380    2.8020 C.ar   35  TRP35       0.0810
     42  CE3       23.5220   16.9160    0.8410 C.ar   35  TRP35       0.0012
     43  CZ2       22.4440   18.7470    2.7890 C.ar   35  TRP35       0.0191
     44  CZ3       22.1360   17.2800    0.8570 C.ar   35  TRP35       0.0001
     45  CH2       21.6360   18.1730    1.8060 C.ar   35  TRP35       0.0015
     46  N         17.9440   20.6370   -2.1420 N.3    71  ASN71      -0.1240
     47  CA        18.6360   20.4640   -0.8420 C.3    71  ASN71       0.1653
     48  C         18.9790   21.7700   -0.1270 C.2    71  ASN71       0.2266
     49  O         19.2760   21.8030    1.0880 O.2    71  ASN71      -0.2867
     50  CB        19.9320   19.6890   -1.0560 C.3    71  ASN71       0.1155
     51  CG        19.6500   18.2520   -1.3820 C.2    71  ASN71       0.2627
     52  OD1       20.3740   17.6380   -2.1740 O.2    71  ASN71      -0.2716
     53  ND2       18.6380   17.6910   -0.7200 N.am   71  ASN71      -0.0877
     54  N         21.1030   24.0120    1.0520 N.3    73  VAL73      -0.1245
     55  CA        22.4540   24.3040    1.4670 C.3    73  VAL73       0.1561
     56  C         23.4410   23.5640    0.6180 C.2    73  VAL73       0.2260
     57  O         23.1420   22.6450   -0.1150 O.2    73  VAL73      -0.2867
     58  CB        22.6660   23.9740    2.9850 C.3    73  VAL73       0.0252
     59  CG1       21.7640   24.8280    3.8890 C.3    73  VAL73       0.0019
     60  CG2       22.5390   22.4710    3.2440 C.3    73  VAL73       0.0019
     61  N         27.9480   20.8330    5.0080 N.3    76  TYR76      -0.1241
     62  CA        27.9320   20.9360    6.4880 C.3    76  TYR76       0.1605
     63  C         29.2710   20.3760    6.9950 C.2    76  TYR76       0.2264
     64  O         29.3320   19.2940    7.5770 O.2    76  TYR76      -0.2867
     65  CB        26.7090   20.1290    7.0270 C.3    76  TYR76       0.0534
     66  CG        26.5340   20.0510    8.5130 C.ar   76  TYR76      -0.0201
     67  CD1       26.4070   21.1680    9.3370 C.ar   76  TYR76      -0.0009
     68  CD2       26.4530   18.8050    9.1310 C.ar   76  TYR76      -0.0009
     69  CE1       26.2300   21.0390   10.7170 C.ar   76  TYR76       0.0417
     70  CE2       26.1870   18.6500   10.4800 C.ar   76  TYR76       0.0417
     71  CZ        26.1350   19.7690   11.2900 C.ar   76  TYR76       0.1957
     72  OH        25.8900   19.5910   12.6250 O.3    76  TYR76      -0.2866
     73  N         32.0690   19.5610    9.4580 N.3    78  GLU78      -0.1245
     74  CA        31.6210   19.1760   10.7890 C.3    78  GLU78       0.1567
     75  C         32.6220   18.2870   11.5130 C.2    78  GLU78       0.2260
     76  O         33.5160   17.6840   10.8960 O.2    78  GLU78      -0.2867
     77  CB        30.2830   18.4250   10.7150 C.3    78  GLU78       0.0388
     78  CG        30.4310   17.1020    9.9400 C.3    78  GLU78       0.1160
     79  CD        29.1340   16.3160    9.9730 C.2    78  GLU78       0.3649
     80  OE1       28.7360   15.9790   11.1460 O.co2  78  GLU78      -0.2457
     81  OE2       28.5180   16.0740    8.9710 O.co2  78  GLU78      -0.2457
     82  N         27.6670    8.4520   12.8540 N.3    84  LYS84      -0.1245
     83  CA        26.8690    9.2430   11.8740 C.3    84  LYS84       0.1561
     84  C         26.1540    8.2290   10.9530 C.2    84  LYS84       0.2260
     85  O         26.7900    7.3480   10.4020 O.2    84  LYS84      -0.2867
     86  CB        27.7930   10.1500   11.0710 C.3    84  LYS84       0.0271
     87  CG        26.9960   10.9420   10.0220 C.3    84  LYS84       0.0035
     88  CD        27.7690   12.0960    9.4240 C.3    84  LYS84       0.0206
     89  CE        27.0160   12.6670    8.2270 C.3    84  LYS84       0.1093
     90  NZ        27.7760   13.7880    7.5540 N.3    84  LYS84      -0.1314
     91  N         24.6830    8.2140    8.0810 N.3    86  TRP86      -0.1227
     92  CA        24.7570    8.2980    6.6130 C.3    86  TRP86       0.1737
     93  C         25.9660    7.5840    6.0320 C.2    86  TRP86       0.2595
     94  O         26.0790    7.5330    4.7950 O.2    86  TRP86      -0.2718
     95  CB        24.8020    9.8160    6.2000 C.3    86  TRP86       0.0564
     96  CG        23.5220   10.5100    6.4550 C.ar   86  TRP86       0.0003
     97  CD1       23.1910   11.2780    7.5460 C.ar   86  TRP86       0.0946
     98  CD2       22.3650   10.4100    5.6430 C.ar   86  TRP86       0.0152
     99  NE1       21.8560   11.7010    7.4180 N.ar   86  TRP86      -0.2442
    100  CE2       21.3290   11.1740    6.2800 C.ar   86  TRP86       0.0810
    101  CE3       22.1030    9.7750    4.4080 C.ar   86  TRP86       0.0012
    102  CZ2       20.0110   11.3220    5.7300 C.ar   86  TRP86       0.0191
    103  CZ3       20.7910    9.8980    3.8620 C.ar   86  TRP86       0.0001
    104  CH2       19.7480   10.6620    4.5170 C.ar   86  TRP86       0.0015
    105  N         26.8430    7.0700    6.8940 N.am   87  ASN87      -0.1974
    106  CA        28.0830    6.4440    6.3430 C.3    87  ASN87       0.1688
    107  C         28.6850    5.5850    7.4220 C.2    87  ASN87       0.2292
    108  O         28.0760    5.3940    8.4990 O.2    87  ASN87      -0.2864
    109  CB        29.0380    7.5930    5.9020 C.3    87  ASN87       0.1181
    110  CG        29.3970    8.5360    7.0490 C.2    87  ASN87       0.2629
    111  OD1       29.6960    8.0710    8.1630 O.2    87  ASN87      -0.2716
    112  ND2       29.4370    9.8380    6.7720 N.am   87  ASN87      -0.0877
    113  N         23.6110   18.7200   15.7120 N.3   129  GLU129     -0.1245
    114  CA        22.4850   17.8750   15.3840 C.3   129  GLU129      0.1567
    115  C         22.6950   16.4570   15.7840 C.2   129  GLU129      0.2260
    116  O         23.8150   15.9520   15.9450 O.2   129  GLU129     -0.2867
    117  CB        22.0360   17.9700   13.9550 C.3   129  GLU129      0.0388
    118  CG        22.9290   17.3160   12.9360 C.3   129  GLU129      0.1160
    119  CD        22.2220   17.1640   11.6040 C.2   129  GLU129      0.3649
    120  OE1       20.8980   17.2520   11.6330 O.co2 129  GLU129     -0.2457
    121  OE2       22.7760   17.0700   10.5140 O.co2 129  GLU129     -0.2457
    122  N         20.7530   12.4520   14.9260 N.3   131  TRP131     -0.1241
    123  CA        19.8180   11.5900   14.2280 C.3   131  TRP131      0.1605
    124  C         19.3020   10.5450   15.1400 C.2   131  TRP131      0.2264
    125  O         20.1010    9.9530   15.8840 O.2   131  TRP131     -0.2867
    126  CB        20.5270   10.9670   12.9600 C.3   131  TRP131      0.0550
    127  CG        21.0530   11.9550   12.0170 C.ar  131  TRP131      0.0003
    128  CD1       22.2680   12.5320   12.0240 C.ar  131  TRP131      0.0946
    129  CD2       20.3280   12.5430   10.8970 C.ar  131  TRP131      0.0152
    130  NE1       22.3900   13.4190   10.9800 N.ar  131  TRP131     -0.2442
    131  CE2       21.2020   13.4370   10.2810 C.ar  131  TRP131      0.0810
    132  CE3       19.0210   12.3620   10.3690 C.ar  131  TRP131      0.0012
    133  CZ2       20.8520   14.1750    9.1570 C.ar  131  TRP131      0.0191
    134  CZ3       18.7030   13.0640    9.2550 C.ar  131  TRP131      0.0001
    135  CH2       19.5950   13.9610    8.6210 C.ar  131  TRP131      0.0015
    136  N         15.3820   13.8320   12.7440 N.3   148  GLU148     -0.1245
    137  CA        16.5690   14.6730   12.7510 C.3   148  GLU148      0.1567
    138  C         16.3160   15.8080   13.6860 C.2   148  GLU148      0.2260
    139  O         15.2450   16.4760   13.5670 O.2   148  GLU148     -0.2867
    140  CB        16.8030   15.2080   11.3300 C.3   148  GLU148      0.0388
    141  CG        18.0720   16.0510   11.2150 C.3   148  GLU148      0.1160
    142  CD        18.3210   16.6890    9.8780 C.2   148  GLU148      0.3649
    143  OE1       17.4630   16.6070    8.9720 O.co2 148  GLU148     -0.2457
    144  OE2       19.4140   17.3050    9.7170 O.co2 148  GLU148     -0.2457
    145  N         18.0330   19.3730   15.0990 N.3   150  MET150     -0.1245
    146  CA        19.1600   20.3090   15.0630 C.3   150  MET150      0.1570
    147  C         18.9520   21.4420   16.0220 C.2   150  MET150      0.2261
    148  O         17.8210   21.8970   16.2360 O.2   150  MET150     -0.2867
    149  CB        19.2530   20.9810   13.7080 C.3   150  MET150      0.0387
    150  CG        19.0080   20.0810   12.5100 C.3   150  MET150      0.0595
    151  SD        19.4160   21.0060   11.0020 S.3   150  MET150     -0.1393
    152  CE        21.1890   20.8100   10.8520 C.3   150  MET150      0.0692
    153  N         20.5190   25.2610   16.4780 N.3   152  TRP152     -0.1241
    154  CA        21.3290   26.2930   15.8610 C.3   152  TRP152      0.1605
    155  C         21.6680   27.3410   16.8800 C.2   152  TRP152      0.2264
    156  O         20.7700   28.0030   17.4070 O.2   152  TRP152     -0.2867
    157  CB        20.6330   26.9550   14.6870 C.3   152  TRP152      0.0550
    158  CG        20.1470   26.0800   13.5740 C.ar  152  TRP152      0.0003
    159  CD1       20.1260   24.7310   13.4850 C.ar  152  TRP152      0.0946
    160  CD2       19.6260   26.5620   12.3230 C.ar  152  TRP152      0.0152
    161  NE1       19.6180   24.3150   12.2430 N.ar  152  TRP152     -0.2442
    162  CE2       19.2960   25.4420   11.5350 C.ar  152  TRP152      0.0810
    163  CE3       19.4830   27.8480   11.7830 C.ar  152  TRP152      0.0012
    164  CZ2       18.8440   25.5560   10.2220 C.ar  152  TRP152      0.0191
    165  CZ3       19.0680   27.9870   10.5020 C.ar  152  TRP152      0.0001
    166  CH2       18.7150   26.8470    9.7080 C.ar  152  TRP152      0.0015
    167  N         10.5070   15.9040    5.7620 N.3   190  ILE190     -0.1245
    168  CA        11.4450   16.0630    4.6100 C.3   190  ILE190      0.1561
    169  C         12.0070   14.7010    4.1920 C.2   190  ILE190      0.2260
    170  O         13.1170   14.6310    3.6180 O.2   190  ILE190     -0.2867
    171  CB        12.5700   17.0580    4.9380 C.3   190  ILE190      0.0252
    172  CG1       13.3920   16.6350    6.1930 C.3   190  ILE190      0.0019
    173  CG2       11.9350   18.4430    5.1480 C.3   190  ILE190      0.0019
    174  CD1       14.6340   17.4700    6.3630 C.3   190  ILE190      0.0001
    175  N         11.7930   12.3410    6.5420 N.3   192  TRP192     -0.1241
    176  CA        11.8720   11.9430    7.9580 C.3   192  TRP192      0.1605
    177  C         11.3310   13.1740    8.6990 C.2   192  TRP192      0.2264
    178  O         11.1240   14.2500    8.0870 O.2   192  TRP192     -0.2867
    179  CB        13.3380   11.6120    8.3880 C.3   192  TRP192      0.0550
    180  CG        14.3330   12.6860    8.0510 C.ar  192  TRP192      0.0003
    181  CD1       14.6500   13.7940    8.8050 C.ar  192  TRP192      0.0946
    182  CD2       15.1600   12.7170    6.8910 C.ar  192  TRP192      0.0152
    183  NE1       15.6290   14.5100    8.1430 N.ar  192  TRP192     -0.2442
    184  CE2       15.9550   13.8660    6.9660 C.ar  192  TRP192      0.0810
    185  CE3       15.3290   11.8410    5.7350 C.ar  192  TRP192      0.0012
    186  CZ2       16.8890   14.2000    6.0070 C.ar  192  TRP192      0.0191
    187  CZ3       16.2890   12.1560    4.7830 C.ar  192  TRP192      0.0001
    188  CH2       17.0550   13.3150    4.9300 C.ar  192  TRP192      0.0015
    189  N         11.7140   16.3000   11.0220 N.3   194  TYR194     -0.1241
    190  CA        12.7700   17.2410   11.3010 C.3   194  TYR194      0.1605
    191  C         12.3100   18.1820   12.3580 C.2   194  TYR194      0.2264
    192  O         11.1860   18.7830   12.2180 O.2   194  TYR194     -0.2867
    193  CB        13.0740   17.9640   10.0110 C.3   194  TYR194      0.0534
    194  CG        13.9240   19.1950   10.0520 C.ar  194  TYR194     -0.0201
    195  CD1       13.3980   20.4320   10.3680 C.ar  194  TYR194     -0.0009
    196  CD2       15.2920   19.1050    9.7470 C.ar  194  TYR194     -0.0009
    197  CE1       14.1850   21.5650   10.3240 C.ar  194  TYR194      0.0417
    198  CE2       16.0860   20.2220    9.6630 C.ar  194  TYR194      0.0417
    199  CZ        15.5110   21.4720    9.9460 C.ar  194  TYR194      0.1957
    200  OH        16.2060   22.6440    9.8330 O.3   194  TYR194     -0.2866
    201  N         26.5640   15.8890   16.2050 N.3   237  GLU237     -0.1245
    202  CA        27.3470   16.4950   15.1430 C.3   237  GLU237      0.1567
    203  C         27.4230   17.9880   15.3600 C.2   237  GLU237      0.2260
    204  O         26.4240   18.5680   15.8060 O.2   237  GLU237     -0.2867
    205  CB        26.7270   16.2030   13.7700 C.3   237  GLU237      0.0388
    206  CG        26.4620   14.7210   13.5280 C.3   237  GLU237      0.1160
    207  CD        26.0110   14.3730   12.1460 C.2   237  GLU237      0.3649
    208  OE1       26.3730   15.0330   11.1510 O.co2 237  GLU237     -0.2457
    209  OE2       25.2180   13.3920   11.9860 O.co2 237  GLU237     -0.2457
    210  N         26.4070   24.6140    8.4720 N.3   241  GLU241     -0.1245
    211  CA        25.7560   24.4910    7.1590 C.3   241  GLU241      0.1567
    212  C         25.8980   25.8740    6.4950 C.2   241  GLU241      0.2260
    213  O         25.8810   26.9100    7.1630 O.2   241  GLU241     -0.2867
    214  CB        24.2800   24.1310    7.2970 C.3   241  GLU241      0.0388
    215  CG        24.0790   22.7240    7.7940 C.3   241  GLU241      0.1160
    216  CD        22.6120   22.2730    7.7200 C.2   241  GLU241      0.3649
    217  OE1       21.7040   23.1010    7.7060 O.co2 241  GLU241     -0.2457
    218  OE2       22.4030   20.9930    7.6830 O.co2 241  GLU241     -0.2457
@<TRIPOS>BOND
     1     9     7   ar
     2     9    10   ar
     3    52    51    2
     4    46    47    1
     5     7     6   ar
     6    12    10   ar
     7    12    14   ar
     8    10     8   ar
     9    35    34    2
    10    51    50    1
    11    51    53   am
    12    50    47    1
    13     1     2    1
    14    47    48    1
    15    34    33    1
    16     6     8   ar
    17     6     5    1
    18    14    13   ar
    19     8    11   ar
    20    48    49    2
    21    57    56    2
    22     5     2    1
    23    33    32    1
    24    33    36    1
    25     2     3    1
    26    56    55    1
    27    13    11   ar
    28    42    44   ar
    29    42    39   ar
    30    44    45   ar
    31    54    55    1
    32    55    58    1
    33     3     4    2
    34    36    37    1
    35    45    43   ar
    36    39    37   ar
    37    39    41   ar
    38    37    38   ar
    39    43    41   ar
    40    41    40   ar
    41    58    60    1
    42    58    59    1
    43    26    27    2
    44    26    25    1
    45    38    40   ar
    46   170   169    2
    47   103   101   ar
    48   103   104   ar
    49    25    24    1
    50    25    28    1
    51   169   168    1
    52    30    29    2
    53   101    98   ar
    54   104   102   ar
    55   168   171    1
    56   168   167    1
    57   187   188   ar
    58   187   185   ar
    59    94    93    2
    60   188   186   ar
    61   171   173    1
    62   171   172    1
    63    61    62    1
    64    29    28    1
    65    29    31   am
    66    98   100   ar
    67    98    96   ar
    68   102   100   ar
    69   185   182   ar
    70   109   106    1
    71   109   110    1
    72   186   184   ar
    73    93    92    1
    74    93   105   am
    75   172   174    1
    76    95    96    1
    77    95    92    1
    78   100    99   ar
    79   106   105    1
    80   106   107    1
    81    96    97   ar
    82    62    63    1
    83    62    65    1
    84   212   211    1
    85   212   213    2
    86   175   176    1
    87    92    91    1
    88   112   110   am
    89   182   184   ar
    90   182   180   ar
    91   184   183   ar
    92    17    18    2
    93    17    16    1
    94    63    64    2
    95    65    66    1
    96   110   111    2
    97    22    21   ar
    98   211   214    1
    99   211   210    1
   100   214   215    1
   101    19    16    1
   102    19    20    1
   103    99    97   ar
   104   107   108    2
   105    90    89    1
   106    16    15    1
   107   218   216   ar
   108   217   216   ar
   109   216   215    1
   110    21    20    1
   111    21    23   ar
   112   176   179    1
   113   176   177    1
   114   180   179    1
   115   180   181   ar
   116   178   177    2
   117   183   181   ar
   118    89    88    1
   119    66    68   ar
   120    66    67   ar
   121   135   133   ar
   122   135   134   ar
   123    81    79   ar
   124   143   142   ar
   125    68    70   ar
   126   133   131   ar
   127   134   132   ar
   128    67    69   ar
   129    88    87    1
   130    73    74    1
   131   198   196   ar
   132   198   199   ar
   133   166   164   ar
   134   166   165   ar
   135   144   142   ar
   136   196   194   ar
   137   200   199    1
   138   142   141    1
   139    78    79    1
   140    78    77    1
   141   199   197   ar
   142    79    80   ar
   143   193   194    1
   144   193   190    1
   145    87    86    1
   146   194   195   ar
   147   164   162   ar
   148   131   129   ar
   149   131   130   ar
   150   197   195   ar
   151   132   129   ar
   152    85    84    2
   153    70    71   ar
   154   165   163   ar
   155   121   119   ar
   156    77    74    1
   157    69    71   ar
   158    74    75    1
   159   152   151    1
   160    76    75    2
   161   129   127   ar
   162    84    83    1
   163   130   128   ar
   164   151   150    1
   165   189   190    1
   166    86    83    1
   167   208   207   ar
   168   141   140    1
   169    71    72    1
   170   190   191    1
   171   140   137    1
   172   162   161   ar
   173   162   160   ar
   174   119   120   ar
   175   119   118    1
   176   163   160   ar
   177    83    82    1
   178   209   207   ar
   179   127   128   ar
   180   127   126    1
   181   207   206    1
   182   192   191    2
   183   161   159   ar
   184   160   158   ar
   185   150   149    1
   186   136   137    1
   187   137   138    1
   188   118   117    1
   189   126   123    1
   190   159   158   ar
   191   206   205    1
   192   139   138    2
   193   158   157    1
   194   149   146    1
   195   205   202    1
   196   117   114    1
   197   123   122    1
   198   123   124    1
   199   157   154    1
   200   146   145    1
   201   146   147    1
   202   124   125    2
   203   202   203    1
   204   202   201    1
   205   203   204    2
   206   114   113    1
   207   114   115    1
   208   115   116    2
   209   154   153    1
   210   154   155    1
   211   147   148    2
   212   155   156    2
