@<TRIPOS>MOLECULE
tmp/3wq1A04.pdb
 231 225 0 0 0
SMALL
GASTEIGER

@<TRIPOS>ATOM
      1  N         34.7770   13.1030   -0.7250 N.3    13  TRP13      -0.1241
      2  CA        34.3050   13.0300    0.6180 C.3    13  TRP13       0.1605
      3  C         35.4900   12.9670    1.5910 C.2    13  TRP13       0.2264
      4  O         35.6520   12.0010    2.3550 O.2    13  TRP13      -0.2867
      5  CB        33.4690   11.7530    0.8380 C.3    13  TRP13       0.0550
      6  CG        32.1730   11.7090   -0.0210 C.ar   13  TRP13       0.0003
      7  CD1       31.9190   10.8350   -1.0010 C.ar   13  TRP13       0.0946
      8  CD2       31.0480   12.5560    0.0950 C.ar   13  TRP13       0.0152
      9  NE1       30.6960   11.0790   -1.5150 N.ar   13  TRP13      -0.2442
     10  CE2       30.0910   12.0860   -0.8210 C.ar   13  TRP13       0.0810
     11  CE3       30.6850   13.5480    0.9790 C.ar   13  TRP13       0.0012
     12  CZ2       28.8310   12.6690   -0.9630 C.ar   13  TRP13       0.0191
     13  CZ3       29.3860   14.1390    0.8660 C.ar   13  TRP13       0.0001
     14  CH2       28.5170   13.7120   -0.1130 C.ar   13  TRP13       0.0015
     15  N         34.8720   15.7100    8.9050 N.3    31  GLU31      -0.1245
     16  CA        34.4710   15.5620    7.4870 C.3    31  GLU31       0.1567
     17  C         34.3500   16.9630    6.8840 C.2    31  GLU31       0.2260
     18  O         33.7260   17.8080    7.4990 O.2    31  GLU31      -0.2867
     19  CB        33.1380   14.8490    7.3130 C.3    31  GLU31       0.0388
     20  CG        33.0820   13.4180    7.8120 C.3    31  GLU31       0.1160
     21  CD        31.7390   12.7290    7.5830 C.2    31  GLU31       0.3649
     22  OE1       30.8570   13.3810    6.9940 O.co2  31  GLU31      -0.2457
     23  OE2       31.6090   11.5760    8.0490 O.co2  31  GLU31      -0.2457
     24  N         32.5510   17.2910    4.0460 N.3    33  ASN33      -0.1240
     25  CA        31.0960   17.1070    3.8550 C.3    33  ASN33       0.1653
     26  C         30.4680   18.1920    2.9810 C.2    33  ASN33       0.2266
     27  O         29.4400   18.7940    3.3500 O.2    33  ASN33      -0.2867
     28  CB        30.3670   16.9510    5.2110 C.3    33  ASN33       0.1155
     29  CG        28.9470   16.5060    5.0190 C.2    33  ASN33       0.2627
     30  OD1       28.6220   15.7940    4.0450 O.2    33  ASN33      -0.2716
     31  ND2       28.0820   16.8010    6.0040 N.am   33  ASN33      -0.0877
     32  N         28.2500   18.1590    0.7500 N.3    35  TRP35      -0.1241
     33  CA        27.3450   17.1270    0.2340 C.3    35  TRP35       0.1605
     34  C         26.4470   17.6360   -0.8490 C.2    35  TRP35       0.2264
     35  O         25.9300   16.8070   -1.6000 O.2    35  TRP35      -0.2867
     36  CB        26.5770   16.4690    1.3830 C.3    35  TRP35       0.0550
     37  CG        25.6910   17.4280    2.1470 C.ar   35  TRP35       0.0003
     38  CD1       25.9760   18.1220    3.2890 C.ar   35  TRP35       0.0946
     39  CD2       24.3170   17.7900    1.8300 C.ar   35  TRP35       0.0152
     40  NE1       24.9320   18.9100    3.7240 N.ar   35  TRP35      -0.2442
     41  CE2       23.8870   18.6870    2.8330 C.ar   35  TRP35       0.0810
     42  CE3       23.4270   17.3690    0.8380 C.ar   35  TRP35       0.0012
     43  CZ2       22.5520   19.1810    2.8890 C.ar   35  TRP35       0.0191
     44  CZ3       22.1090   17.8520    0.9060 C.ar   35  TRP35       0.0001
     45  CH2       21.6910   18.7240    1.9300 C.ar   35  TRP35       0.0015
     46  N         18.0080   21.4970   -1.9130 N.3    71  ASN71      -0.1240
     47  CA        18.6860   21.2260   -0.6320 C.3    71  ASN71       0.1653
     48  C         19.1700   22.5050    0.0450 C.2    71  ASN71       0.2266
     49  O         19.4690   22.4800    1.2080 O.2    71  ASN71      -0.2867
     50  CB        19.8930   20.3410   -0.8810 C.3    71  ASN71       0.1155
     51  CG        19.5510   18.9000   -1.2980 C.2    71  ASN71       0.2627
     52  OD1       18.6230   18.3010   -0.8020 O.2    71  ASN71      -0.2716
     53  ND2       20.3980   18.3240   -2.1120 N.am   71  ASN71      -0.0877
     54  N         21.3870   24.6050    1.2400 N.3    73  VAL73      -0.1245
     55  CA        22.8010   24.7980    1.6440 C.3    73  VAL73       0.1561
     56  C         23.6860   23.9950    0.7510 C.2    73  VAL73       0.2260
     57  O         23.3070   23.1200    0.0130 O.2    73  VAL73      -0.2867
     58  CB        23.0120   24.4200    3.1250 C.3    73  VAL73       0.0252
     59  CG1       22.1710   25.3710    4.0000 C.3    73  VAL73       0.0019
     60  CG2       22.6770   22.9330    3.3950 C.3    73  VAL73       0.0019
     61  N         28.2240   20.9460    4.9310 N.3    76  TYR76      -0.1241
     62  CA        28.2390   20.9940    6.4100 C.3    76  TYR76       0.1605
     63  C         29.5940   20.4100    6.8710 C.2    76  TYR76       0.2264
     64  O         29.6590   19.3270    7.4470 O.2    76  TYR76      -0.2867
     65  CB        27.0490   20.1920    6.9410 C.3    76  TYR76       0.0534
     66  CG        26.8680   20.1010    8.4460 C.ar   76  TYR76      -0.0201
     67  CD1       26.7550   21.2150    9.2580 C.ar   76  TYR76      -0.0009
     68  CD2       26.7610   18.8610    9.0630 C.ar   76  TYR76      -0.0009
     69  CE1       26.5120   21.1190   10.6310 C.ar   76  TYR76       0.0417
     70  CE2       26.5330   18.7540   10.4080 C.ar   76  TYR76       0.0417
     71  CZ        26.3930   19.8630   11.2030 C.ar   76  TYR76       0.1957
     72  OH        26.1520   19.6790   12.5440 O.3    76  TYR76      -0.2866
     73  N         32.3700   19.6610    9.3720 N.3    78  GLU78      -0.1245
     74  CA        31.9470   19.2690   10.7110 C.3    78  GLU78       0.1567
     75  C         32.9550   18.3740   11.4150 C.2    78  GLU78       0.2260
     76  O         33.8470   17.7740   10.8040 O.2    78  GLU78      -0.2867
     77  CB        30.5900   18.5080   10.6180 C.3    78  GLU78       0.0388
     78  CG        30.7290   17.2040    9.7940 C.3    78  GLU78       0.1160
     79  CD        29.4600   16.4520    9.8390 C.2    78  GLU78       0.3649
     80  OE1       29.0360   16.0870   10.9910 O.co2  78  GLU78      -0.2457
     81  OE2       28.8590   16.1370    8.8060 O.co2  78  GLU78      -0.2457
     82  N         27.8910    8.4530   12.7260 N.3    84  LYS84      -0.1245
     83  CA        27.1150    9.2560   11.7470 C.3    84  LYS84       0.1561
     84  C         26.3920    8.2770   10.8690 C.2    84  LYS84       0.2260
     85  O         26.9760    7.3890   10.2460 O.2    84  LYS84      -0.2867
     86  CB        28.0550   10.1410   10.9240 C.3    84  LYS84       0.0271
     87  CG        27.2900   10.9400    9.8620 C.3    84  LYS84       0.0035
     88  CD        28.1220   12.0760    9.2560 C.3    84  LYS84       0.0206
     89  CE        27.3840   12.7180    8.1190 C.3    84  LYS84       0.1093
     90  NZ        28.1520   13.8090    7.4590 N.3    84  LYS84      -0.1314
     91  N         24.8690    8.3420    7.9540 N.3    86  TRP86      -0.1227
     92  CA        24.9490    8.4830    6.5160 C.3    86  TRP86       0.1737
     93  C         26.1340    7.7740    5.8780 C.2    86  TRP86       0.2595
     94  O         26.2240    7.7300    4.6630 O.2    86  TRP86      -0.2718
     95  CB        24.9790    9.9950    6.1420 C.3    86  TRP86       0.0564
     96  CG        23.6870   10.6500    6.4160 C.ar   86  TRP86       0.0003
     97  CD1       23.3280   11.4050    7.5150 C.ar   86  TRP86       0.0946
     98  CD2       22.5050   10.5990    5.5740 C.ar   86  TRP86       0.0152
     99  NE1       21.9800   11.8240    7.4310 N.ar   86  TRP86      -0.2442
    100  CE2       21.4860   11.3460    6.2360 C.ar   86  TRP86       0.0810
    101  CE3       22.2350    9.9700    4.3340 C.ar   86  TRP86       0.0012
    102  CZ2       20.2000   11.5160    5.6630 C.ar   86  TRP86       0.0191
    103  CZ3       20.9100   10.1460    3.7620 C.ar   86  TRP86       0.0001
    104  CH2       19.9380   10.8820    4.4790 C.ar   86  TRP86       0.0015
    105  N         27.0490    7.2430    6.7080 N.am   87  ASN87      -0.1960
    106  CA        28.2820    6.6520    6.1580 C.3    87  ASN87       0.1819
    107  C         28.8440    5.7100    7.2120 C.2    87  ASN87       0.2621
    108  O         28.2610    5.4760    8.2750 O.2    87  ASN87      -0.2715
    109  CB        29.2540    7.7380    5.6810 C.3    87  ASN87       0.1195
    110  CG        29.6610    8.6700    6.7830 C.2    87  ASN87       0.2630
    111  OD1       29.8610    8.2270    7.9360 O.2    87  ASN87      -0.2716
    112  ND2       29.8620    9.9670    6.4540 N.am   87  ASN87      -0.0877
    113  N         30.0320    5.1390    6.9140 N.am   88  ALA88      -0.1963
    114  CA        30.6610    4.1770    7.7980 C.3    88  ALA88       0.1728
    115  C         31.6650    4.8600    8.7300 C.2    88  ALA88       0.2613
    116  O         32.5170    4.1650    9.2930 O.2    88  ALA88      -0.2715
    117  CB        31.3320    3.0570    6.9650 C.3    88  ALA88       0.0334
    118  N         31.5330    6.1640    8.9830 N.am   89  ASN89      -0.2025
    119  CA        32.4240    6.8390    9.8760 C.3    89  ASN89       0.1374
    120  C         31.8790    6.9110   11.2720 C.3    89  ASN89       0.2041
    121  O         30.6220    7.0960   11.4790 O.3    89  ASN89      -0.2185
    122  CB        32.7100    8.2680    9.3590 C.3    89  ASN89       0.1128
    123  CG        33.3440    8.2580    8.0020 C.2    89  ASN89       0.2626
    124  OD1       34.0230    7.2610    7.6300 O.2    89  ASN89      -0.2716
    125  ND2       33.1740    9.3120    7.2480 N.am   89  ASN89      -0.0877
    126  N         23.9670   18.7640   15.5890 N.3   129  GLU129     -0.1245
    127  CA        22.8170   17.9740   15.2770 C.3   129  GLU129      0.1567
    128  C         22.9790   16.5460   15.6960 C.2   129  GLU129      0.2260
    129  O         24.0870   15.9900   15.8270 O.2   129  GLU129     -0.2867
    130  CB        22.3860   18.0890   13.8940 C.3   129  GLU129      0.0388
    131  CG        23.2140   17.4150   12.9070 C.3   129  GLU129      0.1160
    132  CD        22.5150   17.2600   11.5400 C.2   129  GLU129      0.3649
    133  OE1       21.2300   17.4750   11.5180 O.co2 129  GLU129     -0.2457
    134  OE2       23.0070   17.0320   10.4600 O.co2 129  GLU129     -0.2457
    135  N         21.0040   12.5520   14.8330 N.3   131  TRP131     -0.1241
    136  CA        20.0840   11.7170   14.0990 C.3   131  TRP131      0.1605
    137  C         19.5600   10.6390   15.0430 C.2   131  TRP131      0.2264
    138  O         20.3290   10.0330   15.7930 O.2   131  TRP131     -0.2867
    139  CB        20.7560   11.0840   12.9140 C.3   131  TRP131      0.0550
    140  CG        21.2740   12.0780   11.9380 C.ar  131  TRP131      0.0003
    141  CD1       22.5480   12.6760   11.9300 C.ar  131  TRP131      0.0946
    142  CD2       20.5480   12.7060   10.8570 C.ar  131  TRP131      0.0152
    143  NE1       22.6500   13.5220   10.8850 N.ar  131  TRP131     -0.2442
    144  CE2       21.4460   13.5980   10.1940 C.ar  131  TRP131      0.0810
    145  CE3       19.2370   12.5100   10.3320 C.ar  131  TRP131      0.0012
    146  CZ2       21.0970   14.3430    9.0940 C.ar  131  TRP131      0.0191
    147  CZ3       18.8980   13.2870    9.2190 C.ar  131  TRP131      0.0001
    148  CH2       19.7920   14.1470    8.5850 C.ar  131  TRP131      0.0015
    149  N         15.6500   14.0350   12.7330 N.3   148  GLU148     -0.1245
    150  CA        16.8400   14.8540   12.7070 C.3   148  GLU148      0.1567
    151  C         16.6110   15.9800   13.6830 C.2   148  GLU148      0.2260
    152  O         15.5550   16.6860   13.5820 O.2   148  GLU148     -0.2867
    153  CB        17.0840   15.4250   11.2980 C.3   148  GLU148      0.0388
    154  CG        18.3810   16.2440   11.1870 C.3   148  GLU148      0.1160
    155  CD        18.6010   16.9050    9.8810 C.2   148  GLU148      0.3649
    156  OE1       17.7190   16.8550    8.9660 O.co2 148  GLU148     -0.2457
    157  OE2       19.6840   17.5390    9.6950 O.co2 148  GLU148     -0.2457
    158  N         18.3860   19.5190   15.0700 N.3   150  MET150     -0.1245
    159  CA        19.5090   20.4460   15.0830 C.3   150  MET150      0.1570
    160  C         19.3130   21.5250   16.1080 C.2   150  MET150      0.2261
    161  O         18.1680   21.9560   16.4240 O.2   150  MET150     -0.2867
    162  CB        19.6290   21.1920   13.7530 C.3   150  MET150      0.0387
    163  CG        19.3530   20.3210   12.5560 C.3   150  MET150      0.0595
    164  SD        19.6790   21.2410   11.0290 S.3   150  MET150     -0.1393
    165  CE        21.4790   21.1170   10.9530 C.3   150  MET150      0.0692
    166  N         20.9390   25.3710   16.5500 N.3   152  TRP152     -0.1241
    167  CA        21.7500   26.3970   15.9200 C.3   152  TRP152      0.1605
    168  C         22.1030   27.4520   16.9810 C.2   152  TRP152      0.2264
    169  O         21.2260   28.1010   17.5100 O.2   152  TRP152     -0.2867
    170  CB        21.0080   27.1010   14.7980 C.3   152  TRP152      0.0550
    171  CG        20.5620   26.2790   13.6650 C.ar  152  TRP152      0.0003
    172  CD1       20.5110   24.8750   13.5430 C.ar  152  TRP152      0.0946
    173  CD2       20.0680   26.7820   12.4310 C.ar  152  TRP152      0.0152
    174  NE1       19.9530   24.5350   12.3050 N.ar  152  TRP152     -0.2442
    175  CE2       19.7000   25.6880   11.5960 C.ar  152  TRP152      0.0810
    176  CE3       19.9310   28.1000   11.9240 C.ar  152  TRP152      0.0012
    177  CZ2       19.2300   25.8620   10.2730 C.ar  152  TRP152      0.0191
    178  CZ3       19.4530   28.2620   10.6160 C.ar  152  TRP152      0.0001
    179  CH2       19.1070   27.1860    9.8020 C.ar  152  TRP152      0.0015
    180  N         10.7470   16.2810    5.7500 N.3   190  ILE190     -0.1245
    181  CA        11.6770   16.4180    4.6240 C.3   190  ILE190      0.1561
    182  C         12.1750   15.0110    4.1610 C.2   190  ILE190      0.2260
    183  O         13.2910   14.8800    3.6140 O.2   190  ILE190     -0.2867
    184  CB        12.8380   17.3600    4.9430 C.3   190  ILE190      0.0252
    185  CG1       13.6290   16.8750    6.1710 C.3   190  ILE190      0.0019
    186  CG2       12.2650   18.7820    5.1050 C.3   190  ILE190      0.0019
    187  CD1       14.8920   17.6680    6.3070 C.3   190  ILE190      0.0001
    188  N         12.0200   12.6510    6.5270 N.3   192  TRP192     -0.1241
    189  CA        12.1050   12.2520    7.9100 C.3   192  TRP192      0.1605
    190  C         11.5620   13.4760    8.6870 C.2   192  TRP192      0.2264
    191  O         11.3610   14.5350    8.0790 O.2   192  TRP192     -0.2867
    192  CB        13.5720   11.8870    8.3750 C.3   192  TRP192      0.0550
    193  CG        14.5740   12.9310    8.0070 C.ar  192  TRP192      0.0003
    194  CD1       14.9250   14.0300    8.7730 C.ar  192  TRP192      0.0946
    195  CD2       15.3960   12.9860    6.8260 C.ar  192  TRP192      0.0152
    196  NE1       15.8970   14.7620    8.1200 N.ar  192  TRP192     -0.2442
    197  CE2       16.2260   14.1350    6.9370 C.ar  192  TRP192      0.0810
    198  CE3       15.5480   12.1440    5.7170 C.ar  192  TRP192      0.0012
    199  CZ2       17.1660   14.4640    5.9520 C.ar  192  TRP192      0.0191
    200  CZ3       16.4590   12.4700    4.7280 C.ar  192  TRP192      0.0001
    201  CH2       17.3100   13.6340    4.8780 C.ar  192  TRP192      0.0015
    202  N         12.0110   16.5900   10.9760 N.3   194  TYR194     -0.1241
    203  CA        13.0990   17.5090   11.2790 C.3   194  TYR194      0.1605
    204  C         12.6080   18.4670   12.3430 C.2   194  TYR194      0.2264
    205  O         11.5210   19.0690   12.2140 O.2   194  TYR194     -0.2867
    206  CB        13.4030   18.2800    9.9850 C.3   194  TYR194      0.0534
    207  CG        14.2560   19.5100   10.0450 C.ar  194  TYR194     -0.0201
    208  CD1       13.6990   20.7700   10.3820 C.ar  194  TYR194     -0.0009
    209  CD2       15.6220   19.4590    9.6830 C.ar  194  TYR194     -0.0009
    210  CE1       14.4710   21.9200   10.3470 C.ar  194  TYR194      0.0417
    211  CE2       16.3940   20.5990    9.6200 C.ar  194  TYR194      0.0417
    212  CZ        15.7860   21.8430    9.9300 C.ar  194  TYR194      0.1957
    213  OH        16.5080   23.0110    9.8350 O.3   194  TYR194     -0.2866
    214  N         26.8610   15.9270   16.0390 N.3   237  GLU237     -0.1245
    215  CA        27.6760   16.5150   14.9630 C.3   237  GLU237      0.1567
    216  C         27.7290   18.0250   15.2300 C.2   237  GLU237      0.2260
    217  O         26.7210   18.6170   15.6660 O.2   237  GLU237     -0.2867
    218  CB        27.0530   16.2560   13.6050 C.3   237  GLU237      0.0388
    219  CG        26.7740   14.7580   13.3340 C.3   237  GLU237      0.1160
    220  CD        26.3050   14.4210   11.9700 C.2   237  GLU237      0.3649
    221  OE1       26.6800   15.0690   10.9660 O.co2 237  GLU237     -0.2457
    222  OE2       25.5000   13.4480   11.8170 O.co2 237  GLU237     -0.2457
    223  N         26.7650   24.7490    8.4600 N.3   241  GLU241     -0.1245
    224  CA        26.1570   24.7210    7.1370 C.3   241  GLU241      0.1567
    225  C         26.3460   26.0500    6.4630 C.2   241  GLU241      0.2260
    226  O         26.3700   27.0740    7.1790 O.2   241  GLU241     -0.2867
    227  CB        24.6450   24.4000    7.2630 C.3   241  GLU241      0.0388
    228  CG        24.3970   22.9790    7.6930 C.3   241  GLU241      0.1160
    229  CD        22.9150   22.5810    7.6010 C.2   241  GLU241      0.3649
    230  OE1       22.0360   23.4400    7.6280 O.co2 241  GLU241     -0.2457
    231  OE2       22.6630   21.3130    7.5040 O.co2 241  GLU241     -0.2457
@<TRIPOS>BOND
     1    53    51   am
     2    46    47    1
     3    35    34    2
     4     9     7   ar
     5     9    10   ar
     6    51    50    1
     7    51    52    2
     8     7     6   ar
     9    12    10   ar
    10    12    14   ar
    11    50    47    1
    12    34    33    1
    13    10     8   ar
    14     1     2    1
    15    47    48    1
    16    14    13   ar
    17     6     8   ar
    18     6     5    1
    19    57    56    2
    20    48    49    2
    21     8    11   ar
    22    33    32    1
    23    33    36    1
    24     2     5    1
    25     2     3    1
    26    56    55    1
    27    42    44   ar
    28    42    39   ar
    29    13    11   ar
    30    44    45   ar
    31    54    55    1
    32    36    37    1
    33     3     4    2
    34    55    58    1
    35    39    37   ar
    36    39    41   ar
    37    45    43   ar
    38    37    38   ar
    39    41    43   ar
    40    41    40   ar
    41    26    27    2
    42    26    25    1
    43    58    60    1
    44    58    59    1
    45    38    40   ar
    46   183   182    2
    47   103   101   ar
    48   103   104   ar
    49    25    24    1
    50    25    28    1
    51    30    29    2
    52   182   181    1
    53   101    98   ar
    54   104   102   ar
    55   181   184    1
    56   181   180    1
    57    94    93    2
    58   200   201   ar
    59   200   198   ar
    60   201   199   ar
    61    61    62    1
    62   184   186    1
    63   184   185    1
    64    29    28    1
    65    29    31   am
    66    98   100   ar
    67    98    96   ar
    68   102   100   ar
    69   109   106    1
    70   109   110    1
    71   198   195   ar
    72    93    92    1
    73    93   105   am
    74   199   197   ar
    75    95    96    1
    76    95    92    1
    77   106   105    1
    78   106   107    1
    79   185   187    1
    80   100    99   ar
    81    62    63    1
    82    62    65    1
    83    96    97   ar
    84   112   110   am
    85   225   224    1
    86   225   226    2
    87    92    91    1
    88   188   189    1
    89   110   111    2
    90   195   197   ar
    91   195   193   ar
    92    63    64    2
    93    17    16    1
    94    17    18    2
    95   113   107   am
    96   113   114    1
    97   197   196   ar
    98    65    66    1
    99   117   114    1
   100    22    21   ar
   101   224   227    1
   102   224   223    1
   103   107   108    2
   104   125   123   am
   105   227   228    1
   106    19    16    1
   107    19    20    1
   108    99    97   ar
   109    90    89    1
   110    16    15    1
   111   231   229   ar
   112    21    20    1
   113    21    23   ar
   114   229   230   ar
   115   229   228    1
   116   124   123    2
   117   114   115    1
   118   189   192    1
   119   189   190    1
   120   123   122    1
   121   193   192    1
   122   193   194   ar
   123   191   190    2
   124    89    88    1
   125   196   194   ar
   126    66    68   ar
   127    66    67   ar
   128   148   146   ar
   129   148   147   ar
   130   115   118   am
   131   115   116    2
   132    81    79   ar
   133   156   155   ar
   134   118   119    1
   135    68    70   ar
   136   146   144   ar
   137   147   145   ar
   138    88    87    1
   139    67    69   ar
   140   122   119    1
   141    73    74    1
   142   211   209   ar
   143   211   212   ar
   144   209   207   ar
   145   157   155   ar
   146    78    79    1
   147    78    77    1
   148   179   177   ar
   149   179   178   ar
   150   213   212    1
   151    79    80   ar
   152    87    86    1
   153   119   120    1
   154   155   154    1
   155   212   210   ar
   156   206   207    1
   157   206   203    1
   158   207   208   ar
   159   144   142   ar
   160   144   143   ar
   161    85    84    2
   162   177   175   ar
   163   145   142   ar
   164   210   208   ar
   165    70    71   ar
   166   134   132   ar
   167   178   176   ar
   168    77    74    1
   169    69    71   ar
   170    74    75    1
   171    76    75    2
   172   142   140   ar
   173    84    83    1
   174   143   141   ar
   175    86    83    1
   176   165   164    1
   177   221   220   ar
   178   202   203    1
   179   164   163    1
   180   154   153    1
   181    71    72    1
   182   120   121    1
   183   203   204    1
   184   153   150    1
   185   133   132   ar
   186   132   131    1
   187   175   174   ar
   188   175   173   ar
   189    83    82    1
   190   222   220   ar
   191   176   173   ar
   192   141   140   ar
   193   140   139    1
   194   220   219    1
   195   205   204    2
   196   174   172   ar
   197   173   171   ar
   198   163   162    1
   199   150   149    1
   200   150   151    1
   201   131   130    1
   202   139   136    1
   203   219   218    1
   204   172   171   ar
   205   152   151    2
   206   218   215    1
   207   171   170    1
   208   162   159    1
   209   130   127    1
   210   136   135    1
   211   136   137    1
   212   170   167    1
   213   215   216    1
   214   215   214    1
   215   137   138    2
   216   158   159    1
   217   159   160    1
   218   216   217    2
   219   127   126    1
   220   127   128    1
   221   128   129    2
   222   167   166    1
   223   167   168    1
   224   160   161    2
   225   168   169    2
