@<TRIPOS>MOLECULE
tmp/3wq5B00.pdb
 231 229 0 0 0
SMALL
GASTEIGER

@<TRIPOS>ATOM
      1  N         10.6410   59.0980  -17.8750 N.3    20  GLN20      -0.1245
      2  CA         9.9320   60.3340  -17.5860 C.3    20  GLN20       0.1566
      3  C          9.8380   60.6480  -16.0920 C.2    20  GLN20       0.2260
      4  O          9.6030   61.7980  -15.7220 O.2    20  GLN20      -0.2867
      5  CB         8.5270   60.2810  -18.1920 C.3    20  GLN20       0.0367
      6  CG         8.5350   60.1240  -19.7030 C.3    20  GLN20       0.0905
      7  CD         7.1440   60.0570  -20.2840 C.2    20  GLN20       0.2608
      8  OE1        6.5730   58.9780  -20.4380 O.2    20  GLN20      -0.2717
      9  NE2        6.5850   61.2150  -20.6080 N.am   20  GLN20      -0.0878
     10  N          9.0320   51.1260  -22.5160 N.3   124  HIS124     -0.1226
     11  CA         8.4620   52.4510  -22.7710 C.3   124  HIS124      0.1752
     12  C          9.5540   53.3670  -23.3560 C.2   124  HIS124      0.2596
     13  O          9.8180   54.4500  -22.8360 O.2   124  HIS124     -0.2718
     14  CB         7.8560   53.0360  -21.4840 C.3   124  HIS124      0.0759
     15  CG         6.8310   54.1100  -21.7160 C.ar  124  HIS124      0.0818
     16  ND1        5.5620   54.0550  -21.1800 N.ar  124  HIS124     -0.2268
     17  CD2        6.8960   55.2750  -22.4040 C.ar  124  HIS124      0.1154
     18  CE1        4.8880   55.1360  -21.5310 C.ar  124  HIS124      0.1986
     19  NE2        5.6760   55.8930  -22.2750 N.ar  124  HIS124     -0.2212
     20  N         10.2010   52.8620  -24.4090 N.am  125  TRP125     -0.1976
     21  CA        11.0830   53.6010  -25.3420 C.3   125  TRP125      0.1640
     22  C         12.5470   53.7500  -24.9100 C.2   125  TRP125      0.2290
     23  O         13.3770   54.1920  -25.7120 O.2   125  TRP125     -0.2864
     24  CB        10.5510   55.0120  -25.6420 C.3   125  TRP125      0.0576
     25  CG         9.1140   55.1310  -26.0410 C.ar  125  TRP125      0.0006
     26  CD1        8.2280   54.1200  -26.3140 C.ar  125  TRP125      0.0946
     27  CD2        8.3940   56.3530  -26.2010 C.ar  125  TRP125      0.0152
     28  NE1        6.9950   54.6530  -26.6300 N.ar  125  TRP125     -0.2442
     29  CE2        7.0770   56.0240  -26.5700 C.ar  125  TRP125      0.0810
     30  CE3        8.7400   57.7060  -26.0730 C.ar  125  TRP125      0.0012
     31  CZ2        6.1020   56.9930  -26.8060 C.ar  125  TRP125      0.0191
     32  CZ3        7.7720   58.6680  -26.3130 C.ar  125  TRP125      0.0001
     33  CH2        6.4710   58.3080  -26.6730 C.ar  125  TRP125      0.0015
     34  N          4.9660   50.2360  -24.9490 N.3   169  ASN169     -0.1225
     35  CA         4.1110   51.4020  -25.0710 C.3   169  ASN169      0.1785
     36  C          4.2190   52.0390  -26.4470 C.2   169  ASN169      0.2597
     37  O          5.3100   52.4280  -26.8620 O.2   169  ASN169     -0.2718
     38  CB         4.4770   52.4400  -24.0050 C.3   169  ASN169      0.1169
     39  CG         3.6080   53.6830  -24.0850 C.2   169  ASN169      0.2627
     40  OD1        2.4530   53.6630  -23.6650 O.2   169  ASN169     -0.2716
     41  ND2        4.1630   54.7740  -24.6170 N.am  169  ASN169     -0.0877
     42  N          3.0890   52.1490  -27.1420 N.am  170  GLU170     -0.1979
     43  CA         2.9950   52.9270  -28.3810 C.3   170  GLU170      0.1602
     44  C          4.1310   52.6920  -29.3750 C.2   170  GLU170      0.2287
     45  O          4.9670   53.5750  -29.5940 O.2   170  GLU170     -0.2864
     46  CB         2.9360   54.4200  -28.0540 C.3   170  GLU170      0.0415
     47  CG         1.7900   54.8320  -27.1610 C.3   170  GLU170      0.1163
     48  CD         1.7330   56.3360  -26.9620 C.2   170  GLU170      0.3649
     49  OE1        2.7060   57.0330  -27.3220 O.co2 170  GLU170     -0.2457
     50  OE2        0.7100   56.8290  -26.4440 O.co2 170  GLU170     -0.2457
     51  N          3.8270   52.8450  -32.3930 N.3   172  TRP172     -0.1227
     52  CA         3.6680   53.8980  -33.3930 C.3   172  TRP172      0.1737
     53  C          4.5520   55.0920  -33.0710 C.2   172  TRP172      0.2596
     54  O          5.2150   55.6290  -33.9530 O.2   172  TRP172     -0.2718
     55  CB         2.2150   54.3740  -33.5070 C.3   172  TRP172      0.0564
     56  CG         2.0960   55.5520  -34.4360 C.ar  172  TRP172      0.0003
     57  CD1        1.9630   55.5140  -35.7960 C.ar  172  TRP172      0.0946
     58  CD2        2.1330   56.9410  -34.0770 C.ar  172  TRP172      0.0152
     59  NE1        1.9070   56.7890  -36.3010 N.ar  172  TRP172     -0.2442
     60  CE2        2.0110   57.6830  -35.2680 C.ar  172  TRP172      0.0810
     61  CE3        2.2600   57.6280  -32.8660 C.ar  172  TRP172      0.0012
     62  CZ2        2.0060   59.0770  -35.2810 C.ar  172  TRP172      0.0191
     63  CZ3        2.2560   59.0160  -32.8820 C.ar  172  TRP172      0.0001
     64  CH2        2.1310   59.7220  -34.0820 C.ar  172  TRP172      0.0015
     65  N          4.5510   55.5150  -31.8110 N.am  173  SER173     -0.1952
     66  CA         5.3180   56.6890  -31.4200 C.3   173  SER173      0.1924
     67  C          6.8120   56.4410  -31.6000 C.2   173  SER173      0.2314
     68  O          7.5390   57.3110  -32.0760 O.2   173  SER173     -0.2863
     69  CB         5.0150   57.0760  -29.9720 C.3   173  SER173      0.2116
     70  OG         3.6450   57.3920  -29.8000 O.3   173  SER173     -0.2180
     71  N          7.3440   56.2000  -35.6830 N.3   176  TYR176     -0.1227
     72  CA         7.1650   57.5040  -36.3120 C.3   176  TYR176      0.1736
     73  C          8.1150   58.5480  -35.7340 C.2   176  TYR176      0.2596
     74  O          8.8260   59.2280  -36.4730 O.2   176  TYR176     -0.2718
     75  CB         5.7230   57.9990  -36.1690 C.3   176  TYR176      0.0548
     76  CG         5.6010   59.4880  -36.4180 C.ar  176  TYR176     -0.0200
     77  CD1        5.6740   60.0040  -37.7080 C.ar  176  TYR176     -0.0009
     78  CD2        5.4320   60.3780  -35.3640 C.ar  176  TYR176     -0.0009
     79  CE1        5.5750   61.3690  -37.9400 C.ar  176  TYR176      0.0417
     80  CE2        5.3330   61.7440  -35.5870 C.ar  176  TYR176      0.0417
     81  CZ         5.4030   62.2310  -36.8780 C.ar  176  TYR176      0.1957
     82  OH         5.3030   63.5850  -37.1060 O.3   176  TYR176     -0.2866
     83  N          8.1230   58.6690  -34.4110 N.am  177  GLY177     -0.1957
     84  CA         8.8790   59.7180  -33.7560 C.3   177  GLY177      0.1869
     85  C         10.3730   59.5110  -33.8780 C.2   177  GLY177      0.2309
     86  O         11.1290   60.4660  -34.0420 O.2   177  GLY177     -0.2863
     87  N         11.9710   63.1230  -34.1360 N.3   183  LEU183     -0.1231
     88  CA        11.6080   63.9660  -32.9990 C.3   183  LEU183      0.1693
     89  C         11.8780   63.2780  -31.6660 C.2   183  LEU183      0.2591
     90  O         11.9570   63.9370  -30.6260 O.2   183  LEU183     -0.2718
     91  CB        10.1300   64.3470  -33.0780 C.3   183  LEU183      0.0284
     92  CG         9.6850   65.2540  -34.2230 C.3   183  LEU183      0.0019
     93  CD1        8.1660   65.3520  -34.2690 C.3   183  LEU183      0.0001
     94  CD2       10.3120   66.6350  -34.0770 C.3   183  LEU183      0.0001
     95  N         11.9800   61.9520  -31.7040 N.am  184  LEU184     -0.1980
     96  CA        12.2560   61.1490  -30.5130 C.3   184  LEU184      0.1596
     97  C         13.5250   60.3320  -30.7100 C.2   184  LEU184      0.2287
     98  O         13.9310   60.0750  -31.8450 O.2   184  LEU184     -0.2864
     99  CB        11.0870   60.2070  -30.1960 C.3   184  LEU184      0.0297
    100  CG         9.6820   60.8030  -30.0970 C.3   184  LEU184      0.0022
    101  CD1        8.6610   59.6970  -29.8730 C.3   184  LEU184      0.0001
    102  CD2        9.6060   61.8410  -28.9780 C.3   184  LEU184      0.0001
    103  N         -1.5230   53.6040  -29.4850 N.3   240  VAL240     -0.1245
    104  CA        -2.1140   54.9340  -29.4770 C.3   240  VAL240      0.1561
    105  C         -2.6210   55.2690  -30.8650 C.2   240  VAL240      0.2260
    106  O         -2.0320   54.8670  -31.8670 O.2   240  VAL240     -0.2867
    107  CB        -1.1020   56.0210  -29.0240 C.3   240  VAL240      0.0252
    108  CG1        0.0710   56.1170  -29.9970 C.3   240  VAL240      0.0019
    109  CG2       -1.7840   57.3850  -28.8680 C.3   240  VAL240      0.0019
    110  N         -4.8290   58.8050  -32.8200 N.3   242  TYR242     -0.1241
    111  CA        -5.7820   59.8940  -32.8570 C.3   242  TYR242      0.1605
    112  C         -7.0700   59.3180  -33.4040 C.2   242  TYR242      0.2264
    113  O         -7.0280   58.4180  -34.2320 O.2   242  TYR242     -0.2867
    114  CB        -5.3340   61.0210  -33.7720 C.3   242  TYR242      0.0534
    115  CG        -3.9210   61.5190  -33.6040 C.ar  242  TYR242     -0.0201
    116  CD1       -3.3730   61.7650  -32.3530 C.ar  242  TYR242     -0.0009
    117  CD2       -3.1430   61.7630  -34.7180 C.ar  242  TYR242     -0.0009
    118  CE1       -2.0710   62.2470  -32.2320 C.ar  242  TYR242      0.0417
    119  CE2       -1.8630   62.2390  -34.6140 C.ar  242  TYR242      0.0417
    120  CZ        -1.3240   62.4780  -33.3760 C.ar  242  TYR242      0.1957
    121  OH        -0.0330   62.9510  -33.3010 O.3   242  TYR242     -0.2866
    122  N         -5.9880   60.5080  -26.4940 N.3   312  TYR312     -0.1241
    123  CA        -5.8220   61.9130  -26.1600 C.3   312  TYR312      0.1605
    124  C         -6.7300   62.8190  -26.9700 C.2   312  TYR312      0.2264
    125  O         -7.4920   63.6000  -26.4070 O.2   312  TYR312     -0.2867
    126  CB        -4.3680   62.3340  -26.3500 C.3   312  TYR312      0.0534
    127  CG        -3.4800   61.7740  -25.2730 C.ar  312  TYR312     -0.0201
    128  CD1       -3.3200   62.4420  -24.0690 C.ar  312  TYR312     -0.0009
    129  CD2       -2.8270   60.5600  -25.4470 C.ar  312  TYR312     -0.0009
    130  CE1       -2.5210   61.9250  -23.0730 C.ar  312  TYR312      0.0417
    131  CE2       -2.0160   60.0390  -24.4610 C.ar  312  TYR312      0.0417
    132  CZ        -1.8710   60.7250  -23.2760 C.ar  312  TYR312      0.1957
    133  OH        -1.0760   60.2100  -22.2840 O.3   312  TYR312     -0.2866
    134  N         -1.6910   72.3070  -24.2460 N.3   353  VAL353     -0.1245
    135  CA        -0.9180   71.7420  -25.3470 C.3   353  VAL353      0.1561
    136  C         -1.5230   72.1800  -26.6770 C.2   353  VAL353      0.2260
    137  O         -2.6730   71.8660  -26.9590 O.2   353  VAL353     -0.2867
    138  CB        -0.8770   70.2020  -25.2760 C.3   353  VAL353      0.0252
    139  CG1       -0.0480   69.6330  -26.4230 C.3   353  VAL353      0.0019
    140  CG2       -0.3270   69.7450  -23.9230 C.3   353  VAL353      0.0019
    141  N         -3.4670   69.8270  -28.9370 N.3   356  PHE356     -0.1241
    142  CA        -4.4180   68.9720  -28.2280 C.3   356  PHE356      0.1605
    143  C         -5.6870   69.6990  -27.8050 C.2   356  PHE356      0.2264
    144  O         -5.6420   70.6060  -26.9770 O.2   356  PHE356     -0.2867
    145  CB        -3.7670   68.3600  -26.9790 C.3   356  PHE356      0.0534
    146  CG        -2.7880   67.2440  -27.2680 C.ar  356  PHE356     -0.0203
    147  CD1       -2.0590   67.2100  -28.4500 C.ar  356  PHE356     -0.0042
    148  CD2       -2.5960   66.2320  -26.3390 C.ar  356  PHE356     -0.0042
    149  CE1       -1.1590   66.1810  -28.7040 C.ar  356  PHE356     -0.0003
    150  CE2       -1.6980   65.2030  -26.5840 C.ar  356  PHE356     -0.0003
    151  CZ        -0.9810   65.1760  -27.7690 C.ar  356  PHE356     -0.0000
    152  N         -3.7230   55.1150  -21.0470 N.3   383  GLU383     -0.1245
    153  CA        -3.4480   56.5410  -20.8620 C.3   383  GLU383      0.1567
    154  C         -4.6140   57.4000  -21.3430 C.2   383  GLU383      0.2260
    155  O         -5.2070   57.1340  -22.3880 O.2   383  GLU383     -0.2867
    156  CB        -2.1760   56.9730  -21.6050 C.3   383  GLU383      0.0388
    157  CG        -0.8790   56.4180  -21.0580 C.3   383  GLU383      0.1160
    158  CD         0.3390   56.9350  -21.7920 C.2   383  GLU383      0.3649
    159  OE1        0.2860   58.0830  -22.2760 O.co2 383  GLU383     -0.2457
    160  OE2        1.3450   56.1970  -21.8830 O.co2 383  GLU383     -0.2457
    161  N         -3.0820   59.5830  -17.4770 N.3   430  TRP430     -0.1241
    162  CA        -1.7760   60.1870  -17.6860 C.3   430  TRP430      0.1605
    163  C         -1.8810   61.6600  -17.3140 C.2   430  TRP430      0.2264
    164  O         -2.6450   62.4010  -17.9430 O.2   430  TRP430     -0.2867
    165  CB        -1.2770   60.0400  -19.1270 C.3   430  TRP430      0.0550
    166  CG         0.1260   60.5300  -19.2120 C.ar  430  TRP430      0.0003
    167  CD1        0.5410   61.8090  -19.4640 C.ar  430  TRP430      0.0946
    168  CD2        1.3080   59.7650  -18.9690 C.ar  430  TRP430      0.0152
    169  NE1        1.9110   61.8780  -19.4070 N.ar  430  TRP430     -0.2442
    170  CE2        2.4070   60.6350  -19.1010 C.ar  430  TRP430      0.0810
    171  CE3        1.5460   58.4240  -18.6550 C.ar  430  TRP430      0.0012
    172  CZ2        3.7200   60.2080  -18.9350 C.ar  430  TRP430      0.0191
    173  CZ3        2.8530   58.0020  -18.4920 C.ar  430  TRP430      0.0001
    174  CH2        3.9210   58.8870  -18.6370 C.ar  430  TRP430      0.0015
    175  N          8.1190   65.3820  -20.2410 N.3   437  GLU437     -0.1231
    176  CA         7.2560   65.0560  -21.3720 C.3   437  GLU437      0.1699
    177  C          8.0290   65.0300  -22.6890 C.2   437  GLU437      0.2592
    178  O          7.7160   65.7770  -23.6180 O.2   437  GLU437     -0.2718
    179  CB         6.0860   66.0480  -21.4550 C.3   437  GLU437      0.0402
    180  CG         5.0880   65.9350  -20.3020 C.3   437  GLU437      0.1161
    181  CD         4.2520   64.6630  -20.3650 C.2   437  GLU437      0.3649
    182  OE1        4.2990   63.9720  -21.4070 O.co2 437  GLU437     -0.2457
    183  OE2        3.5500   64.3550  -19.3730 O.co2 437  GLU437     -0.2457
    184  N          9.0350   64.1610  -22.7500 N.am  438  TRP438     -0.1962
    185  CA         9.8090   63.8990  -23.9660 C.3   438  TRP438      0.1771
    186  C         10.2920   65.1880  -24.6450 C.2   438  TRP438      0.2619
    187  O         10.9840   65.9860  -24.0140 O.2   438  TRP438     -0.2715
    188  CB         8.9880   63.0340  -24.9340 C.3   438  TRP438      0.0590
    189  CG         8.4950   61.7470  -24.3010 C.ar  438  TRP438      0.0006
    190  CD1        7.1950   61.3950  -24.0710 C.ar  438  TRP438      0.0946
    191  CD2        9.2990   60.6650  -23.7940 C.ar  438  TRP438      0.0152
    192  NE1        7.1380   60.1570  -23.4710 N.ar  438  TRP438     -0.2442
    193  CE2        8.4130   59.6900  -23.2850 C.ar  438  TRP438      0.0810
    194  CE3       10.6750   60.4240  -23.7260 C.ar  438  TRP438      0.0012
    195  CZ2        8.8600   58.4890  -22.7170 C.ar  438  TRP438      0.0191
    196  CZ3       11.1200   59.2300  -23.1580 C.ar  438  TRP438      0.0001
    197  CH2       10.2120   58.2790  -22.6640 C.ar  438  TRP438      0.0015
    198  N          9.9250   65.4150  -25.9070 N.am  439  LEU439     -0.1963
    199  CA        10.4630   66.5780  -26.6230 C.3   439  LEU439      0.1728
    200  C          9.9740   67.9150  -26.0590 C.2   439  LEU439      0.2616
    201  O         10.5120   68.9650  -26.4040 O.2   439  LEU439     -0.2715
    202  CB        10.1460   66.5000  -28.1280 C.3   439  LEU439      0.0311
    203  CG         8.7200   66.4370  -28.6800 C.3   439  LEU439      0.0022
    204  CD1        7.9620   67.7510  -28.5410 C.3   439  LEU439      0.0001
    205  CD2        8.7730   66.0220  -30.1390 C.3   439  LEU439      0.0001
    206  N          8.9540   67.8810  -25.2080 N.am  440  SER440     -0.1950
    207  CA         8.4290   69.1090  -24.6130 C.3   440  SER440      0.1924
    208  C          9.0580   69.4020  -23.2490 C.2   440  SER440      0.2314
    209  O          8.7140   70.3920  -22.5970 O.2   440  SER440     -0.2863
    210  CB         6.9070   69.0320  -24.4790 C.3   440  SER440      0.2116
    211  OG         6.2830   68.9620  -25.7500 O.3   440  SER440     -0.2180
    212  N          5.1980   71.1120  -20.1470 N.3   444  GLN444     -0.1245
    213  CA         3.8240   70.6430  -20.1510 C.3   444  GLN444      0.1566
    214  C          3.5390   69.7410  -18.9660 C.2   444  GLN444      0.2260
    215  O          4.2440   68.7820  -18.7300 O.2   444  GLN444     -0.2867
    216  CB         3.5140   69.9450  -21.4730 C.3   444  GLN444      0.0367
    217  CG         3.4960   70.8960  -22.6460 C.3   444  GLN444      0.0905
    218  CD         3.3670   70.2050  -23.9820 C.2   444  GLN444      0.2608
    219  OE1        3.3210   68.9910  -24.0550 O.2   444  GLN444     -0.2717
    220  NE2        3.3230   70.9890  -25.0520 N.am  444  GLN444     -0.0878
    221  N          1.0790   67.2260  -17.2410 N.3   446  PHE446     -0.1241
    222  CA        -0.0300   66.2930  -17.4300 C.3   446  PHE446      0.1605
    223  C         -0.5170   65.6610  -16.1230 C.2   446  PHE446      0.2264
    224  O         -1.4950   64.9220  -16.1220 O.2   446  PHE446     -0.2867
    225  CB         0.3730   65.1780  -18.4060 C.3   446  PHE446      0.0534
    226  CG         0.2200   65.5450  -19.8580 C.ar  446  PHE446     -0.0203
    227  CD1        1.1580   66.3390  -20.4940 C.ar  446  PHE446     -0.0042
    228  CD2       -0.8560   65.0740  -20.5930 C.ar  446  PHE446     -0.0042
    229  CE1        1.0150   66.6700  -21.8410 C.ar  446  PHE446     -0.0003
    230  CE2       -1.0060   65.4030  -21.9360 C.ar  446  PHE446     -0.0003
    231  CZ        -0.0680   66.1970  -22.5610 C.ar  446  PHE446     -0.0000
@<TRIPOS>BOND
     1    79    77   ar
     2    79    81   ar
     3    77    76   ar
     4    82    81    1
     5    81    80   ar
     6    74    73    2
     7    76    75    1
     8    76    78   ar
     9    72    75    1
    10    72    73    1
    11    72    71    1
    12    59    57   ar
    13    59    60   ar
    14    57    56   ar
    15    73    83   am
    16    80    78   ar
    17    62    60   ar
    18    62    64   ar
    19    60    58   ar
    20   117   119   ar
    21   117   115   ar
    22   119   120   ar
    23    56    58   ar
    24    56    55    1
    25    83    84    1
    26    93    92    1
    27   113   112    2
    28    92    94    1
    29    92    91    1
    30    87    88    1
    31    64    63   ar
    32    58    61   ar
    33    86    85    2
    34    54    53    2
    35    85    84    1
    36   114   115    1
    37   114   111    1
    38   115   116   ar
    39    55    52    1
    40   112   111    1
    41    52    53    1
    42    52    51    1
    43   120   121    1
    44   120   118   ar
    45    91    88    1
    46    53    65   am
    47    88    89    1
    48    63    61   ar
    49   111   110    1
    50   116   118   ar
    51    68    67    2
    52   106   105    2
    53    98    97    2
    54    65    66    1
    55    95    89   am
    56    95    96    1
    57    89    90    2
    58    67    66    1
    59    66    69    1
    60   105   104    1
    61    97    96    1
    62    96    99    1
    63    99   100    1
    64   205   203    1
    65   100   101    1
    66   100   102    1
    67   108   107    1
    68    69    70    1
    69    45    44    2
    70   103   104    1
    71   104   107    1
    72    44    43    1
    73   107   109    1
    74   141   142    1
    75   149   147   ar
    76   149   151   ar
    77   203   204    1
    78   203   202    1
    79   147   146   ar
    80    43    46    1
    81    43    42    1
    82   142   143    1
    83   142   145    1
    84   202   199    1
    85    46    47    1
    86   143   144    2
    87   151   150   ar
    88    49    48   ar
    89   146   145    1
    90   146   148   ar
    91    47    48    1
    92    42    36   am
    93   124   125    2
    94   124   123    1
    95    48    50   ar
    96   137   136    2
    97    37    36    2
    98    31    33   ar
    99    31    29   ar
   100   136   135    1
   101    33    32   ar
   102    28    29   ar
   103    28    26   ar
   104   199   200    1
   105   199   198    1
   106   150   148   ar
   107    29    27   ar
   108   122   123    1
   109    36    35    1
   110   139   138    1
   111   201   200    2
   112   126   123    1
   113   126   127    1
   114    26    25   ar
   115    32    30   ar
   116    27    30   ar
   117    27    25   ar
   118   200   206   am
   119    25    24    1
   120   198   186   am
   121   211   210    1
   122    23    22    2
   123    24    21    1
   124   129   127   ar
   125   129   131   ar
   126   135   138    1
   127   135   134    1
   128    21    22    1
   129    21    20    1
   130   138   140    1
   131   127   128   ar
   132   206   207    1
   133    35    34    1
   134    35    38    1
   135   220   218   am
   136   188   189    1
   137   188   185    1
   138   186   187    2
   139   186   185    1
   140    41    39   am
   141   207   210    1
   142   207   208    1
   143   131   132   ar
   144    20    12   am
   145   189   190   ar
   146   189   191   ar
   147    39    38    1
   148    39    40    2
   149   190   192   ar
   150   128   130   ar
   151   219   218    2
   152   218   217    1
   153   185   184    1
   154   191   194   ar
   155   191   193   ar
   156   194   196   ar
   157   178   177    2
   158   192   193   ar
   159    12    13    2
   160    12    11    1
   161   193   195   ar
   162   132   130   ar
   163   132   133    1
   164   208   209    2
   165   196   197   ar
   166    11    10    1
   167    11    14    1
   168   184   177   am
   169   195   197   ar
   170   177   176    1
   171   217   216    1
   172   231   230   ar
   173   231   229   ar
   174    17    19   ar
   175    17    15   ar
   176   155   154    2
   177   159   158   ar
   178    19    18   ar
   179   230   228   ar
   180   160   158   ar
   181   229   227   ar
   182   158   157    1
   183    15    14    1
   184    15    16   ar
   185   156   157    1
   186   156   153    1
   187    18    16   ar
   188   216   213    1
   189   179   176    1
   190   179   180    1
   191   182   181   ar
   192   176   175    1
   193   154   153    1
   194   152   153    1
   195     9     7   am
   196   228   226   ar
   197   227   226   ar
   198     8     7    2
   199   181   180    1
   200   181   183   ar
   201     7     6    1
   202   213   212    1
   203   213   214    1
   204   226   225    1
   205     6     5    1
   206   167   169   ar
   207   167   166   ar
   208   169   170   ar
   209   166   165    1
   210   166   168   ar
   211   165   162    1
   212   170   168   ar
   213   170   172   ar
   214   168   171   ar
   215   214   215    2
   216   172   174   ar
   217   171   173   ar
   218   174   173   ar
   219   225   222    1
   220     5     2    1
   221   164   163    2
   222     1     2    1
   223   162   161    1
   224   162   163    1
   225     2     3    1
   226   222   221    1
   227   222   223    1
   228   223   224    2
   229     3     4    2
