@<TRIPOS>MOLECULE
tmp/3wq5A03.pdb
 86 82 0 0 0
SMALL
GASTEIGER

@<TRIPOS>ATOM
      1  N        -27.4920   -3.8740  -36.0820 N.3    26  ALA26      -0.1231
      2  CA       -26.9800   -4.2260  -34.7670 C.3    26  ALA26       0.1694
      3  C        -26.3600   -5.6170  -34.7690 C.2    26  ALA26       0.2591
      4  O        -25.4700   -5.9030  -33.9710 O.2    26  ALA26      -0.2718
      5  CB       -28.0920   -4.1350  -33.7250 C.3    26  ALA26       0.0304
      6  N        -26.8330   -6.4690  -35.6740 N.am   27  LYS27      -0.1980
      7  CA       -26.3290   -7.8310  -35.8090 C.3    27  LYS27       0.1596
      8  C        -25.7670   -8.0770  -37.2070 C.2    27  LYS27       0.2287
      9  O        -25.8500   -9.1940  -37.7220 O.2    27  LYS27      -0.2864
     10  CB       -27.4330   -8.8480  -35.5350 C.3    27  LYS27       0.0298
     11  CG       -27.9870   -8.7870  -34.1410 C.3    27  LYS27       0.0038
     12  CD       -29.0560   -9.8340  -33.8990 C.3    27  LYS27       0.0206
     13  CE       -30.4540   -9.2550  -33.9050 C.3    27  LYS27       0.1093
     14  NZ       -30.6720   -8.2860  -32.8240 N.3    27  LYS27      -0.1314
     15  N        -20.3580   -7.9350  -39.2030 N.3    30  GLY30      -0.1210
     16  CA       -19.3380   -8.4450  -38.3050 C.3    30  GLY30       0.1956
     17  C        -19.4180   -7.9020  -36.8870 C.2    30  GLY30       0.2612
     18  O        -18.6130   -8.2700  -36.0380 O.2    30  GLY30      -0.2717
     19  N        -20.3860   -7.0270  -36.6310 N.am   31  LYS31      -0.1965
     20  CA       -20.5280   -6.4060  -35.3110 C.3    31  LYS31       0.1728
     21  C        -20.8700   -7.4060  -34.2060 C.2    31  LYS31       0.2617
     22  O        -21.6750   -8.3150  -34.4060 O.2    31  LYS31      -0.2715
     23  CB       -21.6020   -5.3140  -35.3580 C.3    31  LYS31       0.0311
     24  CG       -21.9260   -4.7160  -33.9990 C.3    31  LYS31       0.0038
     25  CD       -22.9890   -3.6450  -34.0810 C.3    31  LYS31       0.0206
     26  CE       -23.4120   -3.2370  -32.6850 C.3    31  LYS31       0.1093
     27  NZ       -23.9970   -4.3850  -31.9170 N.3    31  LYS31      -0.1314
     28  N        -20.2560   -7.2260  -33.0400 N.am   32  GLY32      -0.1941
     29  CA       -20.5700   -8.0280  -31.8740 C.3    32  GLY32       0.1998
     30  C        -21.6020   -7.3490  -30.9930 C.2    32  GLY32       0.2480
     31  O        -21.9450   -6.1830  -31.2050 O.2    32  GLY32      -0.2729
     32  N        -22.1070   -8.0740  -29.9900 N.am   33  PRO33      -0.2726
     33  CA       -23.1540   -7.5320  -29.1180 C.3    33  PRO33       0.1402
     34  C        -22.6260   -6.4800  -28.1500 C.2    33  PRO33       0.2269
     35  O        -21.4940   -6.6010  -27.6790 O.2    33  PRO33      -0.2865
     36  CB       -23.6470   -8.7680  -28.3590 C.3    33  PRO33       0.0296
     37  CG       -22.4660   -9.6870  -28.3320 C.3    33  PRO33       0.0237
     38  CD       -21.7270   -9.4520  -29.6260 C.3    33  PRO33       0.0939
     39  N        -27.7760   -3.7460  -26.8500 N.3    37  ASP37      -0.1239
     40  CA       -28.4330   -4.8820  -27.5010 C.3    37  ASP37       0.1674
     41  C        -29.0380   -5.7780  -26.4330 C.2    37  ASP37       0.2266
     42  O        -30.1970   -6.1810  -26.5180 O.2    37  ASP37      -0.2867
     43  CB       -27.4560   -5.7140  -28.3420 C.3    37  ASP37       0.1410
     44  CG       -26.8760   -4.9550  -29.5130 C.2    37  ASP37       0.3668
     45  OD1      -27.6410   -4.3530  -30.2950 O.co2  37  ASP37      -0.2456
     46  OD2      -25.6380   -4.9650  -29.6510 O.co2  37  ASP37      -0.2456
     47  N        -15.3730   -6.4700  -32.0060 N.3    89  PRO89      -0.2102
     48  CA       -16.5230   -7.3080  -31.6450 C.3    89  PRO89       0.1504
     49  C        -16.3440   -8.0620  -30.3330 C.2    89  PRO89       0.2575
     50  O        -17.3400   -8.3870  -29.6880 O.2    89  PRO89      -0.2718
     51  CB       -16.6240   -8.2780  -32.8230 C.3    89  PRO89       0.0282
     52  CG       -16.0330   -7.5150  -33.9630 C.3    89  PRO89       0.0208
     53  CD       -14.8860   -6.7710  -33.3630 C.3    89  PRO89       0.0893
     54  N        -15.0990   -8.3300  -29.9500 N.am   90  ARG90      -0.1980
     55  CA       -14.8210   -8.9780  -28.6740 C.3    90  ARG90       0.1597
     56  C        -14.2870   -7.9840  -27.6330 C.2    90  ARG90       0.2287
     57  O        -13.7560   -8.3800  -26.5980 O.2    90  ARG90      -0.2864
     58  CB       -13.8400  -10.1450  -28.8770 C.3    90  ARG90       0.0334
     59  CG       -14.4410  -11.2920  -29.6870 C.3    90  ARG90       0.0492
     60  CD       -13.4850  -12.4690  -29.8870 C.3    90  ARG90       0.2205
     61  NE       -14.1450  -13.5720  -30.5830 N.pl3  90  ARG90      -0.0865
     62  CZ       -14.9550  -14.4430  -29.9920 C.cat  90  ARG90       0.5346
     63  NH1      -15.1940  -14.3460  -28.6910 N.pl3  90  ARG90       0.1354
     64  NH2      -15.5230  -15.4160  -30.6950 N.pl3  90  ARG90       0.1354
     65  N        -20.4900   -6.3640  -24.9940 N.3   130  GLN130     -0.1231
     66  CA       -20.9570   -7.3290  -24.0040 C.3   130  GLN130      0.1698
     67  C        -19.8150   -8.2170  -23.5140 C.2   130  GLN130      0.2592
     68  O        -19.8250   -8.6800  -22.3740 O.2   130  GLN130     -0.2718
     69  CB       -22.0840   -8.1920  -24.5760 C.3   130  GLN130      0.0381
     70  CG       -22.8070   -9.0280  -23.5180 C.3   130  GLN130      0.0905
     71  CD       -23.5200   -8.1720  -22.4860 C.2   130  GLN130      0.2608
     72  OE1      -24.2740   -7.2700  -22.8370 O.2   130  GLN130     -0.2717
     73  NE2      -23.2790   -8.4490  -21.2060 N.am  130  GLN130     -0.0878
     74  N        -18.8280   -8.4440  -24.3770 N.am  131  ALA131     -0.1980
     75  CA       -17.6820   -9.2710  -24.0160 C.3   131  ALA131      0.1597
     76  C        -16.9560   -8.7090  -22.7920 C.2   131  ALA131      0.2287
     77  O        -16.5200   -9.4600  -21.9210 O.2   131  ALA131     -0.2864
     78  CB       -16.7240   -9.3960  -25.1940 C.3   131  ALA131      0.0319
     79  N        -19.1800   -8.9530  -19.7340 N.3   134  ASP134     -0.1239
     80  CA       -19.1200  -10.3560  -19.3250 C.3   134  ASP134      0.1674
     81  C        -17.8090  -10.7070  -18.6310 C.2   134  ASP134      0.2266
     82  O        -17.8100  -11.3950  -17.6110 O.2   134  ASP134     -0.2867
     83  CB       -19.2990  -11.2880  -20.5270 C.3   134  ASP134      0.1410
     84  CG       -20.7230  -11.3110  -21.0550 C.2   134  ASP134      0.3668
     85  OD1      -21.6280  -10.7540  -20.4020 O.co2 134  ASP134     -0.2456
     86  OD2      -20.9350  -11.9050  -22.1310 O.co2 134  ASP134     -0.2456
@<TRIPOS>BOND
     1    15    16    1
     2    16    17    1
     3     9     8    2
     4     8     7    1
     5    17    19   am
     6    17    18    2
     7    19    20    1
     8     1     2    1
     9     7     6    1
    10     7    10    1
    11     6     3   am
    12    10    11    1
    13    23    20    1
    14    23    24    1
    15    20    21    1
    16     3     2    1
    17     3     4    2
    18     2     5    1
    19    22    21    2
    20    21    28   am
    21    11    12    1
    22    25    24    1
    23    25    26    1
    24    52    53    1
    25    52    51    1
    26    13    12    1
    27    13    14    1
    28    53    47    1
    29    28    29    1
    30    51    48    1
    31    26    27    1
    32    47    48    1
    33    29    30    1
    34    48    49    1
    35    31    30    2
    36    30    32   am
    37    64    62    1
    38    61    62    2
    39    61    60    1
    40    49    54   am
    41    49    50    2
    42    45    44   ar
    43    62    63    1
    44    32    38    1
    45    32    33    1
    46    54    55    1
    47    60    59    1
    48    59    58    1
    49    46    44   ar
    50    38    37    1
    51    44    43    1
    52    33    36    1
    53    33    34    1
    54    58    55    1
    55    55    56    1
    56    36    37    1
    57    43    40    1
    58    34    35    2
    59    56    57    2
    60    40    39    1
    61    40    41    1
    62    42    41    2
    63    78    75    1
    64    65    66    1
    65    69    66    1
    66    69    70    1
    67    74    75    1
    68    74    67   am
    69    75    76    1
    70    66    67    1
    71    70    71    1
    72    67    68    2
    73    72    71    2
    74    76    77    2
    75    71    73   am
    76    86    84   ar
    77    84    83    1
    78    84    85   ar
    79    83    80    1
    80    79    80    1
    81    80    81    1
    82    81    82    2
