@<TRIPOS>MOLECULE
tmp/3wq6A00.pdb
 231 229 0 0 0
SMALL
GASTEIGER

@<TRIPOS>ATOM
      1  N          1.8090   40.5920   30.9960 N.3    22  GLN22      -0.1245
      2  CA         0.5280   39.9480   31.2580 C.3    22  GLN22       0.1566
      3  C          0.2220   39.7890   32.7450 C.2    22  GLN22       0.2260
      4  O         -0.9350   39.6510   33.1190 O.2    22  GLN22      -0.2867
      5  CB         0.4860   38.5850   30.5810 C.3    22  GLN22       0.0367
      6  CG         0.6470   38.6650   29.0750 C.3    22  GLN22       0.0905
      7  CD         0.6050   37.3040   28.4370 C.2    22  GLN22       0.2608
      8  OE1        1.6380   36.6630   28.2610 O.2    22  GLN22      -0.2717
      9  NE2       -0.5970   36.8440   28.0960 N.am   22  GLN22      -0.0878
     10  N          9.7390   38.8260   26.2970 N.3   126  HIS126     -0.1226
     11  CA         8.3910   38.3610   25.9840 C.3   126  HIS126      0.1752
     12  C          7.5490   39.5350   25.4520 C.2   126  HIS126      0.2596
     13  O          6.4810   39.8400   25.9800 O.2   126  HIS126     -0.2718
     14  CB         7.7540   37.7100   27.2250 C.3   126  HIS126      0.0759
     15  CG         6.6270   36.7680   26.9210 C.ar  126  HIS126      0.0818
     16  ND1        6.6150   35.4590   27.3580 N.ar  126  HIS126     -0.2268
     17  CD2        5.4610   36.9520   26.2580 C.ar  126  HIS126      0.1154
     18  CE1        5.4970   34.8760   26.9660 C.ar  126  HIS126      0.1986
     19  NE2        4.7780   35.7580   26.2960 N.ar  126  HIS126     -0.2212
     20  N          8.0870   40.1930   24.4180 N.am  127  TRP127     -0.1976
     21  CA         7.3990   41.1520   23.5300 C.3   127  TRP127      0.1640
     22  C          7.3450   42.5940   24.0400 C.2   127  TRP127      0.2290
     23  O          7.0090   43.4950   23.2660 O.2   127  TRP127     -0.2864
     24  CB         5.9540   40.7250   23.2150 C.3   127  TRP127      0.0576
     25  CG         5.7650   39.3200   22.7230 C.ar  127  TRP127      0.0006
     26  CD1        6.7360   38.4260   22.3550 C.ar  127  TRP127      0.0946
     27  CD2        4.5120   38.6470   22.5570 C.ar  127  TRP127      0.0152
     28  NE1        6.1570   37.2350   21.9700 N.ar  127  TRP127     -0.2442
     29  CE2        4.7930   37.3460   22.0890 C.ar  127  TRP127      0.0810
     30  CE3        3.1770   39.0210   22.7600 C.ar  127  TRP127      0.0012
     31  CZ2        3.7880   36.4170   21.8220 C.ar  127  TRP127      0.0191
     32  CZ3        2.1810   38.0980   22.4950 C.ar  127  TRP127      0.0001
     33  CH2        2.4900   36.8110   22.0290 C.ar  127  TRP127      0.0015
     34  N         10.4440   34.8380   23.6470 N.3   171  ASN171     -0.1225
     35  CA         9.2300   34.0630   23.4380 C.3   171  ASN171      0.1785
     36  C          8.6320   34.2790   22.0480 C.2   171  ASN171      0.2597
     37  O          8.3050   35.4070   21.6820 O.2   171  ASN171     -0.2718
     38  CB         8.1880   34.4310   24.4970 C.3   171  ASN171      0.1169
     39  CG         6.8950   33.6670   24.3270 C.2   171  ASN171      0.2627
     40  OD1        6.8230   32.4810   24.6500 O.2   171  ASN171     -0.2716
     41  ND2        5.8590   34.3460   23.8290 N.am  171  ASN171     -0.0877
     42  N          8.4880   33.1940   21.2910 N.am  172  GLU172     -0.1979
     43  CA         7.6940   33.1910   20.0570 C.3   172  GLU172      0.1602
     44  C          7.9720   34.3590   19.1150 C.2   172  GLU172      0.2287
     45  O          7.1130   35.2270   18.9410 O.2   172  GLU172     -0.2864
     46  CB         6.2060   33.1960   20.3930 C.3   172  GLU172      0.0415
     47  CG         5.7320   32.0180   21.2400 C.3   172  GLU172      0.1163
     48  CD         4.2120   31.9990   21.3840 C.2   172  GLU172      0.3649
     49  OE1        3.5650   32.9750   20.9530 O.co2 172  GLU172     -0.2457
     50  OE2        3.6720   31.0070   21.9200 O.co2 172  GLU172     -0.2457
     51  N          7.8340   34.2650   16.0750 N.3   174  TRP174     -0.1227
     52  CA         6.7720   34.1850   15.0680 C.3   174  TRP174      0.1737
     53  C          5.6220   35.1230   15.4040 C.2   174  TRP174      0.2596
     54  O          5.1450   35.8680   14.5480 O.2   174  TRP174     -0.2718
     55  CB         6.2180   32.7620   14.9220 C.3   174  TRP174      0.0564
     56  CG         5.0100   32.7380   14.0030 C.ar  174  TRP174      0.0003
     57  CD1        5.0230   32.6830   12.6400 C.ar  174  TRP174      0.0946
     58  CD2        3.6250   32.8090   14.3860 C.ar  174  TRP174      0.0152
     59  NE1        3.7400   32.7060   12.1490 N.ar  174  TRP174     -0.2442
     60  CE2        2.8620   32.7850   13.1990 C.ar  174  TRP174      0.0810
     61  CE3        2.9600   32.8890   15.6150 C.ar  174  TRP174      0.0012
     62  CZ2        1.4640   32.8340   13.2040 C.ar  174  TRP174      0.0191
     63  CZ3        1.5650   32.9400   15.6200 C.ar  174  TRP174      0.0001
     64  CH2        0.8350   32.9080   14.4200 C.ar  174  TRP174      0.0015
     65  N          5.1690   35.0640   16.6510 N.am  175  SER175     -0.1952
     66  CA         4.0760   35.9110   17.1120 C.3   175  SER175      0.1924
     67  C          4.4260   37.3900   17.0290 C.2   175  SER175      0.2314
     68  O          3.6210   38.2000   16.5780 O.2   175  SER175     -0.2863
     69  CB         3.7000   35.5470   18.5510 C.3   175  SER175      0.2116
     70  OG         3.4000   34.1670   18.6500 O.3   175  SER175     -0.2180
     71  N          4.5980   38.1510   13.0110 N.3   178  TYR178     -0.1227
     72  CA         3.2980   38.0420   12.3610 C.3   178  TYR178      0.1736
     73  C          2.2730   38.9800   12.9950 C.2   178  TYR178      0.2596
     74  O          1.5780   39.7220   12.3000 O.2   178  TYR178     -0.2718
     75  CB         2.7760   36.6020   12.4130 C.3   178  TYR178      0.0548
     76  CG         1.2830   36.5410   12.2020 C.ar  178  TYR178     -0.0200
     77  CD1        0.7330   36.7070   10.9370 C.ar  178  TYR178     -0.0009
     78  CD2        0.4180   36.3500   13.2730 C.ar  178  TYR178     -0.0009
     79  CE1       -0.6460   36.6690   10.7410 C.ar  178  TYR178      0.0417
     80  CE2       -0.9560   36.3160   13.0890 C.ar  178  TYR178      0.0417
     81  CZ        -1.4810   36.4720   11.8240 C.ar  178  TYR178      0.1957
     82  OH        -2.8510   36.4330   11.6510 O.3   178  TYR178     -0.2866
     83  N          2.1760   38.9430   14.3190 N.am  179  GLY179     -0.1957
     84  CA         1.1690   39.7240   15.0120 C.3   179  GLY179      0.1869
     85  C          1.4550   41.2120   14.9760 C.2   179  GLY179      0.2309
     86  O          0.5430   42.0220   14.8290 O.2   179  GLY179     -0.2863
     87  N         -2.1390   42.9260   14.9170 N.3   185  LEU185     -0.1231
     88  CA        -2.9910   42.5210   16.0370 C.3   185  LEU185      0.1693
     89  C         -2.2970   42.6920   17.3850 C.2   185  LEU185      0.2591
     90  O         -2.9510   42.7350   18.4310 O.2   185  LEU185     -0.2718
     91  CB        -3.4050   41.0560   15.8750 C.3   185  LEU185      0.0284
     92  CG        -4.3960   40.7040   14.7680 C.3   185  LEU185      0.0019
     93  CD1       -4.4130   39.2040   14.5520 C.3   185  LEU185      0.0001
     94  CD2       -5.7830   41.2100   15.1390 C.3   185  LEU185      0.0001
     95  N         -0.9700   42.7720   17.3390 N.am  186  LEU186     -0.1980
     96  CA        -0.1320   42.9200   18.5220 C.3   186  LEU186      0.1596
     97  C          0.7250   44.1700   18.3940 C.2   186  LEU186      0.2287
     98  O          0.9360   44.6550   17.2850 O.2   186  LEU186     -0.2864
     99  CB         0.7730   41.7020   18.7010 C.3   186  LEU186      0.0297
    100  CG         0.1770   40.2980   18.7990 C.3   186  LEU186      0.0022
    101  CD1        1.3200   39.3020   18.9800 C.3   186  LEU186      0.0001
    102  CD2       -0.8030   40.1960   19.9490 C.3   186  LEU186      0.0001
    103  N          6.8820   28.8230   18.7180 N.3   242  VAL242     -0.1245
    104  CA         5.5240   28.2980   18.6710 C.3   242  VAL242      0.1561
    105  C          5.1850   27.8520   17.2540 C.2   242  VAL242      0.2260
    106  O          5.6040   28.4720   16.2790 O.2   242  VAL242     -0.2867
    107  CB         4.4910   29.3440   19.1410 C.3   242  VAL242      0.0252
    108  CG1        4.4940   30.5780   18.2270 C.3   242  VAL242      0.0019
    109  CG2        3.0950   28.7300   19.2340 C.3   242  VAL242      0.0019
    110  N          1.5900   25.7790   15.2050 N.3   244  TYR244     -0.1241
    111  CA         0.4760   24.8500   15.1180 C.3   244  TYR244      0.1605
    112  C          0.9970   23.5650   14.4950 C.2   244  TYR244      0.2264
    113  O          1.9250   23.6040   13.6860 O.2   244  TYR244     -0.2867
    114  CB        -0.6540   25.4010   14.2540 C.3   244  TYR244      0.0534
    115  CG        -1.1710   26.7730   14.6060 C.ar  244  TYR244     -0.0201
    116  CD1       -1.3020   27.1870   15.9260 C.ar  244  TYR244     -0.0009
    117  CD2       -1.5480   27.6500   13.6030 C.ar  244  TYR244     -0.0009
    118  CE1       -1.7980   28.4470   16.2260 C.ar  244  TYR244      0.0417
    119  CE2       -2.0390   28.9030   13.8880 C.ar  244  TYR244      0.0417
    120  CZ        -2.1660   29.2990   15.1940 C.ar  244  TYR244      0.1957
    121  OH        -2.6580   30.5560   15.4540 O.3   244  TYR244     -0.2866
    122  N         -0.4160   24.6000   21.3380 N.3   314  TYR314     -0.1241
    123  CA        -1.8000   24.8510   21.6880 C.3   314  TYR314      0.1605
    124  C         -2.7400   24.0000   20.8520 C.2   314  TYR314      0.2264
    125  O         -3.5360   23.2290   21.4000 O.2   314  TYR314     -0.2867
    126  CB        -2.1270   26.3400   21.5290 C.3   314  TYR314      0.0534
    127  CG        -1.5150   27.1640   22.6360 C.ar  314  TYR314     -0.0201
    128  CD1       -2.1460   27.2690   23.8680 C.ar  314  TYR314     -0.0009
    129  CD2       -0.2890   27.7950   22.4680 C.ar  314  TYR314     -0.0009
    130  CE1       -1.5860   27.9970   24.9000 C.ar  314  TYR314      0.0417
    131  CE2        0.2840   28.5260   23.4970 C.ar  314  TYR314      0.0417
    132  CZ        -0.3770   28.6260   24.7100 C.ar  314  TYR314      0.1957
    133  OH         0.1730   29.3500   25.7460 O.3   314  TYR314     -0.2866
    134  N        -11.9520   29.3800   23.6170 N.3   355  VAL355     -0.1245
    135  CA       -11.3550   30.1620   22.5400 C.3   355  VAL355      0.1561
    136  C        -11.8270   29.6250   21.1920 C.2   355  VAL355      0.2260
    137  O        -11.5460   28.4810   20.8540 O.2   355  VAL355     -0.2867
    138  CB        -9.8150   30.1290   22.5940 C.3   355  VAL355      0.0252
    139  CG1       -9.2290   30.9800   21.4760 C.3   355  VAL355      0.0019
    140  CG2       -9.3240   30.6150   23.9490 C.3   355  VAL355      0.0019
    141  N         -9.7560   27.4720   18.8030 N.3   358  PHE358     -0.1241
    142  CA        -8.9060   26.5120   19.5070 C.3   358  PHE358      0.1605
    143  C         -9.6490   25.2620   19.9650 C.2   358  PHE358      0.2264
    144  O        -10.4650   25.3240   20.8800 O.2   358  PHE358     -0.2867
    145  CB        -8.2670   27.1690   20.7380 C.3   358  PHE358      0.0534
    146  CG        -7.0050   27.9370   20.4470 C.ar  358  PHE358     -0.0203
    147  CD1       -6.7470   28.4380   19.1810 C.ar  358  PHE358     -0.0042
    148  CD2       -6.0690   28.1400   21.4480 C.ar  358  PHE358     -0.0042
    149  CE1       -5.5770   29.1400   18.9210 C.ar  358  PHE358     -0.0003
    150  CE2       -4.8920   28.8360   21.1930 C.ar  358  PHE358     -0.0003
    151  CZ        -4.6520   29.3350   19.9270 C.ar  358  PHE358     -0.0000
    152  N          5.0830   26.2940   26.9760 N.3   385  GLU385     -0.1245
    153  CA         3.6630   26.6460   27.1320 C.3   385  GLU385      0.1567
    154  C          2.7640   25.5390   26.5870 C.2   385  GLU385      0.2260
    155  O          2.9980   25.0280   25.4970 O.2   385  GLU385     -0.2867
    156  CB         3.2970   27.9490   26.4070 C.3   385  GLU385      0.0388
    157  CG         3.8650   29.2170   27.0130 C.3   385  GLU385      0.1160
    158  CD         3.4780   30.4680   26.2460 C.2   385  GLU385      0.3649
    159  OE1        2.3710   30.5040   25.6620 O.co2 385  GLU385     -0.2457
    160  OE2        4.2880   31.4200   26.2350 O.co2 385  GLU385     -0.2457
    161  N          0.6600   26.9180   30.4760 N.3   432  TRP432     -0.1241
    162  CA         0.1260   28.2630   30.3180 C.3   432  TRP432      0.1605
    163  C         -1.3510   28.2110   30.6950 C.2   432  TRP432      0.2264
    164  O         -2.1350   27.5630   29.9990 O.2   432  TRP432     -0.2867
    165  CB         0.2900   28.8230   28.8980 C.3   432  TRP432      0.0550
    166  CG        -0.1000   30.2550   28.9280 C.ar  432  TRP432      0.0003
    167  CD1       -1.3500   30.7770   28.7450 C.ar  432  TRP432      0.0946
    168  CD2        0.7460   31.3490   29.2880 C.ar  432  TRP432      0.0152
    169  NE1       -1.3190   32.1450   28.9240 N.ar  432  TRP432     -0.2442
    170  CE2       -0.0440   32.5160   29.2650 C.ar  432  TRP432      0.0810
    171  CE3        2.1030   31.4570   29.6020 C.ar  432  TRP432      0.0012
    172  CZ2        0.4790   33.7720   29.5460 C.ar  432  TRP432      0.0191
    173  CZ3        2.6210   32.7030   29.8810 C.ar  432  TRP432      0.0001
    174  CH2        1.8130   33.8430   29.8530 C.ar  432  TRP432      0.0015
    175  N         -4.6410   38.5840   28.5070 N.3   439  GLU439     -0.1231
    176  CA        -4.3520   37.7670   27.3350 C.3   439  GLU439      0.1699
    177  C         -4.2780   38.6120   26.0680 C.2   439  GLU439      0.2592
    178  O         -5.0510   38.4180   25.1250 O.2   439  GLU439     -0.2718
    179  CB        -5.3970   36.6580   27.1930 C.3   439  GLU439      0.0402
    180  CG        -5.3080   35.5800   28.2780 C.3   439  GLU439      0.1161
    181  CD        -4.0810   34.6710   28.1390 C.2   439  GLU439      0.3649
    182  OE1       -3.3920   34.7260   27.0920 O.co2 439  GLU439     -0.2457
    183  OE2       -3.8120   33.8950   29.0870 O.co2 439  GLU439     -0.2457
    184  N         -3.3420   39.5560   26.0730 N.am  440  TRP440     -0.1962
    185  CA        -3.0190   40.3730   24.9060 C.3   440  TRP440      0.1771
    186  C         -4.2890   40.9430   24.2510 C.2   440  TRP440      0.2619
    187  O         -5.0700   41.6130   24.9260 O.2   440  TRP440     -0.2715
    188  CB        -2.1830   39.5510   23.9150 C.3   440  TRP440      0.0590
    189  CG        -0.9230   38.9540   24.5330 C.ar  440  TRP440      0.0006
    190  CD1       -0.6420   37.6260   24.6910 C.ar  440  TRP440      0.0946
    191  CD2        0.2090   39.6660   25.0770 C.ar  440  TRP440      0.0152
    192  NE1        0.5870   37.4660   25.2870 N.ar  440  TRP440     -0.2442
    193  CE2        1.1290   38.7000   25.5360 C.ar  440  TRP440      0.0810
    194  CE3        0.5270   41.0210   25.2230 C.ar  440  TRP440      0.0012
    195  CZ2        2.3530   39.0460   26.1260 C.ar  440  TRP440      0.0191
    196  CZ3        1.7500   41.3650   25.8110 C.ar  440  TRP440      0.0001
    197  CH2        2.6410   40.3790   26.2550 C.ar  440  TRP440      0.0015
    198  N         -4.5260   40.6590   22.9700 N.am  441  LEU441     -0.1963
    199  CA        -5.6640   41.2860   22.2780 C.3   441  LEU441      0.1728
    200  C         -7.0290   40.8900   22.8480 C.2   441  LEU441      0.2616
    201  O         -8.0290   41.5420   22.5600 O.2   441  LEU441     -0.2715
    202  CB        -5.6370   40.9750   20.7740 C.3   441  LEU441      0.0311
    203  CG        -5.7990   39.5500   20.2310 C.3   441  LEU441      0.0022
    204  CD1       -7.2590   39.0990   20.1640 C.3   441  LEU441      0.0001
    205  CD2       -5.1710   39.4560   18.8490 C.3   441  LEU441      0.0001
    206  N         -7.0740   39.8210   23.6330 N.am  442  SER442     -0.1950
    207  CA        -8.3400   39.3640   24.2080 C.3   442  SER442      0.1924
    208  C         -8.5860   39.9400   25.6030 C.2   442  SER442      0.2314
    209  O         -9.6180   39.6650   26.2250 O.2   442  SER442     -0.2863
    210  CB        -8.3750   37.8350   24.2630 C.3   442  SER442      0.2116
    211  OG        -8.2550   37.2830   22.9630 O.3   442  SER442     -0.2180
    212  N        -10.4980   35.9700   28.3790 N.3   446  GLN446     -0.1245
    213  CA       -10.1250   34.5660   28.2690 C.3   446  GLN446      0.1566
    214  C         -9.2170   34.1480   29.4180 C.2   446  GLN446      0.2260
    215  O         -8.1950   34.7900   29.6740 O.2   446  GLN446     -0.2867
    216  CB        -9.4520   34.2940   26.9180 C.3   446  GLN446      0.0367
    217  CG       -10.4430   34.3190   25.7640 C.3   446  GLN446      0.0905
    218  CD        -9.7900   34.2750   24.3940 C.2   446  GLN446      0.2608
    219  OE1       -8.5660   34.1680   24.2660 O.2   446  GLN446     -0.2717
    220  NE2      -10.6170   34.3530   23.3540 N.am  446  GLN446     -0.0878
    221  N         -6.7810   31.4090   31.0370 N.3   448  PHE448     -0.1241
    222  CA        -5.9130   30.2630   30.7570 C.3   448  PHE448      0.1605
    223  C         -5.3070   29.6570   32.0240 C.2   448  PHE448      0.2264
    224  O         -4.6330   28.6270   31.9670 O.2   448  PHE448     -0.2867
    225  CB        -4.7710   30.6630   29.8070 C.3   448  PHE448      0.0534
    226  CG        -5.1330   30.6020   28.3440 C.ar  448  PHE448     -0.0203
    227  CD1       -5.8940   31.6020   27.7630 C.ar  448  PHE448     -0.0042
    228  CD2       -4.6830   29.5590   27.5480 C.ar  448  PHE448     -0.0042
    229  CE1       -6.2210   31.5550   26.4160 C.ar  448  PHE448     -0.0003
    230  CE2       -5.0090   29.5030   26.1950 C.ar  448  PHE448     -0.0003
    231  CZ        -5.7750   30.5000   25.6320 C.ar  448  PHE448     -0.0000
@<TRIPOS>BOND
     1    79    77   ar
     2    79    81   ar
     3    77    76   ar
     4    82    81    1
     5    81    80   ar
     6    59    57   ar
     7    59    60   ar
     8    76    75    1
     9    76    78   ar
    10    74    73    2
    11    72    75    1
    12    72    73    1
    13    72    71    1
    14    57    56   ar
    15    73    83   am
    16    80    78   ar
    17    60    62   ar
    18    60    58   ar
    19    62    64   ar
    20   117   119   ar
    21   117   115   ar
    22   113   112    2
    23   119   120   ar
    24    56    58   ar
    25    56    55    1
    26   114   115    1
    27   114   111    1
    28    83    84    1
    29    58    61   ar
    30    64    63   ar
    31   112   111    1
    32    54    53    2
    33    93    92    1
    34   115   116   ar
    35    92    94    1
    36    92    91    1
    37    86    85    2
    38    87    88    1
    39    55    52    1
    40    85    84    1
    41    52    53    1
    42    52    51    1
    43   111   110    1
    44   120   121    1
    45   120   118   ar
    46    53    65   am
    47    61    63   ar
    48    91    88    1
    49   116   118   ar
    50    88    89    1
    51   106   105    2
    52    68    67    2
    53    65    66    1
    54    67    66    1
    55    66    69    1
    56   105   104    1
    57    98    97    2
    58    95    89   am
    59    95    96    1
    60    89    90    2
    61   108   107    1
    62    97    96    1
    63    96    99    1
    64    69    70    1
    65   104   103    1
    66   104   107    1
    67    99   100    1
    68   100   101    1
    69   100   102    1
    70   141   142    1
    71   205   203    1
    72   149   147   ar
    73   149   151   ar
    74    45    44    2
    75    44    43    1
    76   107   109    1
    77   147   146   ar
    78   142   143    1
    79   142   145    1
    80   151   150   ar
    81   143   144    2
    82    43    46    1
    83    43    42    1
    84   204   203    1
    85   203   202    1
    86    46    47    1
    87   146   145    1
    88   146   148   ar
    89   202   199    1
    90   124   125    2
    91   124   123    1
    92   137   136    2
    93    49    48   ar
    94   136   135    1
    95   150   148   ar
    96    47    48    1
    97    42    36   am
    98   122   123    1
    99    48    50   ar
   100   139   138    1
   101   126   123    1
   102   126   127    1
   103    37    36    2
   104    31    33   ar
   105    31    29   ar
   106    28    29   ar
   107    28    26   ar
   108    33    32   ar
   109    36    35    1
   110    29    27   ar
   111   199   200    1
   112   199   198    1
   113    26    25   ar
   114   129   127   ar
   115   129   131   ar
   116    32    30   ar
   117   135   138    1
   118   135   134    1
   119    27    25   ar
   120    27    30   ar
   121   201   200    2
   122   138   140    1
   123   127   128   ar
   124    25    24    1
   125   200   206   am
   126   211   210    1
   127   198   186   am
   128    24    21    1
   129    23    22    2
   130   220   218   am
   131    35    34    1
   132    35    38    1
   133   131   132   ar
   134    21    22    1
   135    21    20    1
   136   206   207    1
   137    41    39   am
   138   128   130   ar
   139   188   189    1
   140   188   185    1
   141   207   210    1
   142   207   208    1
   143   186   185    1
   144   186   187    2
   145   219   218    2
   146    39    38    1
   147    39    40    2
   148   218   217    1
   149    20    12   am
   150   189   190   ar
   151   189   191   ar
   152   190   192   ar
   153   132   130   ar
   154   132   133    1
   155   185   184    1
   156   191   194   ar
   157   191   193   ar
   158   178   177    2
   159   194   196   ar
   160   192   193   ar
   161    12    13    2
   162    12    11    1
   163   155   154    2
   164   193   195   ar
   165   208   209    2
   166   231   230   ar
   167   231   229   ar
   168   159   158   ar
   169   217   216    1
   170   196   197   ar
   171    11    10    1
   172    11    14    1
   173   177   184   am
   174   177   176    1
   175   195   197   ar
   176   230   228   ar
   177   160   158   ar
   178   158   157    1
   179    17    19   ar
   180    17    15   ar
   181    19    18   ar
   182   156   157    1
   183   156   153    1
   184   229   227   ar
   185   154   153    1
   186   216   213    1
   187    15    14    1
   188    15    16   ar
   189    18    16   ar
   190   152   153    1
   191   182   181   ar
   192   179   176    1
   193   179   180    1
   194   176   175    1
   195   228   226   ar
   196   227   226   ar
   197     9     7   am
   198   181   180    1
   199   181   183   ar
   200     8     7    2
   201   213   212    1
   202   213   214    1
   203   226   225    1
   204     7     6    1
   205   167   169   ar
   206   167   166   ar
   207   165   166    1
   208   165   162    1
   209   169   170   ar
   210   166   168   ar
   211     6     5    1
   212   170   168   ar
   213   170   172   ar
   214   168   171   ar
   215   214   215    2
   216   172   174   ar
   217   171   173   ar
   218   225   222    1
   219   174   173   ar
   220   164   163    2
   221   162   161    1
   222   162   163    1
   223     5     2    1
   224   222   221    1
   225   222   223    1
   226     1     2    1
   227     2     3    1
   228   224   223    2
   229     3     4    2
