@<TRIPOS>MOLECULE
tmp/3wq6A01.pdb
 78 73 0 0 0
SMALL
GASTEIGER

@<TRIPOS>ATOM
      1  N         -5.1860    5.6630   43.3860 N.3     1  SER1       -0.1202
      2  CA        -4.1960    5.5730   42.3190 C.3     1  SER1        0.2020
      3  C         -4.6420    6.3450   41.0820 C.2     1  SER1        0.2619
      4  O         -5.7800    6.2090   40.6310 O.2     1  SER1       -0.2717
      5  CB        -3.9300    4.1120   41.9590 C.3     1  SER1        0.2103
      6  OG        -2.9240    4.0090   40.9670 O.3     1  SER1       -0.2182
      7  N         -3.7400    7.1610   40.5450 N.am    2  SER2       -0.1937
      8  CA        -4.0050    7.8780   39.3070 C.3     2  SER2        0.2055
      9  C         -2.7080    8.3230   38.6450 C.2     2  SER2        0.2643
     10  O         -1.6530    8.3340   39.2780 O.2     2  SER2       -0.2714
     11  CB        -4.9060    9.0900   39.5640 C.3     2  SER2        0.2130
     12  OG        -4.9830    9.9190   38.4140 O.3     2  SER2       -0.2179
     13  N         -2.8130    8.6630   37.3640 N.am    3  PHE3       -0.1959
     14  CA        -1.7250    9.2220   36.5650 C.3     3  PHE3        0.1771
     15  C         -0.9160   10.2340   37.3850 C.2     3  PHE3        0.2619
     16  O         -1.4830   11.1820   37.9250 O.2     3  PHE3       -0.2715
     17  CB        -2.3240    9.8730   35.3130 C.3     3  PHE3        0.0574
     18  CG        -1.3170   10.3190   34.2870 C.ar    3  PHE3       -0.0200
     19  CD1       -0.1330    9.6300   34.0930 C.ar    3  PHE3       -0.0042
     20  CD2       -1.5760   11.4350   33.5010 C.ar    3  PHE3       -0.0042
     21  CE1        0.7780   10.0510   33.1360 C.ar    3  PHE3       -0.0003
     22  CE2       -0.6730   11.8590   32.5420 C.ar    3  PHE3       -0.0003
     23  CZ         0.5060   11.1680   32.3620 C.ar    3  PHE3       -0.0000
     24  N          0.3910   10.0130   37.5050 N.am    4  ASN4       -0.1972
     25  CA         1.2430   10.8940   38.3130 C.3     4  ASN4        0.1688
     26  C          2.6550   11.0480   37.7420 C.2     4  ASN4        0.2292
     27  O          3.0050   10.4180   36.7450 O.2     4  ASN4       -0.2864
     28  CB         1.3310   10.3790   39.7500 C.3     4  ASN4        0.1181
     29  CG         1.8780    8.9780   39.8110 C.2     4  ASN4        0.2629
     30  OD1        3.0840    8.7750   39.7790 O.2     4  ASN4       -0.2716
     31  ND2        0.9880    7.9990   39.8750 N.am    4  ASN4       -0.0877
     32  N          5.5500   10.0210   38.3910 N.3     6  THR6       -0.1203
     33  CA         6.4970    8.9110   38.3250 C.3     6  THR6        0.1994
     34  C          6.5180    8.2620   36.9380 C.2     6  THR6        0.2618
     35  O          7.4140    7.4830   36.6280 O.2     6  THR6       -0.2717
     36  CB         6.1910    7.8300   39.3870 C.3     6  THR6        0.1784
     37  OG1        4.8930    7.2700   39.1480 O.3     6  THR6       -0.2211
     38  CG2        6.2410    8.4320   40.7850 C.3     6  THR6        0.0376
     39  N          5.5350    8.5900   36.1030 N.am    7  SER7       -0.1951
     40  CA         5.5070    8.0920   34.7280 C.3     7  SER7        0.1924
     41  C          6.4690    8.8610   33.8290 C.2     7  SER7        0.2314
     42  O          6.6990    8.4790   32.6820 O.2     7  SER7       -0.2863
     43  CB         4.0890    8.1660   34.1550 C.3     7  SER7        0.2116
     44  OG         3.2510    7.2080   34.7740 O.3     7  SER7       -0.2180
     45  N         -0.4260   12.6450   28.7440 N.3   414  LEU414     -0.1245
     46  CA        -0.3520   11.2840   28.2160 C.3   414  LEU414      0.1561
     47  C          0.3400   11.2860   26.8600 C.2   414  LEU414      0.2260
     48  O          1.1880   10.4340   26.5770 O.2   414  LEU414     -0.2867
     49  CB        -1.7480   10.6590   28.1010 C.3   414  LEU414      0.0270
     50  CG        -2.3670   10.2000   29.4230 C.3   414  LEU414      0.0019
     51  CD1       -3.8210    9.8150   29.2230 C.3   414  LEU414      0.0001
     52  CD2       -1.5880    9.0360   30.0130 C.3   414  LEU414      0.0001
     53  N          4.0050   11.9200   27.3440 N.3   417  LYS417     -0.1245
     54  CA         4.6200   10.6830   27.8150 C.3   417  LYS417      0.1561
     55  C          4.9580    9.7570   26.6530 C.2   417  LYS417      0.2260
     56  O          6.0290    9.1520   26.6230 O.2   417  LYS417     -0.2867
     57  CB         3.6890    9.9820   28.8110 C.3   417  LYS417      0.0271
     58  CG         4.0790    8.5690   29.1790 C.3   417  LYS417      0.0035
     59  CD         3.0110    7.9100   30.0640 C.3   417  LYS417      0.0206
     60  CE         2.7180    6.4660   29.6310 C.3   417  LYS417      0.1093
     61  NZ         2.1220    6.3910   28.2560 N.3   417  LYS417     -0.1314
     62  N         -1.9400   16.8270   43.0050 N.3   472  LYS472     -0.1245
     63  CA        -1.9930   15.3900   43.2380 C.3   472  LYS472      0.1561
     64  C         -1.0270   14.6440   42.3200 C.2   472  LYS472      0.2260
     65  O         -0.2910   13.7590   42.7570 O.2   472  LYS472     -0.2867
     66  CB        -3.4220   14.8780   43.0400 C.3   472  LYS472      0.0271
     67  CG        -3.5970   13.3960   43.3210 C.3   472  LYS472      0.0035
     68  CD        -5.0620   13.0080   43.2380 C.3   472  LYS472      0.0206
     69  CE        -5.2550   11.5360   43.5300 C.3   472  LYS472      0.1093
     70  NZ        -4.4720   10.6940   42.5900 N.3   472  LYS472     -0.1314
     71  N          2.5610   14.5990   43.3870 N.3   475  LEU475     -0.1245
     72  CA         2.7950   13.9090   44.6550 C.3   475  LEU475      0.1561
     73  C          3.0860   14.9090   45.7680 C.2   475  LEU475      0.2260
     74  O          2.4510   15.9650   45.8480 O.2   475  LEU475     -0.2867
     75  CB         3.9470   12.9040   44.5280 C.3   475  LEU475      0.0270
     76  CG         3.9770   11.9950   43.2960 C.3   475  LEU475      0.0019
     77  CD1        5.2910   11.2300   43.2410 C.3   475  LEU475      0.0001
     78  CD2        2.7860   11.0360   43.2520 C.3   475  LEU475      0.0001
@<TRIPOS>BOND
     1    48    47    2
     2    56    55    2
     3    55    54    1
     4    47    46    1
     5    53    54    1
     6    54    57    1
     7    49    46    1
     8    49    50    1
     9    46    45    1
    10    61    60    1
    11    57    58    1
    12    58    59    1
    13    51    50    1
    14    50    52    1
    15    60    59    1
    16    23    22   ar
    17    23    21   ar
    18    22    20   ar
    19    42    41    2
    20    21    19   ar
    21    20    18   ar
    22    41    40    1
    23    19    18   ar
    24    43    40    1
    25    43    44    1
    26    18    17    1
    27    40    39    1
    28    17    14    1
    29    39    34   am
    30    14    13    1
    31    14    15    1
    32    35    34    2
    33    27    26    2
    34    34    33    1
    35    13     9   am
    36    15    24   am
    37    15    16    2
    38    24    25    1
    39    26    25    1
    40    25    28    1
    41    33    32    1
    42    33    36    1
    43    12    11    1
    44     9    10    2
    45     9     8    1
    46    37    36    1
    47     8    11    1
    48     8     7    1
    49    36    38    1
    50    28    29    1
    51    30    29    2
    52    29    31   am
    53     7     3   am
    54     4     3    2
    55     6     5    1
    56     3     2    1
    57     5     2    1
    58     2     1    1
    59    64    65    2
    60    64    63    1
    61    70    69    1
    62    62    63    1
    63    66    63    1
    64    66    67    1
    65    68    67    1
    66    68    69    1
    67    77    76    1
    68    78    76    1
    69    76    75    1
    70    71    72    1
    71    75    72    1
    72    72    73    1
    73    73    74    2
