@<TRIPOS>MOLECULE
tmp/3wqeB01.pdb
 125 118 0 0 0
SMALL
GASTEIGER

@<TRIPOS>ATOM
      1  N        -20.7920  -60.2990    5.0590 N.3    50  HIS50      -0.1241
      2  CA       -20.6570  -60.5460    3.5830 C.3    50  HIS50       0.1621
      3  C        -19.3170  -61.1730    3.3600 C.2    50  HIS50       0.2264
      4  O        -18.2550  -60.5450    3.4950 O.2    50  HIS50      -0.2867
      5  CB       -20.8310  -59.2390    2.8650 C.3    50  HIS50       0.0745
      6  CG       -21.2760  -59.5200    1.4520 C.ar   50  HIS50       0.0817
      7  ND1      -20.7680  -60.6010    0.7340 N.ar   50  HIS50      -0.2268
      8  CD2      -22.2780  -58.9260    0.6380 C.ar   50  HIS50       0.1154
      9  CE1      -21.4550  -60.6880   -0.4500 C.ar   50  HIS50       0.1986
     10  NE2      -22.3150  -59.6500   -0.5080 N.ar   50  HIS50      -0.2212
     11  N        -18.0050  -62.0620    0.6770 N.3    52  LYS52      -0.1231
     12  CA       -17.3250  -61.8590   -0.6250 C.3    52  LYS52       0.1693
     13  C        -15.9480  -61.1640   -0.3980 C.2    52  LYS52       0.2592
     14  O        -15.1200  -61.2480   -1.3460 O.2    52  LYS52      -0.2718
     15  CB       -18.1690  -60.9950   -1.5790 C.3    52  LYS52       0.0285
     16  CG       -18.2040  -59.5390   -1.1590 C.3    52  LYS52       0.0035
     17  CD       -19.0890  -58.7070   -2.1860 C.3    52  LYS52       0.0206
     18  CE       -19.2520  -57.2890   -1.6320 C.3    52  LYS52       0.1093
     19  NZ       -17.9830  -56.5550   -1.5110 N.3    52  LYS52      -0.1314
     20  N        -15.6820  -60.5570    0.7600 N.am   53  THR53      -0.1953
     21  CA       -14.3520  -59.9200    0.9440 C.3    53  THR53       0.1897
     22  C        -13.2620  -60.9980    1.0590 C.2    53  THR53       0.2313
     23  O        -12.1430  -60.7990    0.5340 O.2    53  THR53      -0.2863
     24  CB       -14.3980  -59.1740    2.2830 C.3    53  THR53       0.1794
     25  OG1      -15.2890  -58.0700    2.0270 O.3    53  THR53      -0.2208
     26  CG2      -13.0390  -58.5790    2.6490 C.3    53  THR53       0.0378
     27  N        -27.0080  -62.0880   -2.3540 N.3    93  ALA93      -0.1245
     28  CA       -27.4970  -60.6830   -2.4360 C.3    93  ALA93       0.1562
     29  C        -27.0520  -60.0170   -3.7690 C.2    93  ALA93       0.2260
     30  O        -26.4580  -58.9120   -3.7990 O.2    93  ALA93      -0.2867
     31  CB       -26.9970  -59.8320   -1.2340 C.3    93  ALA93       0.0290
     32  N        -35.0420  -56.0110   -3.0770 N.3   143  GLU143     -0.1245
     33  CA       -33.9150  -55.0470   -2.8920 C.3   143  GLU143      0.1567
     34  C        -34.4310  -53.5910   -3.0750 C.2   143  GLU143      0.2260
     35  O        -35.1620  -53.2760   -4.0270 O.2   143  GLU143     -0.2867
     36  CB       -32.8400  -55.3330   -3.9460 C.3   143  GLU143      0.0388
     37  CG       -31.5570  -54.4940   -3.6380 C.3   143  GLU143      0.1160
     38  CD       -30.3610  -54.9570   -4.4180 C.2   143  GLU143      0.3649
     39  OE1      -29.2530  -54.6580   -3.8440 O.co2 143  GLU143     -0.2457
     40  OE2      -30.4910  -55.5810   -5.4920 O.co2 143  GLU143     -0.2457
     41  N        -26.9690  -47.7670   -6.8490 N.3   150  ARG150     -0.1301
     42  CA       -26.8400  -48.7990   -7.9170 C.3   150  ARG150      0.1248
     43  C        -28.3220  -48.6140   -8.4360 C.3   150  ARG150      0.2009
     44  O        -28.7740  -47.5400   -9.0780 O.3   150  ARG150     -0.2188
     45  CB       -26.3220  -50.1810   -7.3500 C.3   150  ARG150      0.0254
     46  CG       -25.8270  -51.4870   -8.3020 C.3   150  ARG150      0.0485
     47  CD       -24.6860  -52.2200   -7.5200 C.3   150  ARG150      0.2205
     48  NE       -25.1260  -53.0000   -6.3430 N.pl3 150  ARG150     -0.0865
     49  CZ       -24.3340  -53.4190   -5.2820 C.cat 150  ARG150      0.5346
     50  NH1      -22.9900  -53.0540   -5.2500 N.pl3 150  ARG150      0.1354
     51  NH2      -24.8480  -54.1930   -4.1450 N.pl3 150  ARG150      0.1354
     52  N        -34.1280  -55.6530    1.6640 N.3   179  LEU179     -0.1245
     53  CA       -32.7170  -55.3480    1.9910 C.3   179  LEU179      0.1561
     54  C        -32.2740  -54.1560    1.2290 C.2   179  LEU179      0.2260
     55  O        -32.8170  -53.8280    0.1230 O.2   179  LEU179     -0.2867
     56  CB       -31.7500  -56.5220    1.7020 C.3   179  LEU179      0.0270
     57  CG       -31.4070  -56.7660    0.2110 C.3   179  LEU179      0.0019
     58  CD1      -30.1220  -57.6210    0.1500 C.3   179  LEU179      0.0001
     59  CD2      -32.5470  -57.4650   -0.5390 C.3   179  LEU179      0.0001
     60  N        -28.4290  -51.6030    0.4460 N.3   181  HIS181     -0.1241
     61  CA       -27.0180  -51.4020    0.7080 C.3   181  HIS181      0.1621
     62  C        -26.6980  -49.9850    0.3620 C.2   181  HIS181      0.2264
     63  O        -26.8340  -49.5780   -0.8240 O.2   181  HIS181     -0.2867
     64  CB       -26.2130  -52.3150   -0.2300 C.3   181  HIS181      0.0745
     65  CG       -24.7580  -52.0080   -0.2140 C.ar  181  HIS181      0.0817
     66  ND1      -23.9300  -52.1760    0.8750 N.ar  181  HIS181     -0.2268
     67  CD2      -23.9430  -51.5760   -1.3030 C.ar  181  HIS181      0.1154
     68  CE1      -22.5890  -51.8590    0.4780 C.ar  181  HIS181      0.1986
     69  NE2      -22.6310  -51.4650   -0.8010 N.ar  181  HIS181     -0.2212
     70  N        -19.2880  -44.9030    0.5520 N.3   186  TYR186     -0.1241
     71  CA       -17.8540  -44.9370    0.1780 C.3   186  TYR186      0.1605
     72  C        -17.3790  -43.6230   -0.3150 C.2   186  TYR186      0.2264
     73  O        -16.1580  -43.4290   -0.4410 O.2   186  TYR186     -0.2867
     74  CB       -17.6320  -46.0540   -0.8670 C.3   186  TYR186      0.0534
     75  CG       -17.5170  -47.4130   -0.2630 C.ar  186  TYR186     -0.0201
     76  CD1      -18.5450  -47.9990    0.4970 C.ar  186  TYR186     -0.0009
     77  CD2      -16.3640  -48.1900   -0.5050 C.ar  186  TYR186     -0.0009
     78  CE1      -18.4290  -49.3310    0.9870 C.ar  186  TYR186      0.0417
     79  CE2      -16.2410  -49.5280   -0.0200 C.ar  186  TYR186      0.0417
     80  CZ       -17.3150  -50.0440    0.7600 C.ar  186  TYR186      0.1957
     81  OH       -17.2030  -51.3420    1.2990 O.3   186  TYR186     -0.2866
     82  N        -27.0360  -52.3940    5.1970 N.3   225  GLY225     -0.1210
     83  CA       -25.5960  -52.2880    5.6850 C.3   225  GLY225      0.1956
     84  C        -24.6170  -52.0650    4.5540 C.2   225  GLY225      0.2613
     85  O        -24.7810  -52.5600    3.4720 O.2   225  GLY225     -0.2717
     86  N        -23.5680  -51.3640    4.9600 N.am  226  SER226     -0.1938
     87  CA       -22.2310  -51.2840    4.2750 C.3   226  SER226      0.2055
     88  C        -21.3420  -51.2050    5.5440 C.2   226  SER226      0.2643
     89  O        -21.8290  -50.8540    6.6420 O.2   226  SER226     -0.2714
     90  CB       -22.1380  -49.9780    3.4600 C.3   226  SER226      0.2130
     91  OG       -22.2300  -48.8250    4.2240 O.3   226  SER226     -0.2179
     92  N        -20.0310  -51.4410    5.3900 N.am  227  THR227     -0.1950
     93  CA       -19.1850  -51.3060    6.6090 C.3   227  THR227      0.1897
     94  C        -19.2910  -49.9210    7.2020 C.2   227  THR227      0.2313
     95  O        -19.4160  -49.7670    8.4390 O.2   227  THR227     -0.2863
     96  CB       -17.7650  -51.7900    6.2470 C.3   227  THR227      0.1794
     97  OG1      -17.7710  -53.2250    6.3060 O.3   227  THR227     -0.2208
     98  CG2      -16.7330  -51.2420    7.2970 C.3   227  THR227      0.0378
     99  N        -25.6050  -56.2330    7.2610 N.3   243  ARG243     -0.1231
    100  CA       -24.6390  -56.9560    6.4680 C.3   243  ARG243      0.1694
    101  C        -23.4250  -56.0220    6.3410 C.2   243  ARG243      0.2592
    102  O        -23.5530  -54.8000    6.0740 O.2   243  ARG243     -0.2718
    103  CB       -25.2090  -57.1930    5.0290 C.3   243  ARG243      0.0321
    104  CG       -26.5630  -57.9630    5.1260 C.3   243  ARG243      0.0489
    105  CD       -27.0870  -58.2540    3.6510 C.3   243  ARG243      0.2205
    106  NE       -26.7970  -57.1040    2.7500 N.pl3 243  ARG243     -0.0865
    107  CZ       -27.4510  -55.9250    2.7820 C.cat 243  ARG243      0.5346
    108  NH1      -28.5960  -55.8090    3.5320 N.pl3 243  ARG243      0.1354
    109  NH2      -27.0320  -54.8830    2.0510 N.pl3 243  ARG243      0.1354
    110  N        -22.2870  -56.5900    6.5950 N.am  244  ALA244     -0.1966
    111  CA       -21.0330  -55.8100    6.4090 C.3   244  ALA244      0.1728
    112  C        -19.9730  -56.8780    6.1040 C.2   244  ALA244      0.2617
    113  O        -20.0660  -58.0110    6.6140 O.2   244  ALA244     -0.2715
    114  CB       -20.6170  -55.1010    7.7180 C.3   244  ALA244      0.0334
    115  N        -19.0030  -56.5280    5.3030 N.am  245  GLY245     -0.1940
    116  CA       -17.9880  -57.4940    4.8690 C.3   245  GLY245      0.2014
    117  C        -16.5690  -56.9900    4.9330 C.2   245  GLY245      0.2635
    118  O        -15.7090  -57.7280    5.4270 O.2   245  GLY245     -0.2714
    119  N        -16.2690  -55.7880    4.3790 N.am  246  VAL246     -0.2030
    120  CA       -14.8180  -55.4000    4.2550 C.3   246  VAL246      0.1282
    121  C        -14.2030  -55.1180    5.6510 C.3   246  VAL246      0.2035
    122  O        -13.0360  -55.3220    5.7210 O.3   246  VAL246     -0.2185
    123  CB       -14.7050  -54.1920    3.3000 C.3   246  VAL246      0.0226
    124  CG1      -15.1680  -52.8780    3.9890 C.3   246  VAL246      0.0018
    125  CG2      -13.2060  -54.0790    2.8820 C.3   246  VAL246      0.0018
@<TRIPOS>BOND
     1    44    43    1
     2    43    42    1
     3    46    47    1
     4    46    45    1
     5    42    45    1
     6    42    41    1
     7    47    48    1
     8    48    49    2
     9    40    38   ar
    10    49    50    1
    11    49    51    1
    12    38    39   ar
    13    38    37    1
    14    35    34    2
    15    36    37    1
    16    36    33    1
    17    30    29    2
    18    29    28    1
    19    32    33    1
    20    34    33    1
    21    28    27    1
    22    28    31    1
    23    17    18    1
    24    17    16    1
    25    18    19    1
    26    15    16    1
    27    15    12    1
    28    14    13    2
    29    67    69   ar
    30    67    65   ar
    31    74    75    1
    32    74    71    1
    33    63    62    2
    34    69    68   ar
    35    12    13    1
    36    12    11    1
    37    59    57    1
    38    10     9   ar
    39    10     8   ar
    40    77    75   ar
    41    77    79   ar
    42     9     7   ar
    43    73    72    2
    44    13    20   am
    45    72    71    1
    46    75    76   ar
    47    64    65    1
    48    64    61    1
    49    65    66   ar
    50    79    80   ar
    51    55    54    2
    52    58    57    1
    53    71    70    1
    54    57    56    1
    55    62    61    1
    56    60    61    1
    57    68    66   ar
    58    76    78   ar
    59    23    22    2
    60     8     6   ar
    61     7     6   ar
    62    80    78   ar
    63    80    81    1
    64    20    21    1
    65    21    22    1
    66    21    24    1
    67    54    53    1
    68     6     5    1
    69    52    53    1
    70    56    53    1
    71    25    24    1
    72   109   107    1
    73    24    26    1
    74   106   107    2
    75   106   105    1
    76   107   108    1
    77     5     2    1
    78   125   123    1
    79   123   124    1
    80   123   120    1
    81     3     4    2
    82     3     2    1
    83    90    91    1
    84    90    87    1
    85    85    84    2
    86     2     1    1
    87   105   104    1
    88   120   119    1
    89   120   121    1
    90    87    86    1
    91    87    88    1
    92   119   117   am
    93    84    86   am
    94    84    83    1
    95   116   117    1
    96   116   115    1
    97   117   118    2
    98   103   104    1
    99   103   100    1
   100    82    83    1
   101   115   112   am
   102    92    88   am
   103    92    93    1
   104    88    89    2
   105   121   122    1
   106   102   101    2
   107   112   111    1
   108   112   113    2
   109    96    97    1
   110    96    93    1
   111    96    98    1
   112   101   100    1
   113   101   110   am
   114   111   110    1
   115   111   114    1
   116   100    99    1
   117    93    94    1
   118    94    95    2
