@<TRIPOS>MOLECULE
tmp/3wqhB05.pdb
 221 217 0 0 0
SMALL
GASTEIGER

@<TRIPOS>ATOM
      1  N         55.8960   69.0160   71.9850 N.3    87  ARG87      -0.1231
      2  CA        56.8730   68.6000   72.9910 C.3    87  ARG87       0.1694
      3  C         56.3930   68.7070   74.4420 C.2    87  ARG87       0.2592
      4  O         56.7990   67.9050   75.2910 O.2    87  ARG87      -0.2718
      5  CB        58.1430   69.4350   72.8190 C.3    87  ARG87       0.0321
      6  CG        59.2960   69.1050   73.7800 C.3    87  ARG87       0.0489
      7  CD        60.4820   70.0410   73.6540 C.3    87  ARG87       0.2205
      8  NE        61.1730   69.9220   72.3600 N.pl3  87  ARG87      -0.0865
      9  CZ        62.0800   68.9780   72.0790 C.cat  87  ARG87       0.5346
     10  NH1       62.3830   68.0390   72.9920 N.pl3  87  ARG87       0.1354
     11  NH2       62.6860   68.9740   70.8870 N.pl3  87  ARG87       0.1354
     12  N         55.5650   69.7180   74.7010 N.am   88  HIS88      -0.1976
     13  CA        55.1080   70.0650   76.0400 C.3    88  HIS88       0.1656
     14  C         53.5960   70.1350   76.1240 C.2    88  HIS88       0.2291
     15  O         53.0100   69.9220   77.1860 O.2    88  HIS88      -0.2864
     16  CB        55.6940   71.4000   76.4690 C.3    88  HIS88       0.0771
     17  CG        57.1950   71.4560   76.5520 C.ar   88  HIS88       0.0820
     18  ND1       57.9120   70.9690   77.6420 N.ar   88  HIS88      -0.2267
     19  CD2       58.1610   71.9450   75.6740 C.ar   88  HIS88       0.1154
     20  CE1       59.1910   71.1740   77.3960 C.ar   88  HIS88       0.1986
     21  NE2       59.4320   71.7530   76.2440 N.ar   88  HIS88      -0.2212
     22  N         58.2220   75.6530   71.7780 N.3   167  GLU167     -0.1231
     23  CA        59.4840   74.9700   71.5590 C.3   167  GLU167      0.1699
     24  C         60.6810   75.8220   71.9620 C.2   167  GLU167      0.2592
     25  O         61.5420   75.3600   72.7140 O.2   167  GLU167     -0.2718
     26  CB        59.5890   74.5460   70.0850 C.3   167  GLU167      0.0402
     27  CG        60.8630   73.7980   69.6470 C.3   167  GLU167      0.1161
     28  CD        60.9270   72.4180   70.2760 C.2   167  GLU167      0.3649
     29  OE1       59.9280   71.9710   70.8740 O.co2 167  GLU167     -0.2457
     30  OE2       61.9850   71.7630   70.1800 O.co2 167  GLU167     -0.2457
     31  N         60.7070   77.0670   71.4870 N.am  168  GLU168     -0.1979
     32  CA        61.9290   77.8560   71.4960 C.3   168  GLU168      0.1602
     33  C         61.9900   79.0140   72.4640 C.2   168  GLU168      0.2287
     34  O         63.0350   79.6750   72.5240 O.2   168  GLU168     -0.2864
     35  CB        62.1930   78.4310   70.1040 C.3   168  GLU168      0.0415
     36  CG        62.1430   77.4450   68.9480 C.3   168  GLU168      0.1163
     37  CD        63.2570   76.4210   69.0620 C.2   168  GLU168      0.3649
     38  OE1       64.1110   76.5320   69.9760 O.co2 168  GLU168     -0.2457
     39  OE2       63.2990   75.4940   68.2310 O.co2 168  GLU168     -0.2457
     40  N         59.6830   76.6470   76.6010 N.3   171  SER171     -0.1217
     41  CA        59.7930   75.2190   76.9140 C.3   171  SER171      0.1889
     42  C         58.5340   74.6580   77.5810 C.2   171  SER171      0.2288
     43  O         58.5980   73.9140   78.5580 O.2   171  SER171     -0.2866
     44  CB        61.0730   74.8640   77.6730 C.3   171  SER171      0.2089
     45  OG        62.2210   75.0780   76.8810 O.3   171  SER171     -0.2183
     46  N         70.1890   79.9890   75.6760 N.3   319  PHE319     -0.1227
     47  CA        69.1310   79.8630   74.6680 C.3   319  PHE319      0.1736
     48  C         68.2210   81.0720   74.7160 C.2   319  PHE319      0.2595
     49  O         67.5560   81.3850   73.7270 O.2   319  PHE319     -0.2718
     50  CB        68.3470   78.5630   74.8090 C.3   319  PHE319      0.0547
     51  CG        69.1840   77.3630   74.4400 C.ar  319  PHE319     -0.0202
     52  CD1       69.1280   76.8420   73.1270 C.ar  319  PHE319     -0.0042
     53  CD2       70.0390   76.7750   75.3980 C.ar  319  PHE319     -0.0042
     54  CE1       69.9280   75.7400   72.7730 C.ar  319  PHE319     -0.0003
     55  CE2       70.8410   75.6760   75.0440 C.ar  319  PHE319     -0.0003
     56  CZ        70.7880   75.1570   73.7310 C.ar  319  PHE319     -0.0000
     57  N         68.2190   81.7600   75.8630 N.am  320  ARG320     -0.1980
     58  CA        67.4220   82.9620   76.0630 C.3   320  ARG320      0.1597
     59  C         67.9880   83.7370   77.2430 C.2   320  ARG320      0.2287
     60  O         68.6360   83.1240   78.1040 O.2   320  ARG320     -0.2864
     61  CB        65.9420   82.6320   76.2130 C.3   320  ARG320      0.0334
     62  CG        65.6280   81.7630   77.4160 C.3   320  ARG320      0.0492
     63  CD        64.1870   81.3140   77.4350 C.3   320  ARG320      0.2205
     64  NE        64.0770   79.8540   77.5920 N.pl3 320  ARG320     -0.0865
     65  CZ        64.3220   78.9750   76.6000 C.cat 320  ARG320      0.5346
     66  NH1       64.1630   77.6630   76.8220 N.pl3 320  ARG320      0.1354
     67  NH2       64.7210   79.4070   75.3890 N.pl3 320  ARG320      0.1354
     68  N         78.9630   68.7090   87.4860 N.3   391  ARG391     -0.1245
     69  CA        77.9580   69.5710   88.1190 C.3   391  ARG391      0.1563
     70  C         77.9770   69.3710   89.6200 C.2   391  ARG391      0.2260
     71  O         78.0130   68.2330   90.0750 O.2   391  ARG391     -0.2867
     72  CB        76.5340   69.3400   87.5840 C.3   391  ARG391      0.0307
     73  CG        76.3270   69.5550   86.1080 C.3   391  ARG391      0.0489
     74  CD        76.3210   71.0110   85.7260 C.3   391  ARG391      0.2205
     75  NE        77.1760   71.2140   84.5520 N.pl3 391  ARG391     -0.0865
     76  CZ        76.7120   71.3980   83.3110 C.cat 391  ARG391      0.5346
     77  NH1       75.3940   71.4050   83.0700 N.pl3 391  ARG391      0.1354
     78  NH2       77.5710   71.5730   82.3060 N.pl3 391  ARG391      0.1354
     79  N         76.0870   65.7670   68.3740 N.3   509  TYR509     -0.1241
     80  CA        75.0090   66.7330   68.4170 C.3   509  TYR509      0.1605
     81  C         75.5840   68.0120   67.8730 C.2   509  TYR509      0.2264
     82  O         75.2560   68.4120   66.7590 O.2   509  TYR509     -0.2867
     83  CB        74.2810   66.8550   69.7580 C.3   509  TYR509      0.0534
     84  CG        73.0900   67.8050   69.6730 C.ar  509  TYR509     -0.0201
     85  CD1       71.9230   67.4130   68.9830 C.ar  509  TYR509     -0.0009
     86  CD2       73.1600   69.0840   70.2580 C.ar  509  TYR509     -0.0009
     87  CE1       70.8350   68.3010   68.8680 C.ar  509  TYR509      0.0417
     88  CE2       72.0740   69.9740   70.1480 C.ar  509  TYR509      0.0417
     89  CZ        70.9080   69.5850   69.4460 C.ar  509  TYR509      0.1957
     90  OH        69.8530   70.4550   69.3220 O.3   509  TYR509     -0.2866
     91  N         75.6930   75.6060   72.1550 N.3   513  CYS513     -0.1235
     92  CA        75.5140   75.4610   73.5880 C.3   513  CYS513      0.1677
     93  C         75.3980   74.0170   74.0670 C.2   513  CYS513      0.2270
     94  O         74.9000   73.7550   75.1570 O.2   513  CYS513     -0.2867
     95  CB        74.5210   76.4460   74.1910 C.3   513  CYS513      0.0956
     96  SG        74.7660   76.8010   75.9150 S.3   513  CYS513     -0.0801
     97  N         79.1020   76.1370   78.2040 N.3   547  TYR547     -0.1241
     98  CA        79.5450   75.8190   79.5580 C.3   547  TYR547      0.1605
     99  C         80.9890   76.2160   79.8430 C.2   547  TYR547      0.2264
    100  O         81.4310   76.1670   80.9840 O.2   547  TYR547     -0.2867
    101  CB        79.0730   74.4530   80.0770 C.3   547  TYR547      0.0534
    102  CG        77.6040   74.2180   79.7460 C.ar  547  TYR547     -0.0201
    103  CD1       76.6040   74.9640   80.4030 C.ar  547  TYR547     -0.0009
    104  CD2       77.2450   73.2880   78.7450 C.ar  547  TYR547     -0.0009
    105  CE1       75.2520   74.8010   80.0410 C.ar  547  TYR547      0.0417
    106  CE2       75.8960   73.1280   78.3780 C.ar  547  TYR547      0.0417
    107  CZ        74.8980   73.8930   79.0150 C.ar  547  TYR547      0.1957
    108  OH        73.5900   73.7640   78.6370 O.3   547  TYR547     -0.2866
    109  N         71.5330   62.8900   65.5500 N.3   591  TRP591     -0.1227
    110  CA        70.1030   63.1070   65.4320 C.3   591  TRP591      0.1737
    111  C         69.8460   64.5940   65.4600 C.2   591  TRP591      0.2596
    112  O         70.2160   65.2830   66.4090 O.2   591  TRP591     -0.2718
    113  CB        69.4040   62.3570   66.5450 C.3   591  TRP591      0.0564
    114  CG        67.9560   62.0090   66.4100 C.ar  591  TRP591      0.0003
    115  CD1       66.9730   62.8580   66.0460 C.ar  591  TRP591      0.0946
    116  CD2       67.3050   60.7250   66.6520 C.ar  591  TRP591      0.0152
    117  NE1       65.7640   62.2010   66.0620 N.ar  591  TRP591     -0.2442
    118  CE2       65.9000   60.8860   66.4470 C.ar  591  TRP591      0.0810
    119  CE3       67.7520   59.4310   67.0360 C.ar  591  TRP591      0.0012
    120  CZ2       64.9870   59.8470   66.6370 C.ar  591  TRP591      0.0191
    121  CZ3       66.8330   58.3710   67.2230 C.ar  591  TRP591      0.0001
    122  CH2       65.4510   58.5830   67.0320 C.ar  591  TRP591      0.0015
    123  N         69.2350   65.0910   64.3970 N.am  592  SER592     -0.1938
    124  CA        68.6500   66.4160   64.3960 C.3   592  SER592      0.2055
    125  C         69.6330   67.5130   64.0480 C.2   592  SER592      0.2643
    126  O         69.9700   67.6580   62.8770 O.2   592  SER592     -0.2714
    127  CB        67.6090   66.6670   65.4720 C.3   592  SER592      0.2130
    128  OG        66.9560   67.8650   65.1760 O.3   592  SER592     -0.2179
    129  N         70.1660   68.2370   65.0370 N.am  593  TYR593     -0.1973
    130  CA        71.3950   69.0000   64.7630 C.3   593  TYR593      0.1639
    131  C         72.5720   68.0520   64.5380 C.2   593  TYR593      0.2290
    132  O         73.4230   68.2800   63.6770 O.2   593  TYR593     -0.2864
    133  CB        71.7610   69.9770   65.8870 C.3   593  TYR593      0.0560
    134  CG        72.5350   71.2160   65.4410 C.ar  593  TYR593     -0.0198
    135  CD1       73.8580   71.0990   64.9560 C.ar  593  TYR593     -0.0009
    136  CD2       71.9290   72.4840   65.5120 C.ar  593  TYR593     -0.0009
    137  CE1       74.5550   72.2430   64.5260 C.ar  593  TYR593      0.0417
    138  CE2       72.6330   73.6280   65.0880 C.ar  593  TYR593      0.0417
    139  CZ        73.9400   73.5050   64.5900 C.ar  593  TYR593      0.1957
    140  OH        74.6120   74.6080   64.1780 O.3   593  TYR593     -0.2866
    141  N         68.4540   68.5550   60.2190 N.3   618  VAL618     -0.1245
    142  CA        68.3350   69.8150   59.4710 C.3   618  VAL618      0.1561
    143  C         69.1940   69.7460   58.2060 C.2   618  VAL618      0.2260
    144  O         70.2320   69.0880   58.2010 O.2   618  VAL618     -0.2867
    145  CB        68.6970   71.0210   60.3590 C.3   618  VAL618      0.0252
    146  CG1       68.9060   72.3260   59.5980 C.3   618  VAL618      0.0019
    147  CG2       67.6380   71.2580   61.4220 C.3   618  VAL618      0.0019
    148  N         68.8990   76.0120   56.6980 N.3   621  TRP621     -0.1241
    149  CA        68.4240   76.8100   57.8160 C.3   621  TRP621      0.1605
    150  C         67.1470   77.6090   57.5590 C.2   621  TRP621      0.2264
    151  O         66.4100   77.9020   58.5100 O.2   621  TRP621     -0.2867
    152  CB        69.5820   77.6390   58.3740 C.3   621  TRP621      0.0550
    153  CG        70.5370   76.7340   59.1020 C.ar  621  TRP621      0.0003
    154  CD1       71.7860   76.4230   58.6990 C.ar  621  TRP621      0.0946
    155  CD2       70.3160   75.9810   60.3350 C.ar  621  TRP621      0.0152
    156  NE1       72.3440   75.5230   59.5790 N.ar  621  TRP621     -0.2442
    157  CE2       71.4780   75.1990   60.6020 C.ar  621  TRP621      0.0810
    158  CE3       69.2400   75.8590   61.2540 C.ar  621  TRP621      0.0012
    159  CZ2       71.5680   74.3360   61.7000 C.ar  621  TRP621      0.0191
    160  CZ3       69.3250   74.9900   62.3630 C.ar  621  TRP621      0.0001
    161  CH2       70.4870   74.2280   62.5820 C.ar  621  TRP621      0.0015
    162  N         64.1660   75.4500   58.9110 N.3   624  TYR624     -0.1241
    163  CA        63.9590   75.3470   60.3570 C.3   624  TYR624      0.1605
    164  C         63.3940   76.6470   60.9360 C.2   624  TYR624      0.2264
    165  O         63.3570   77.6830   60.2680 O.2   624  TYR624     -0.2867
    166  CB        65.2640   74.9410   61.0530 C.3   624  TYR624      0.0534
    167  CG        64.9400   74.4190   62.4280 C.ar  624  TYR624     -0.0201
    168  CD1       64.1730   73.2450   62.5640 C.ar  624  TYR624     -0.0009
    169  CD2       65.3480   75.1300   63.5700 C.ar  624  TYR624     -0.0009
    170  CE1       63.7720   72.8130   63.8310 C.ar  624  TYR624      0.0417
    171  CE2       64.9450   74.6930   64.8400 C.ar  624  TYR624      0.0417
    172  CZ        64.1360   73.5470   64.9690 C.ar  624  TYR624      0.1957
    173  OH        63.6890   73.1650   66.1950 O.3   624  TYR624     -0.2866
    174  N         64.8430   79.8460   66.8100 N.3   628  TYR628     -0.1241
    175  CA        66.0860   79.1240   66.9340 C.3   628  TYR628      0.1605
    176  C         67.1130   79.5740   65.9060 C.2   628  TYR628      0.2264
    177  O         68.2580   79.8470   66.2610 O.2   628  TYR628     -0.2867
    178  CB        65.8260   77.6470   66.7420 C.3   628  TYR628      0.0534
    179  CG        67.0430   76.7930   66.9920 C.ar  628  TYR628     -0.0201
    180  CD1       67.9550   76.5320   65.9400 C.ar  628  TYR628     -0.0009
    181  CD2       67.2850   76.2730   68.2800 C.ar  628  TYR628     -0.0009
    182  CE1       69.1100   75.7680   66.1830 C.ar  628  TYR628      0.0417
    183  CE2       68.4400   75.5070   68.5200 C.ar  628  TYR628      0.0417
    184  CZ        69.3540   75.2590   67.4730 C.ar  628  TYR628      0.1957
    185  OH        70.4680   74.5210   67.7070 O.3   628  TYR628     -0.2866
    186  N         68.4540   83.2850   66.0510 N.3   631  ARG631     -0.1245
    187  CA        69.2850   83.4620   67.2440 C.3   631  ARG631      0.1563
    188  C         70.7770   83.3860   66.9450 C.2   631  ARG631      0.2260
    189  O         71.5490   84.2300   67.4090 O.2   631  ARG631     -0.2867
    190  CB        68.8480   82.4850   68.3500 C.3   631  ARG631      0.0307
    191  CG        69.5960   82.5120   69.6840 C.3   631  ARG631      0.0489
    192  CD        68.7700   82.0200   70.8770 C.3   631  ARG631      0.2205
    193  NE        68.1610   80.6640   70.7450 N.pl3 631  ARG631     -0.0865
    194  CZ        66.8440   80.3900   70.9810 C.cat 631  ARG631      0.5346
    195  NH1       65.9840   81.3710   71.3100 N.pl3 631  ARG631      0.1354
    196  NH2       66.3960   79.1260   70.8860 N.pl3 631  ARG631      0.1354
    197  N         58.7940   69.3060   63.8940 N.3   672  ASN672     -0.1225
    198  CA        59.9250   70.1040   64.3250 C.3   672  ASN672      0.1785
    199  C         60.8580   70.3430   63.1340 C.2   672  ASN672      0.2597
    200  O         60.8120   71.3960   62.4970 O.2   672  ASN672     -0.2718
    201  CB        60.5750   69.3240   65.4780 C.3   672  ASN672      0.1169
    202  CG        61.4830   70.1280   66.3740 C.2   672  ASN672      0.2627
    203  OD1       62.4530   70.7310   65.9280 O.2   672  ASN672     -0.2716
    204  ND2       61.1710   70.1480   67.6620 N.am  672  ASN672     -0.0877
    205  N         61.6930   69.3670   62.8110 N.am  673  VAL673     -0.1980
    206  CA        62.5620   69.4830   61.6570 C.3   673  VAL673      0.1595
    207  C         61.8330   68.7240   60.5700 C.2   673  VAL673      0.2287
    208  O         61.7520   67.5040   60.6450 O.2   673  VAL673     -0.2864
    209  CB        63.9160   68.8180   61.9300 C.3   673  VAL673      0.0276
    210  CG1       64.8290   68.8970   60.7110 C.3   673  VAL673      0.0022
    211  CG2       64.6180   69.4240   63.1240 C.3   673  VAL673      0.0022
    212  N         59.4930   63.9190   65.5520 N.3   702  HIS702     -0.1241
    213  CA        60.8820   64.1950   65.8680 C.3   702  HIS702      0.1621
    214  C         61.5910   63.2090   66.7980 C.2   702  HIS702      0.2264
    215  O         62.8130   63.0380   66.7030 O.2   702  HIS702     -0.2867
    216  CB        60.9720   65.6150   66.3950 C.3   702  HIS702      0.0745
    217  CG        62.3260   66.2120   66.2060 C.ar  702  HIS702      0.0817
    218  ND1       62.9570   66.2510   64.9790 N.ar  702  HIS702     -0.2268
    219  CD2       63.2170   66.8130   67.0920 C.ar  702  HIS702      0.1154
    220  CE1       64.1210   66.8230   65.1490 C.ar  702  HIS702      0.1986
    221  NE2       64.3630   67.1960   66.3850 N.ar  702  HIS702     -0.2212
@<TRIPOS>BOND
     1   148   149    1
     2   150   149    1
     3   150   151    2
     4   149   152    1
     5   144   143    2
     6   143   142    1
     7   152   153    1
     8   154   153   ar
     9   154   156   ar
    10   162   163    1
    11   153   155   ar
    12   142   141    1
    13   142   145    1
    14   156   157   ar
    15   146   145    1
    16   165   164    2
    17   155   157   ar
    18   155   158   ar
    19   163   164    1
    20   163   166    1
    21   145   147    1
    22   207   208    2
    23   207   206    1
    24   157   159   ar
    25   210   209    1
    26   166   167    1
    27   158   160   ar
    28   206   209    1
    29   206   205    1
    30   159   161   ar
    31   209   211    1
    32   160   161   ar
    33   167   168   ar
    34   167   169   ar
    35   200   199    2
    36   168   170   ar
    37   205   199   am
    38   126   125    2
    39   199   198    1
    40   169   171   ar
    41   132   131    2
    42   170   172   ar
    43   197   198    1
    44   125   124    1
    45   125   129   am
    46   140   139    1
    47   198   201    1
    48   124   123    1
    49   124   127    1
    50   123   111   am
    51   137   139   ar
    52   137   135   ar
    53   131   130    1
    54   139   138   ar
    55   130   129    1
    56   130   133    1
    57   171   172   ar
    58   135   134   ar
    59   172   173    1
    60   218   220   ar
    61   218   217   ar
    62   138   136   ar
    63   220   221   ar
    64   128   127    1
    65   110   111    1
    66   110   109    1
    67   110   113    1
    68   134   136   ar
    69   134   133    1
    70   111   112    2
    71   201   202    1
    72   212   213    1
    73   213   216    1
    74   213   214    1
    75   176   177    2
    76   176   175    1
    77   203   202    2
    78   180   182   ar
    79   180   179   ar
    80   115   117   ar
    81   115   114   ar
    82   186   187    1
    83   117   118   ar
    84   182   184   ar
    85   217   216    1
    86   217   219   ar
    87   202   204   am
    88   221   219   ar
    89   114   113    1
    90   114   116   ar
    91   118   120   ar
    92   118   116   ar
    93   120   122   ar
    94   116   119   ar
    95   215   214    2
    96   178   175    1
    97   178   179    1
    98    82    81    2
    99   174   175    1
   100   188   187    1
   101   188   189    2
   102   179   181   ar
   103   122   121   ar
   104   119   121   ar
   105   187   190    1
   106   184   185    1
   107   184   183   ar
   108    81    80    1
   109    39    37   ar
   110   181   183   ar
   111   190   191    1
   112    79    80    1
   113    80    83    1
   114    87    85   ar
   115    87    89   ar
   116    36    37    1
   117    36    35    1
   118    85    84   ar
   119    37    38   ar
   120    90    89    1
   121    89    88   ar
   122    27    26    1
   123    27    28    1
   124    84    83    1
   125    84    86   ar
   126   191   192    1
   127    26    23    1
   128    35    32    1
   129    88    86   ar
   130    30    28   ar
   131    28    29   ar
   132   193   192    1
   133   193   194    2
   134   196   194    1
   135    11     9    1
   136   194   195    1
   137    31    32    1
   138    31    24   am
   139    32    33    1
   140    23    22    1
   141    23    24    1
   142    24    25    2
   143     1     2    1
   144     9     8    2
   145     9    10    1
   146    91    92    1
   147     8     7    1
   148    33    34    2
   149    54    52   ar
   150    54    56   ar
   151     5     2    1
   152     5     6    1
   153     2     3    1
   154    52    51   ar
   155    92    93    1
   156    92    95    1
   157     7     6    1
   158    49    48    2
   159    56    55   ar
   160    93    94    2
   161    95    96    1
   162    51    50    1
   163    51    53   ar
   164     3    12   am
   165     3     4    2
   166    47    48    1
   167    47    50    1
   168    47    46    1
   169    12    13    1
   170    48    57   am
   171    55    53   ar
   172    67    65    1
   173    19    21   ar
   174    19    17   ar
   175    57    58    1
   176    13    14    1
   177    13    16    1
   178    58    61    1
   179    58    59    1
   180    14    15    2
   181    61    62    1
   182    21    20   ar
   183    16    17    1
   184    17    18   ar
   185    65    66    1
   186    65    64    2
   187    40    41    1
   188    45    44    1
   189    41    42    1
   190    41    44    1
   191    59    60    2
   192    20    18   ar
   193    62    63    1
   194    63    64    1
   195    42    43    2
   196    97    98    1
   197   106   104   ar
   198   106   107   ar
   199   108   107    1
   200   104   102   ar
   201   107   105   ar
   202    98    99    1
   203    98   101    1
   204   102   101    1
   205   102   103   ar
   206    99   100    2
   207   105   103   ar
   208    78    76    1
   209    77    76    1
   210    76    75    2
   211    75    74    1
   212    74    73    1
   213    73    72    1
   214    68    69    1
   215    72    69    1
   216    69    70    1
   217    70    71    2
