@<TRIPOS>MOLECULE
tmp/3wqhB01.pdb
 90 90 0 0 0
SMALL
GASTEIGER

@<TRIPOS>ATOM
      1  N         39.0090   55.4570   85.1720 N.3    62  HIS62      -0.1241
      2  CA        40.0720   55.8740   84.2580 C.3    62  HIS62       0.1621
      3  C         41.4260   55.6900   84.8990 C.2    62  HIS62       0.2264
      4  O         41.5670   55.8060   86.1190 O.2    62  HIS62      -0.2867
      5  CB        39.9160   57.3100   83.7480 C.3    62  HIS62       0.0745
      6  CG        38.5260   57.7860   83.3970 C.ar   62  HIS62       0.0817
      7  ND1       37.6910   58.4280   84.3060 N.ar   62  HIS62      -0.2268
      8  CD2       37.7900   57.7260   82.2130 C.ar   62  HIS62       0.1154
      9  CE1       36.5680   58.7110   83.6800 C.ar   62  HIS62       0.1986
     10  NE2       36.5390   58.3270   82.4250 N.ar   62  HIS62      -0.2212
     11  N         43.4990   63.0410   83.2460 N.3    80  TYR80      -0.1227
     12  CA        43.3140   61.7820   82.5410 C.3    80  TYR80       0.1736
     13  C         42.8980   62.0580   81.1130 C.2    80  TYR80       0.2595
     14  O         42.5310   63.1790   80.7600 O.2    80  TYR80      -0.2718
     15  CB        42.3830   60.8270   83.2700 C.3    80  TYR80       0.0548
     16  CG        40.9600   61.3300   83.3580 C.ar   80  TYR80      -0.0200
     17  CD1       40.6320   62.3630   84.2590 C.ar   80  TYR80      -0.0009
     18  CD2       39.9600   60.7690   82.5400 C.ar   80  TYR80      -0.0009
     19  CE1       39.3070   62.8240   84.3510 C.ar   80  TYR80       0.0417
     20  CE2       38.6330   61.2280   82.6360 C.ar   80  TYR80       0.0417
     21  CZ        38.3060   62.2480   83.5500 C.ar   80  TYR80       0.1957
     22  OH        37.0210   62.6730   83.6670 O.3    80  TYR80      -0.2866
     23  N         42.9900   61.0220   80.2820 N.am   81  ASN81      -0.1974
     24  CA        42.7190   61.1740   78.8540 C.3    81  ASN81       0.1688
     25  C         43.7650   62.0210   78.1490 C.2    81  ASN81       0.2292
     26  O         43.4470   62.9130   77.3610 O.2    81  ASN81      -0.2864
     27  CB        41.2780   61.5370   78.4850 C.3    81  ASN81       0.1181
     28  CG        40.2910   60.4480   78.8100 C.2    81  ASN81       0.2629
     29  OD1       40.5520   59.2610   78.6130 O.2    81  ASN81      -0.2716
     30  ND2       39.1360   60.8350   79.3160 N.am   81  ASN81      -0.0877
     31  N         41.4840   65.7350   80.1240 N.3    93  SER93      -0.1202
     32  CA        40.2690   65.8160   80.9170 C.3    93  SER93       0.2020
     33  C         40.6680   65.9010   82.3870 C.2    93  SER93       0.2619
     34  O         41.6820   65.3350   82.8040 O.2    93  SER93      -0.2717
     35  CB        39.4480   64.5540   80.6950 C.3    93  SER93       0.2103
     36  OG        39.2240   64.3690   79.3110 O.3    93  SER93      -0.2182
     37  N         39.8670   66.6200   83.1710 N.am   94  TYR94      -0.1961
     38  CA        40.2480   66.9680   84.5330 C.3    94  TYR94       0.1771
     39  C         39.0560   66.8700   85.4640 C.2    94  TYR94       0.2619
     40  O         38.1270   67.6710   85.3580 O.2    94  TYR94      -0.2715
     41  CB        40.8730   68.3600   84.5840 C.3    94  TYR94       0.0574
     42  CG        42.2630   68.5490   83.9820 C.ar   94  TYR94      -0.0198
     43  CD1       43.4080   68.4360   84.8010 C.ar   94  TYR94      -0.0009
     44  CD2       42.4080   68.8560   82.6110 C.ar   94  TYR94      -0.0009
     45  CE1       44.6890   68.6440   84.2570 C.ar   94  TYR94       0.0417
     46  CE2       43.6910   69.0590   82.0660 C.ar   94  TYR94       0.0417
     47  CZ        44.8330   68.9580   82.8920 C.ar   94  TYR94       0.1957
     48  OH        46.0790   69.1670   82.3680 O.3    94  TYR94      -0.2866
     49  N         39.1050   65.9370   86.4120 N.am   95  ASP95      -0.1971
     50  CA        38.1650   65.9750   87.5420 C.3    95  ASP95       0.1709
     51  C         38.8800   66.4930   88.7710 C.2    95  ASP95       0.2293
     52  O         40.0310   66.1500   89.0230 O.2    95  ASP95      -0.2864
     53  CB        37.5750   64.5970   87.8660 C.3    95  ASP95       0.1436
     54  CG        36.6230   64.0920   86.7900 C.2    95  ASP95       0.3671
     55  OD1       36.0210   64.9220   86.0730 O.co2  95  ASP95      -0.2456
     56  OD2       36.4620   62.8620   86.6580 O.co2  95  ASP95      -0.2456
     57  N         32.2240   71.4100   86.3340 N.3   109  ARG109     -0.1231
     58  CA        33.4730   70.7300   86.0560 C.3   109  ARG109      0.1694
     59  C         34.2880   71.4000   84.9590 C.2   109  ARG109      0.2592
     60  O         33.7510   72.0400   84.0460 O.2   109  ARG109     -0.2718
     61  CB        33.2250   69.2750   85.6840 C.3   109  ARG109      0.0321
     62  CG        32.6030   68.4420   86.7960 C.3   109  ARG109      0.0489
     63  CD        32.6940   66.9450   86.5310 C.3   109  ARG109      0.2205
     64  NE        31.9630   66.5800   85.3020 N.pl3 109  ARG109     -0.0865
     65  CZ        32.2450   65.4960   84.5490 C.cat 109  ARG109      0.5346
     66  NH1       33.2390   64.6600   84.8950 N.pl3 109  ARG109      0.1354
     67  NH2       31.5250   65.2500   83.4460 N.pl3 109  ARG109      0.1354
     68  N         35.6080   71.2050   85.0700 N.am  110  ILE110     -0.1966
     69  CA        36.5300   71.5600   83.9990 C.3   110  ILE110      0.1712
     70  C         36.1210   70.7540   82.7630 C.2   110  ILE110      0.2458
     71  O         35.8680   69.5490   82.8840 O.2   110  ILE110     -0.2730
     72  CB        38.0030   71.3130   84.4190 C.3   110  ILE110      0.0289
     73  CG1       38.3980   72.1100   85.6630 C.3   110  ILE110      0.0022
     74  CG2       39.0130   71.5980   83.3140 C.3   110  ILE110      0.0023
     75  CD1       39.7100   71.6800   86.3070 C.3   110  ILE110      0.0001
     76  N         35.9920   71.3870   81.5900 N.am  111  PRO111     -0.2716
     77  CA        35.5700   70.6950   80.3860 C.3   111  PRO111      0.1536
     78  C         36.5630   69.6610   79.8860 C.2   111  PRO111      0.2598
     79  O         37.6930   69.5380   80.3590 O.2   111  PRO111     -0.2715
     80  CB        35.2730   71.7930   79.3770 C.3   111  PRO111      0.0310
     81  CG        36.0580   73.0070   79.8700 C.3   111  PRO111      0.0237
     82  CD        36.2260   72.8110   81.3750 C.3   111  PRO111      0.0939
     83  N         36.0830   68.8890   78.9270 N.am  112  ASN112     -0.1973
     84  CA        36.9280   67.9450   78.2320 C.3   112  ASN112      0.1688
     85  C         37.7280   68.6850   77.1730 C.2   112  ASN112      0.2292
     86  O         37.2260   69.6120   76.5320 O.2   112  ASN112     -0.2864
     87  CB        36.0260   66.9230   77.5440 C.3   112  ASN112      0.1181
     88  CG        36.2960   65.4960   77.9960 C.2   112  ASN112      0.2629
     89  OD1       37.1400   64.8090   77.4160 O.2   112  ASN112     -0.2716
     90  ND2       35.5610   65.0500   79.0250 N.am  112  ASN112     -0.0877
@<TRIPOS>BOND
     1    86    85    2
     2    85    84    1
     3    26    25    2
     4    89    88    2
     5    87    88    1
     6    87    84    1
     7    88    90   am
     8    25    24    1
     9    84    83    1
    10    27    28    1
    11    27    24    1
    12    29    28    2
    13    28    30   am
    14    24    23    1
    15    83    78   am
    16    36    35    1
    17    80    81    1
    18    80    77    1
    19    81    82    1
    20    78    79    2
    21    78    77    1
    22    31    32    1
    23    23    13   am
    24    77    76    1
    25    35    32    1
    26    14    13    2
    27    32    33    1
    28    13    12    1
    29    82    76    1
    30    76    70   am
    31    46    44   ar
    32    46    47   ar
    33     8    10   ar
    34     8     6   ar
    35    48    47    1
    36    33    34    2
    37    33    37   am
    38    10     9   ar
    39    18    20   ar
    40    18    16   ar
    41    12    11    1
    42    12    15    1
    43    44    42   ar
    44    20    21   ar
    45    70    71    2
    46    70    69    1
    47    47    45   ar
    48    37    38    1
    49    15    16    1
    50    74    72    1
    51    16    17   ar
    52     6     5    1
    53     6     7   ar
    54    67    65    1
    55    21    22    1
    56    21    19   ar
    57     9     7   ar
    58     5     2    1
    59    42    41    1
    60    42    43   ar
    61    69    72    1
    62    69    68    1
    63    60    59    2
    64    45    43   ar
    65     2     3    1
    66     2     1    1
    67    17    19   ar
    68    72    73    1
    69    38    41    1
    70    38    39    1
    71    65    66    1
    72    65    64    2
    73     3     4    2
    74    59    68   am
    75    59    58    1
    76    64    63    1
    77    40    39    2
    78    39    49   am
    79    73    75    1
    80    61    58    1
    81    61    62    1
    82    58    57    1
    83    55    54   ar
    84    49    50    1
    85    63    62    1
    86    56    54   ar
    87    54    53    1
    88    50    53    1
    89    50    51    1
    90    51    52    2
