@<TRIPOS>MOLECULE
tmp/3wqjA04.pdb
 86 80 0 0 0
SMALL
GASTEIGER

@<TRIPOS>ATOM
      1  N          4.0280   26.6840   29.7780 N.3    92  LEU92      -0.1231
      2  CA         3.0090   27.4650   29.0500 C.3    92  LEU92       0.1693
      3  C          3.5280   28.1320   27.7730 C.2    92  LEU92       0.2592
      4  O          2.7530   28.3430   26.8820 O.2    92  LEU92      -0.2718
      5  CB         2.4760   28.5960   29.9340 C.3    92  LEU92       0.0284
      6  CG         1.0440   29.1350   29.8020 C.3    92  LEU92       0.0019
      7  CD1        0.0310   28.4990   28.8850 C.3    92  LEU92       0.0001
      8  CD2        0.5840   28.7010   31.2060 C.3    92  LEU92       0.0001
      9  N          4.8040   28.5050   27.7310 N.am   93  PHE93      -0.1976
     10  CA         5.4430   29.0480   26.5320 C.3    93  PHE93       0.1639
     11  C          6.2290   27.9700   25.7570 C.2    93  PHE93       0.2290
     12  O          6.1510   27.9240   24.5410 O.2    93  PHE93      -0.2864
     13  CB         6.3360   30.2380   26.8940 C.3    93  PHE93       0.0560
     14  CG         5.5660   31.3590   27.4830 C.ar   93  PHE93      -0.0200
     15  CD1        4.8090   32.1990   26.6580 C.ar   93  PHE93      -0.0042
     16  CD2        5.5280   31.5400   28.8580 C.ar   93  PHE93      -0.0042
     17  CE1        4.0400   33.2510   27.2040 C.ar   93  PHE93      -0.0003
     18  CE2        4.7970   32.5780   29.4110 C.ar   93  PHE93      -0.0003
     19  CZ         4.0330   33.4460   28.5730 C.ar   93  PHE93      -0.0000
     20  N          3.9660   25.1130   23.6450 N.3    96  PRO96      -0.2102
     21  CA         3.4610   25.6240   22.3480 C.3    96  PRO96       0.1504
     22  C          4.5520   25.8000   21.2980 C.2    96  PRO96       0.2575
     23  O          4.3260   25.5020   20.1070 O.2    96  PRO96      -0.2718
     24  CB         2.8420   27.0030   22.7390 C.3    96  PRO96       0.0282
     25  CG         2.2960   26.7230   24.1220 C.3    96  PRO96       0.0208
     26  CD         3.4310   25.9330   24.7670 C.3    96  PRO96       0.0893
     27  N          5.7340   26.2560   21.7220 N.am   97  LEU97      -0.1980
     28  CA         6.8650   26.3860   20.7920 C.3    97  LEU97       0.1596
     29  C          7.3380   25.0450   20.2400 C.2    97  LEU97       0.2287
     30  O          7.6190   24.9200   19.0470 O.2    97  LEU97      -0.2864
     31  CB         8.0370   27.0810   21.4870 C.3    97  LEU97       0.0297
     32  CG         7.8130   28.5910   21.7800 C.3    97  LEU97       0.0022
     33  CD1        8.9070   29.0730   22.7730 C.3    97  LEU97       0.0001
     34  CD2        7.7680   29.4570   20.5290 C.3    97  LEU97       0.0001
     35  N          4.8760   23.9950   17.7490 N.3   100  LEU100     -0.1245
     36  CA         5.0390   24.8930   16.5820 C.3   100  LEU100      0.1561
     37  C          6.1470   24.3680   15.6670 C.2   100  LEU100      0.2260
     38  O          5.9650   24.3010   14.4220 O.2   100  LEU100     -0.2867
     39  CB         5.3330   26.3440   17.0370 C.3   100  LEU100      0.0270
     40  CG         5.4560   27.3710   15.9080 C.3   100  LEU100      0.0019
     41  CD1        4.2400   27.3720   15.0310 C.3   100  LEU100      0.0001
     42  CD2        5.7830   28.8110   16.3900 C.3   100  LEU100      0.0001
     43  N          5.4160   23.1910   11.8500 N.3   104  LEU104     -0.1245
     44  CA         6.1710   23.7730   10.7390 C.3   104  LEU104      0.1561
     45  C          6.7980   22.6420    9.8850 C.2   104  LEU104      0.2260
     46  O          6.8170   22.7110    8.6510 O.2   104  LEU104     -0.2867
     47  CB         7.2780   24.6780   11.2960 C.3   104  LEU104      0.0270
     48  CG         7.1190   26.2070   11.3020 C.3   104  LEU104      0.0019
     49  CD1        5.6800   26.7940   11.2900 C.3   104  LEU104      0.0001
     50  CD2        7.9810   26.8650   12.3700 C.3   104  LEU104      0.0001
     51  N         -2.9000   26.8480    9.4230 N.3   110  ARG110     -0.1245
     52  CA        -2.8770   27.7800   10.5410 C.3   110  ARG110      0.1563
     53  C         -3.9770   27.5000   11.5900 C.2   110  ARG110      0.2260
     54  O         -3.7890   27.7870   12.7790 O.2   110  ARG110     -0.2867
     55  CB        -2.9950   29.2300   10.0530 C.3   110  ARG110      0.0307
     56  CG        -1.8530   29.7460    9.1730 C.3   110  ARG110      0.0489
     57  CD        -2.2350   29.8340    7.6800 C.3   110  ARG110      0.2205
     58  NE        -2.2170   28.5270    7.0240 N.pl3 110  ARG110     -0.0865
     59  CZ        -2.7190   28.2770    5.8180 C.cat 110  ARG110      0.5346
     60  NH1       -3.2900   29.2520    5.1190 N.pl3 110  ARG110      0.1354
     61  NH2       -2.6530   27.0500    5.3090 N.pl3 110  ARG110      0.1354
     62  N         -2.7220   24.8120   13.8790 N.3   113  ILE113     -0.1245
     63  CA        -1.7120   25.3390   14.7910 C.3   113  ILE113      0.1561
     64  C         -2.3740   26.0830   15.9430 C.2   113  ILE113      0.2260
     65  O         -2.0280   25.8790   17.1130 O.2   113  ILE113     -0.2867
     66  CB        -0.6760   26.3210   14.1050 C.3   113  ILE113      0.0252
     67  CG1        0.3150   26.8520   15.1380 C.3   113  ILE113      0.0019
     68  CG2       -1.3020   27.5750   13.6090 C.3   113  ILE113      0.0019
     69  CD1        0.7530   28.3420   14.9110 C.3   113  ILE113      0.0001
     70  N         -2.1050   24.9770   19.8750 N.3   117  ILE117     -0.1231
     71  CA        -1.5690   25.8880   20.8840 C.3   117  ILE117      0.1692
     72  C         -2.6140   26.1450   21.9930 C.2   117  ILE117      0.2592
     73  O         -2.2890   26.1070   23.1790 O.2   117  ILE117     -0.2718
     74  CB        -1.0640   27.1690   20.2750 C.3   117  ILE117      0.0266
     75  CG1        0.3040   26.8720   19.6120 C.3   117  ILE117      0.0019
     76  CG2       -0.9970   28.2890   21.3530 C.3   117  ILE117      0.0020
     77  CD1        0.8580   27.9790   18.7570 C.3   117  ILE117      0.0001
     78  N         -3.8560   26.3570   21.5960 N.am  118  GLY118     -0.1957
     79  CA        -4.9040   26.6920   22.5720 C.3   118  GLY118      0.1869
     80  C         -5.1710   25.5430   23.5150 C.2   118  GLY118      0.2309
     81  O         -5.3490   25.7460   24.7210 O.2   118  GLY118     -0.2863
     82  N         -2.1080   25.0230   25.8660 N.3   121  ALA121     -0.1245
     83  CA        -2.0680   26.0660   26.9120 C.3   121  ALA121      0.1562
     84  C         -3.1260   25.7280   27.9750 C.2   121  ALA121      0.2260
     85  O         -2.8690   25.8390   29.1580 O.2   121  ALA121     -0.2867
     86  CB        -2.3910   27.4010   26.3220 C.3   121  ALA121      0.0290
@<TRIPOS>BOND
     1    60    59    1
     2    61    59    1
     3    59    58    2
     4    58    57    1
     5    57    56    1
     6    46    45    2
     7    56    55    1
     8    51    52    1
     9    45    44    1
    10    55    52    1
    11    52    53    1
    12    44    47    1
    13    44    43    1
    14    49    48    1
    15    47    48    1
    16    48    50    1
    17    53    54    2
    18    68    66    1
    19    62    63    1
    20    66    63    1
    21    66    67    1
    22    38    37    2
    23    63    64    1
    24    69    67    1
    25    41    40    1
    26    37    36    1
    27    40    42    1
    28    40    39    1
    29    64    65    2
    30    36    39    1
    31    36    35    1
    32    77    75    1
    33    30    29    2
    34    75    74    1
    35    70    71    1
    36    23    22    2
    37    29    28    1
    38    74    71    1
    39    74    76    1
    40    34    32    1
    41    28    31    1
    42    28    27    1
    43    71    72    1
    44    22    27   am
    45    22    21    1
    46    31    32    1
    47    78    72   am
    48    78    79    1
    49    32    33    1
    50    72    73    2
    51    21    24    1
    52    21    20    1
    53    79    80    1
    54    24    25    1
    55    80    81    2
    56    20    26    1
    57    25    26    1
    58    12    11    2
    59    11    10    1
    60    82    83    1
    61    86    83    1
    62    10    13    1
    63    10     9    1
    64    15    17   ar
    65    15    14   ar
    66     4     3    2
    67    13    14    1
    68    83    84    1
    69    17    19   ar
    70    14    16   ar
    71     9     3   am
    72     3     2    1
    73    84    85    2
    74    19    18   ar
    75    16    18   ar
    76     7     6    1
    77     2     1    1
    78     2     5    1
    79     6     5    1
    80     6     8    1
