@<TRIPOS>MOLECULE
tmp/3wqjA01.pdb
 113 107 0 0 0
SMALL
GASTEIGER

@<TRIPOS>ATOM
      1  N         21.1560   26.0620   29.9130 N.3    25  LEU25      -0.1245
      2  CA        21.9820   27.1910   29.4480 C.3    25  LEU25       0.1561
      3  C         22.9930   26.7730   28.3840 C.2    25  LEU25       0.2260
      4  O         23.1790   27.4580   27.3790 O.2    25  LEU25      -0.2867
      5  CB        22.7280   27.8810   30.6160 C.3    25  LEU25       0.0270
      6  CG        21.8440   28.7930   31.5060 C.3    25  LEU25       0.0019
      7  CD1       22.5180   29.2090   32.8300 C.3    25  LEU25       0.0001
      8  CD2       21.3610   30.0160   30.7570 C.3    25  LEU25       0.0001
      9  N         20.9700   26.0620   25.2150 N.3    28  THR28      -0.1203
     10  CA        20.6220   27.3730   24.6340 C.3    28  THR28       0.1994
     11  C         21.8090   27.9340   23.8510 C.2    28  THR28       0.2617
     12  O         21.6940   28.2670   22.6780 O.2    28  THR28      -0.2717
     13  CB        20.1710   28.3870   25.7090 C.3    28  THR28       0.1784
     14  OG1       19.1050   27.8000   26.4660 O.3    28  THR28      -0.2211
     15  CG2       19.6700   29.7570   25.0820 C.3    28  THR28       0.0376
     16  N         22.9420   28.0290   24.5160 N.am   29  PHE29      -0.1975
     17  CA        24.0830   28.6530   23.8460 C.3    29  PHE29       0.1639
     18  C         24.6720   27.8140   22.7250 C.2    29  PHE29       0.2290
     19  O         25.1550   28.3620   21.7450 O.2    29  PHE29      -0.2864
     20  CB        25.0870   29.1550   24.8590 C.3    29  PHE29       0.0560
     21  CG        24.6690   30.4830   25.4520 C.ar   29  PHE29      -0.0200
     22  CD1       23.8750   30.5270   26.6020 C.ar   29  PHE29      -0.0042
     23  CD2       24.9640   31.6790   24.8000 C.ar   29  PHE29      -0.0042
     24  CE1       23.4360   31.7380   27.1360 C.ar   29  PHE29      -0.0003
     25  CE2       24.5310   32.9100   25.3390 C.ar   29  PHE29      -0.0003
     26  CZ        23.7720   32.9260   26.5070 C.ar   29  PHE29      -0.0000
     27  N         22.3900   28.6000   19.7660 N.3    32  ILE32      -0.1245
     28  CA        22.6590   29.9520   19.2950 C.3    32  ILE32       0.1561
     29  C         23.9430   29.9520   18.4350 C.2    32  ILE32       0.2260
     30  O         23.9720   30.5440   17.3440 O.2    32  ILE32      -0.2867
     31  CB        22.8770   30.9370   20.4620 C.3    32  ILE32       0.0252
     32  CG1       21.5570   31.2150   21.1750 C.3    32  ILE32       0.0019
     33  CG2       23.4880   32.3210   19.9420 C.3    32  ILE32       0.0019
     34  CD1       21.7110   32.0130   22.4970 C.3    32  ILE32       0.0001
     35  N         23.3200   28.1940   15.2240 N.3    35  GLY35      -0.1210
     36  CA        22.4320   28.9580   14.3320 C.3    35  GLY35       0.1956
     37  C         23.0060   30.2640   13.8140 C.2    35  GLY35       0.2611
     38  O         22.4530   30.8600   12.8940 O.2    35  GLY35      -0.2717
     39  N         24.1340   30.6810   14.3890 N.am   36  TRP36      -0.1976
     40  CA        24.7070   32.0260   14.1700 C.3    36  TRP36       0.1640
     41  C         24.8010   32.5450   12.7210 C.2    36  TRP36       0.2290
     42  O         24.4360   33.6950   12.4680 O.2    36  TRP36      -0.2864
     43  CB        26.0600   32.1980   14.8870 C.3    36  TRP36       0.0576
     44  CG        26.3780   33.6350   15.0570 C.ar   36  TRP36       0.0006
     45  CD1       27.3050   34.3770   14.3550 C.ar   36  TRP36       0.0946
     46  CD2       25.7120   34.5470   15.9280 C.ar   36  TRP36       0.0152
     47  NE1       27.2660   35.6870   14.7710 N.ar   36  TRP36      -0.2442
     48  CE2       26.2960   35.8250   15.7280 C.ar   36  TRP36       0.0810
     49  CE3       24.6870   34.4120   16.8730 C.ar   36  TRP36       0.0012
     50  CZ2       25.8980   36.9540   16.4570 C.ar   36  TRP36       0.0191
     51  CZ3       24.2730   35.5350   17.5780 C.ar   36  TRP36       0.0001
     52  CH2       24.8800   36.7900   17.3700 C.ar   36  TRP36       0.0015
     53  N         23.3420   31.0880    9.9230 N.3    38  VAL38      -0.1245
     54  CA        22.3400   30.4170    9.0970 C.3    38  VAL38       0.1561
     55  C         21.5150   31.4660    8.3590 C.2    38  VAL38       0.2260
     56  O         21.0730   32.4390    8.9750 O.2    38  VAL38      -0.2867
     57  CB        21.4730   29.4600    9.9770 C.3    38  VAL38       0.0252
     58  CG1       20.2270   28.9870    9.2560 C.3    38  VAL38       0.0019
     59  CG2       22.3100   28.2690   10.4290 C.3    38  VAL38       0.0019
     60  N         16.2340   29.3980    9.8350 N.3    44  ARG44      -0.1245
     61  CA        16.3060   30.3610   10.9220 C.3    44  ARG44       0.1563
     62  C         15.0190   30.4170   11.7820 C.2    44  ARG44       0.2260
     63  O         15.0830   30.6790   12.9850 O.2    44  ARG44      -0.2867
     64  CB        16.8000   31.7620   10.4770 C.3    44  ARG44       0.0307
     65  CG        16.1400   32.4140    9.2900 C.3    44  ARG44       0.0489
     66  CD        16.8690   33.7650    8.9180 C.3    44  ARG44       0.2205
     67  NE        16.0120   34.6170    8.0770 N.pl3  44  ARG44      -0.0865
     68  CZ        16.3030   35.0620    6.8450 C.cat  44  ARG44       0.5346
     69  NH1       15.4180   35.8170    6.2030 N.pl3  44  ARG44       0.1354
     70  NH2       17.4730   34.7970    6.2580 N.pl3  44  ARG44       0.1354
     71  N         15.4840   27.5710   14.1920 N.3    47  TYR47      -0.1227
     72  CA        16.4460   28.0130   15.1910 C.3    47  TYR47       0.1736
     73  C         15.8560   29.0280   16.2030 C.2    47  TYR47       0.2595
     74  O         16.1190   28.9320   17.4070 O.2    47  TYR47      -0.2718
     75  CB        17.7010   28.6110   14.5110 C.3    47  TYR47       0.0548
     76  CG        18.7440   27.5620   14.1900 C.ar   47  TYR47      -0.0200
     77  CD1       18.8530   27.0160   12.8980 C.ar   47  TYR47      -0.0009
     78  CD2       19.6010   27.0990   15.1900 C.ar   47  TYR47      -0.0009
     79  CE1       19.8420   26.0560   12.6020 C.ar   47  TYR47       0.0417
     80  CE2       20.5570   26.1160   14.9100 C.ar   47  TYR47       0.0417
     81  CZ        20.6700   25.6150   13.6180 C.ar   47  TYR47       0.1957
     82  OH        21.6270   24.6780   13.3690 O.3    47  TYR47      -0.2866
     83  N         15.1190   30.0200   15.7210 N.am   48  ALA48      -0.1980
     84  CA        14.5100   31.0270   16.6220 C.3    48  ALA48       0.1597
     85  C         13.5420   30.4120   17.6540 C.2    48  ALA48       0.2287
     86  O         13.6400   30.6780   18.8540 O.2    48  ALA48      -0.2864
     87  CB        13.7820   32.1000   15.8020 C.3    48  ALA48       0.0319
     88  N         15.6680   27.8170   20.1340 N.3    51  ILE51      -0.1231
     89  CA        16.6240   28.4100   21.0810 C.3    51  ILE51       0.1692
     90  C         15.8020   28.9240   22.2780 C.2    51  ILE51       0.2591
     91  O         16.2320   28.8480   23.4430 O.2    51  ILE51      -0.2718
     92  CB        17.4140   29.5910   20.4280 C.3    51  ILE51       0.0266
     93  CG1       18.5250   29.0760   19.4970 C.3    51  ILE51       0.0019
     94  CG2       18.1320   30.4560   21.4790 C.3    51  ILE51       0.0020
     95  CD1       19.0580   30.1430   18.5230 C.3    51  ILE51       0.0001
     96  N         14.6430   29.4990   21.9790 N.am   52  LEU52      -0.1980
     97  CA        13.8280   30.0700   23.0520 C.3    52  LEU52       0.1596
     98  C         13.2800   29.0090   24.0090 C.2    52  LEU52       0.2287
     99  O         12.9290   29.3210   25.1560 O.2    52  LEU52      -0.2864
    100  CB        12.6770   30.9110   22.4610 C.3    52  LEU52       0.0297
    101  CG        12.9950   32.3330   22.0210 C.3    52  LEU52       0.0022
    102  CD1       11.7820   32.8770   21.2530 C.3    52  LEU52       0.0001
    103  CD2       13.3400   33.2120   23.2640 C.3    52  LEU52       0.0001
    104  N         16.0070   28.3780   26.4040 N.3    55  GLY55      -0.1225
    105  CA        16.2850   29.6590   27.0040 C.3    55  GLY55       0.1811
    106  C         15.2430   29.9960   28.0860 C.2    55  GLY55       0.2280
    107  O         15.5610   30.4620   29.1910 O.2    55  GLY55      -0.2866
    108  N         15.7520   27.6900   30.9480 N.3    58  SER58      -0.1217
    109  CA        16.8610   28.1540   31.7950 C.3    58  SER58       0.1889
    110  C         16.3950   29.0610   32.9070 C.2    58  SER58       0.2288
    111  O         16.8690   28.9330   34.0550 O.2    58  SER58      -0.2866
    112  CB        17.9230   28.9240   30.9810 C.3    58  SER58       0.2089
    113  OG        18.5480   28.0030   30.0950 O.3    58  SER58      -0.2183
@<TRIPOS>BOND
     1    69    68    1
     2    70    68    1
     3    68    67    2
     4    67    66    1
     5    55    56    2
     6    55    54    1
     7    66    65    1
     8    54    53    1
     9    54    57    1
    10    58    57    1
    11    65    64    1
    12    60    61    1
    13    57    59    1
    14    64    61    1
    15    61    62    1
    16    62    63    2
    17    42    41    2
    18    79    77   ar
    19    79    81   ar
    20    41    40    1
    21    38    37    2
    22    77    76   ar
    23    82    81    1
    24    81    80   ar
    25    37    36    1
    26    37    39   am
    27    40    39    1
    28    40    43    1
    29    76    75    1
    30    76    78   ar
    31    71    72    1
    32    36    35    1
    33    45    47   ar
    34    45    44   ar
    35    75    72    1
    36    47    48   ar
    37    43    44    1
    38    80    78   ar
    39    44    46   ar
    40    72    73    1
    41    83    73   am
    42    83    84    1
    43    48    46   ar
    44    48    50   ar
    45    87    84    1
    46    46    49   ar
    47    73    74    2
    48    50    52   ar
    49    84    85    1
    50    49    51   ar
    51    30    29    2
    52    52    51   ar
    53    85    86    2
    54    29    28    1
    55    95    93    1
    56    28    27    1
    57    28    31    1
    58    93    92    1
    59    33    31    1
    60    88    89    1
    61    92    89    1
    62    92    94    1
    63    31    32    1
    64    89    90    1
    65    32    34    1
    66   102   101    1
    67    19    18    2
    68    96    90   am
    69    96    97    1
    70   101   100    1
    71   101   103    1
    72    90    91    2
    73   100    97    1
    74    12    11    2
    75    18    17    1
    76    97    98    1
    77    17    16    1
    78    17    20    1
    79    11    16   am
    80    11    10    1
    81    98    99    2
    82    10     9    1
    83    10    13    1
    84    23    25   ar
    85    23    21   ar
    86    20    21    1
    87    15    13    1
    88    25    26   ar
    89    21    22   ar
    90    13    14    1
    91   104   105    1
    92    26    24   ar
    93    22    24   ar
    94   105   106    1
    95     4     3    2
    96   106   107    2
    97     3     2    1
    98     2     1    1
    99     2     5    1
   100   113   112    1
   101     5     6    1
   102     8     6    1
   103   108   109    1
   104   112   109    1
   105     6     7    1
   106   109   110    1
   107   110   111    2
