@<TRIPOS>MOLECULE
tmp/3wqjA05.pdb
 84 76 0 0 0
SMALL
GASTEIGER

@<TRIPOS>ATOM
      1  N         13.8770   30.1250   11.1840 N.3    45  GLU45      -0.1245
      2  CA        12.6280   30.0380   11.9320 C.3    45  GLU45       0.1567
      3  C         12.7080   28.8770   12.9580 C.2    45  GLU45       0.2260
      4  O         12.3590   29.0500   14.1380 O.2    45  GLU45      -0.2867
      5  CB        11.4810   29.8380   10.9570 C.3    45  GLU45       0.0388
      6  CG        10.1470   29.9200   11.5420 C.3    45  GLU45       0.1160
      7  CD         9.0840   29.9160   10.4660 C.2    45  GLU45       0.3649
      8  OE1        9.3430   29.5030    9.3010 O.co2  45  GLU45      -0.2457
      9  OE2        7.9710   30.3120   10.8220 O.co2  45  GLU45      -0.2457
     10  N         15.1190   30.0200   15.7210 N.3    48  ALA48      -0.1231
     11  CA        14.5100   31.0270   16.6220 C.3    48  ALA48       0.1694
     12  C         13.5420   30.4120   17.6540 C.2    48  ALA48       0.2591
     13  O         13.6400   30.6780   18.8540 O.2    48  ALA48      -0.2718
     14  CB        13.7820   32.1000   15.8020 C.3    48  ALA48       0.0304
     15  N         12.6530   29.5690   17.1890 N.am   49  ILE49      -0.1980
     16  CA        11.6900   28.8910   18.0460 C.3    49  ILE49       0.1595
     17  C         12.4530   28.0150   19.0570 C.2    49  ILE49       0.2287
     18  O         12.1910   28.0470   20.2730 O.2    49  ILE49      -0.2864
     19  CB        10.7230   28.0770   17.1780 C.3    49  ILE49       0.0276
     20  CG1        9.8000   29.0440   16.3890 C.3    49  ILE49       0.0022
     21  CG2        9.9280   27.0740   18.0020 C.3    49  ILE49       0.0022
     22  CD1        9.1820   28.4620   15.2010 C.3    49  ILE49       0.0001
     23  N         14.6430   29.4990   21.9790 N.3    52  LEU52      -0.1245
     24  CA        13.8280   30.0700   23.0520 C.3    52  LEU52       0.1561
     25  C         13.2800   29.0090   24.0090 C.2    52  LEU52       0.2260
     26  O         12.9290   29.3210   25.1560 O.2    52  LEU52      -0.2867
     27  CB        12.6770   30.9110   22.4610 C.3    52  LEU52       0.0270
     28  CG        12.9950   32.3330   22.0210 C.3    52  LEU52       0.0019
     29  CD1       11.7820   32.8770   21.2530 C.3    52  LEU52       0.0001
     30  CD2       13.3400   33.2120   23.2640 C.3    52  LEU52       0.0001
     31  N         13.9760   29.8280   27.7300 N.3    56  ILE56      -0.1245
     32  CA        12.8950   30.0380   28.7110 C.3    56  ILE56       0.1561
     33  C         13.0580   29.0260   29.8760 C.2    56  ILE56       0.2260
     34  O         12.9320   29.3650   31.0570 O.2    56  ILE56      -0.2867
     35  CB        11.5080   29.8660   28.0440 C.3    56  ILE56       0.0252
     36  CG1       11.2170   31.0390   27.1590 C.3    56  ILE56       0.0019
     37  CG2       10.3950   29.7840   29.0910 C.3    56  ILE56       0.0019
     38  CD1       10.0800   30.7850   26.1440 C.3    56  ILE56       0.0001
     39  N          4.8040   28.5050   27.7310 N.3    93  PHE93      -0.1241
     40  CA         5.4430   29.0480   26.5320 C.3    93  PHE93       0.1605
     41  C          6.2290   27.9700   25.7570 C.2    93  PHE93       0.2264
     42  O          6.1510   27.9240   24.5410 O.2    93  PHE93      -0.2867
     43  CB         6.3360   30.2380   26.8940 C.3    93  PHE93       0.0534
     44  CG         5.5660   31.3590   27.4830 C.ar   93  PHE93      -0.0203
     45  CD1        4.8090   32.1990   26.6580 C.ar   93  PHE93      -0.0042
     46  CD2        5.5280   31.5400   28.8580 C.ar   93  PHE93      -0.0042
     47  CE1        4.0400   33.2510   27.2040 C.ar   93  PHE93      -0.0003
     48  CE2        4.7970   32.5780   29.4110 C.ar   93  PHE93      -0.0003
     49  CZ         4.0330   33.4460   28.5730 C.ar   93  PHE93      -0.0000
     50  N          5.7340   26.2560   21.7220 N.3    97  LEU97      -0.1245
     51  CA         6.8650   26.3860   20.7920 C.3    97  LEU97       0.1561
     52  C          7.3380   25.0450   20.2400 C.2    97  LEU97       0.2260
     53  O          7.6190   24.9200   19.0470 O.2    97  LEU97      -0.2867
     54  CB         8.0370   27.0810   21.4870 C.3    97  LEU97       0.0270
     55  CG         7.8130   28.5910   21.7800 C.3    97  LEU97       0.0019
     56  CD1        8.9070   29.0730   22.7730 C.3    97  LEU97       0.0001
     57  CD2        7.7680   29.4570   20.5290 C.3    97  LEU97       0.0001
     58  N          4.8760   23.9950   17.7490 N.3   100  LEU100     -0.1245
     59  CA         5.0390   24.8930   16.5820 C.3   100  LEU100      0.1561
     60  C          6.1470   24.3680   15.6670 C.2   100  LEU100      0.2260
     61  O          5.9650   24.3010   14.4220 O.2   100  LEU100     -0.2867
     62  CB         5.3330   26.3440   17.0370 C.3   100  LEU100      0.0270
     63  CG         5.4560   27.3710   15.9080 C.3   100  LEU100      0.0019
     64  CD1        4.2400   27.3720   15.0310 C.3   100  LEU100      0.0001
     65  CD2        5.7830   28.8110   16.3900 C.3   100  LEU100      0.0001
     66  N          5.4160   23.1910   11.8500 N.3   104  LEU104     -0.1245
     67  CA         6.1710   23.7730   10.7390 C.3   104  LEU104      0.1561
     68  C          6.7980   22.6420    9.8850 C.2   104  LEU104      0.2260
     69  O          6.8170   22.7110    8.6510 O.2   104  LEU104     -0.2867
     70  CB         7.2780   24.6780   11.2960 C.3   104  LEU104      0.0270
     71  CG         7.1190   26.2070   11.3020 C.3   104  LEU104      0.0019
     72  CD1        5.6800   26.7940   11.2900 C.3   104  LEU104      0.0001
     73  CD2        7.9810   26.8650   12.3700 C.3   104  LEU104      0.0001
     74  N         -2.9000   26.8480    9.4230 N.3   110  ARG110     -0.1245
     75  CA        -2.8770   27.7800   10.5410 C.3   110  ARG110      0.1563
     76  C         -3.9770   27.5000   11.5900 C.2   110  ARG110      0.2260
     77  O         -3.7890   27.7870   12.7790 O.2   110  ARG110     -0.2867
     78  CB        -2.9950   29.2300   10.0530 C.3   110  ARG110      0.0307
     79  CG        -1.8530   29.7460    9.1730 C.3   110  ARG110      0.0489
     80  CD        -2.2350   29.8340    7.6800 C.3   110  ARG110      0.2205
     81  NE        -2.2170   28.5270    7.0240 N.pl3 110  ARG110     -0.0865
     82  CZ        -2.7190   28.2770    5.8180 C.cat 110  ARG110      0.5346
     83  NH1       -3.2900   29.2520    5.1190 N.pl3 110  ARG110      0.1354
     84  NH2       -2.6530   27.0500    5.3090 N.pl3 110  ARG110      0.1354
@<TRIPOS>BOND
     1    83    82    1
     2    84    82    1
     3    82    81    2
     4    81    80    1
     5    80    79    1
     6    69    68    2
     7    79    78    1
     8     8     7   ar
     9    74    75    1
    10    68    67    1
    11    78    75    1
    12     7     9   ar
    13     7     6    1
    14    75    76    1
    15    67    70    1
    16    67    66    1
    17     5     6    1
    18     5     2    1
    19     1     2    1
    20    72    71    1
    21    70    71    1
    22    71    73    1
    23    76    77    2
    24     2     3    1
    25     3     4    2
    26    61    60    2
    27    64    63    1
    28    22    20    1
    29    60    59    1
    30    10    11    1
    31    14    11    1
    32    63    65    1
    33    63    62    1
    34    20    19    1
    35    59    62    1
    36    59    58    1
    37    11    12    1
    38    19    21    1
    39    19    16    1
    40    15    12   am
    41    15    16    1
    42    12    13    2
    43    16    17    1
    44    53    52    2
    45    17    18    2
    46    52    51    1
    47    57    55    1
    48    51    54    1
    49    51    50    1
    50    29    28    1
    51    54    55    1
    52    55    56    1
    53    23    24    1
    54    28    27    1
    55    28    30    1
    56    27    24    1
    57    24    25    1
    58    25    26    2
    59    42    41    2
    60    41    40    1
    61    38    36    1
    62    40    43    1
    63    40    39    1
    64    45    47   ar
    65    45    44   ar
    66    43    44    1
    67    36    35    1
    68    47    49   ar
    69    44    46   ar
    70    31    32    1
    71    35    32    1
    72    35    37    1
    73    49    48   ar
    74    32    33    1
    75    46    48   ar
    76    33    34    2
