@<TRIPOS>MOLECULE
tmp/3wqmA00.pdb
 102 99 0 0 0
SMALL
GASTEIGER

@<TRIPOS>ATOM
      1  N        -16.5300  -14.4510   16.0030 N.3    35  ASP35      -0.1225
      2  CA       -15.3540  -15.2820   16.1920 C.3    35  ASP35       0.1805
      3  C        -14.2180  -14.3970   16.6910 C.2    35  ASP35       0.2598
      4  O        -14.3260  -13.1690   16.6700 O.2    35  ASP35      -0.2718
      5  CB       -14.9850  -15.9420   14.8580 C.3    35  ASP35       0.1424
      6  CG       -14.0410  -17.1180   15.0280 C.2    35  ASP35       0.3668
      7  OD1      -13.6930  -17.7550   14.0090 O.co2  35  ASP35      -0.2456
      8  OD2      -13.6500  -17.4090   16.1800 O.co2  35  ASP35      -0.2456
      9  N        -13.1310  -15.0180   17.1340 N.am   36  GLY36      -0.1942
     10  CA       -12.0100  -14.2520   17.6450 C.3    36  GLY36       0.2014
     11  C        -12.3240  -13.7340   19.0370 C.2    36  GLY36       0.2640
     12  O        -11.7080  -12.7890   19.5140 O.2    36  GLY36      -0.2714
     13  N        -13.2920  -14.3650   19.6910 N.am   37  THR37      -0.1936
     14  CA       -13.7120  -13.9760   21.0340 C.3    37  THR37       0.2028
     15  C        -12.5520  -13.9160   22.0370 C.2    37  THR37       0.2642
     16  O        -12.3530  -12.9050   22.7120 O.2    37  THR37      -0.2714
     17  CB       -14.7550  -14.9620   21.5850 C.3    37  THR37       0.1808
     18  OG1      -15.6750  -15.3200   20.5470 O.3    37  THR37      -0.2208
     19  CG2      -15.5230  -14.3300   22.7350 C.3    37  THR37       0.0379
     20  N        -11.7980  -15.0070   22.1350 N.am   38  ARG38      -0.1963
     21  CA       -10.6750  -15.0880   23.0630 C.3    38  ARG38       0.1729
     22  C         -9.6180  -14.0070   22.8760 C.2    38  ARG38       0.2616
     23  O         -9.2470  -13.3270   23.8320 O.2    38  ARG38      -0.2715
     24  CB       -10.0110  -16.4600   22.9580 C.3    38  ARG38       0.0348
     25  CG       -10.4260  -17.4490   24.0310 C.3    38  ARG38       0.0492
     26  CD        -9.8730  -18.8200   23.6940 C.3    38  ARG38       0.2205
     27  NE        -9.6200  -19.6580   24.8610 N.pl3  38  ARG38      -0.0865
     28  CZ        -9.1650  -20.9060   24.7910 C.cat  38  ARG38       0.5346
     29  NH1       -8.9210  -21.4590   23.6080 N.pl3  38  ARG38       0.1354
     30  NH2       -8.9380  -21.5980   25.9020 N.pl3  38  ARG38       0.1354
     31  N         -9.1330  -13.8400   21.6500 N.am   39  ARG39      -0.1977
     32  CA        -8.1020  -12.8470   21.3980 C.3    39  ARG39       0.1597
     33  C         -8.6200  -11.4270   21.5660 C.2    39  ARG39       0.2287
     34  O         -7.8800  -10.5420   21.9950 O.2    39  ARG39      -0.2864
     35  CB        -7.4990  -13.0390   20.0040 C.3    39  ARG39       0.0334
     36  CG        -8.2770  -12.4300   18.8720 C.3    39  ARG39       0.0492
     37  CD        -7.8020  -13.0200   17.5650 C.3    39  ARG39       0.2205
     38  NE        -8.3050  -14.3790   17.4020 N.pl3  39  ARG39      -0.0865
     39  CZ        -8.0780  -15.1400   16.3400 C.cat  39  ARG39       0.5346
     40  NH1       -7.3420  -14.6830   15.3370 N.pl3  39  ARG39       0.1354
     41  NH2       -8.6120  -16.3520   16.2720 N.pl3  39  ARG39       0.1354
     42  N         -8.7590  -10.8360   25.5400 N.3    42  HIS42      -0.1226
     43  CA        -7.4170  -10.6910   26.0790 C.3    42  HIS42       0.1752
     44  C         -6.6480   -9.5010   25.5130 C.2    42  HIS42       0.2595
     45  O         -5.6990   -9.0280   26.1320 O.2    42  HIS42      -0.2718
     46  CB        -6.6320  -11.9780   25.8440 C.3    42  HIS42       0.0759
     47  CG        -7.1810  -13.1630   26.5780 C.ar   42  HIS42       0.0818
     48  ND1       -7.1220  -13.2820   27.9500 N.ar   42  HIS42      -0.2268
     49  CD2       -7.8040  -14.2790   26.1310 C.ar   42  HIS42       0.1154
     50  CE1       -7.6840  -14.4210   28.3160 C.ar   42  HIS42       0.1986
     51  NE2       -8.1040  -15.0460   27.2310 N.ar   42  HIS42      -0.2212
     52  N         -7.0620   -9.0080   24.3490 N.am   43  LEU43      -0.1980
     53  CA        -6.3820   -7.8770   23.7250 C.3    43  LEU43       0.1596
     54  C         -7.0410   -6.5180   23.9650 C.2    43  LEU43       0.2287
     55  O         -6.3490   -5.5180   24.1390 O.2    43  LEU43      -0.2864
     56  CB        -6.2420   -8.1120   22.2150 C.3    43  LEU43       0.0297
     57  CG        -5.2960   -9.2330   21.7700 C.3    43  LEU43       0.0022
     58  CD1       -5.4330   -9.4680   20.2740 C.3    43  LEU43       0.0001
     59  CD2       -3.8620   -8.8630   22.1280 C.3    43  LEU43       0.0001
     60  N        -15.2250  -12.9150   31.0660 N.3    49  TYR49      -0.1241
     61  CA       -15.2810  -13.3900   29.6880 C.3    49  TYR49       0.1605
     62  C        -16.6770  -13.4340   29.0610 C.2    49  TYR49       0.2264
     63  O        -17.0420  -12.5540   28.2820 O.2    49  TYR49      -0.2867
     64  CB       -14.6540  -14.7840   29.6020 C.3    49  TYR49       0.0534
     65  CG       -14.6540  -15.3620   28.2080 C.ar   49  TYR49      -0.0201
     66  CD1      -13.7710  -14.8910   27.2360 C.ar   49  TYR49      -0.0009
     67  CD2      -15.5550  -16.3650   27.8510 C.ar   49  TYR49      -0.0009
     68  CE1      -13.7840  -15.4060   25.9410 C.ar   49  TYR49       0.0417
     69  CE2      -15.5780  -16.8850   26.5600 C.ar   49  TYR49       0.0417
     70  CZ       -14.6920  -16.4030   25.6110 C.ar   49  TYR49       0.1957
     71  OH       -14.7160  -16.9180   24.3340 O.3    49  TYR49      -0.2866
     72  N        -12.9170  -30.2590   21.2970 N.3    84  ARG84      -0.1245
     73  CA       -12.1070  -29.4900   22.2330 C.3    84  ARG84       0.1563
     74  C        -12.3700  -30.0570   23.6340 C.2    84  ARG84       0.2260
     75  O        -13.1840  -30.9670   23.7890 O.2    84  ARG84      -0.2867
     76  CB       -12.4830  -28.0090   22.1630 C.3    84  ARG84       0.0307
     77  CG       -11.8790  -27.2770   20.9710 C.3    84  ARG84       0.0489
     78  CD       -10.3960  -27.0020   21.1830 C.3    84  ARG84       0.2205
     79  NE        -9.8230  -26.1630   20.1330 N.pl3  84  ARG84      -0.0865
     80  CZ        -8.5670  -25.7220   20.1420 C.cat  84  ARG84       0.5346
     81  NH1       -7.7610  -26.0420   21.1460 N.pl3  84  ARG84       0.1354
     82  NH2       -8.1120  -24.9640   19.1510 N.pl3  84  ARG84       0.1354
     83  N        -14.2380  -26.7070   27.9150 N.3    88  TYR88      -0.1241
     84  CA       -14.4420  -25.8150   26.7790 C.3    88  TYR88       0.1605
     85  C        -15.8560  -26.0410   26.2480 C.2    88  TYR88       0.2264
     86  O        -16.5290  -25.1060   25.8190 O.2    88  TYR88      -0.2867
     87  CB       -13.4110  -26.1550   25.7030 C.3    88  TYR88       0.0534
     88  CG       -13.3990  -25.2790   24.4700 C.ar   88  TYR88      -0.0201
     89  CD1      -12.5010  -24.2160   24.3540 C.ar   88  TYR88      -0.0009
     90  CD2      -14.2120  -25.5760   23.3760 C.ar   88  TYR88      -0.0009
     91  CE1      -12.4020  -23.4810   23.1730 C.ar   88  TYR88       0.0417
     92  CE2      -14.1220  -24.8490   22.1930 C.ar   88  TYR88       0.0417
     93  CZ       -13.2120  -23.8080   22.0970 C.ar   88  TYR88       0.1957
     94  OH       -13.0830  -23.1270   20.9120 O.3    88  TYR88      -0.2866
     95  N         -0.7570  -16.0290   13.8420 N.3   289  ILE289     -0.1245
     96  CA        -1.9490  -15.4020   13.2860 C.3   289  ILE289      0.1561
     97  C         -1.7090  -14.9580   11.8490 C.2   289  ILE289      0.2260
     98  O         -0.7310  -14.2810   11.5430 O.2   289  ILE289     -0.2867
     99  CB        -2.4070  -14.1920   14.1400 C.3   289  ILE289      0.0252
    100  CG1       -2.7360  -14.6630   15.5630 C.3   289  ILE289      0.0019
    101  CG2       -3.6510  -13.5560   13.5250 C.3   289  ILE289      0.0019
    102  CD1       -3.0660  -13.5450   16.5230 C.3   289  ILE289      0.0001
@<TRIPOS>BOND
     1    98    97    2
     2    97    96    1
     3    96    95    1
     4    96    99    1
     5   101    99    1
     6     7     6   ar
     7    99   100    1
     8     5     6    1
     9     5     2    1
    10     6     8   ar
    11    40    39    1
    12   100   102    1
    13     1     2    1
    14     2     3    1
    15    41    39    1
    16    39    38    2
    17     4     3    2
    18     3     9   am
    19     9    10    1
    20    38    37    1
    21    37    36    1
    22    10    11    1
    23    36    35    1
    24    11    12    2
    25    11    13   am
    26    82    80    1
    27    13    14    1
    28    35    32    1
    29    79    80    2
    30    79    78    1
    31    80    81    1
    32    58    57    1
    33    18    17    1
    34    94    93    1
    35    77    78    1
    36    77    76    1
    37    14    17    1
    38    14    15    1
    39    72    73    1
    40    32    33    1
    41    32    31    1
    42    33    34    2
    43    17    19    1
    44    31    22   am
    45    57    59    1
    46    57    56    1
    47    15    20   am
    48    15    16    2
    49    93    92   ar
    50    93    91   ar
    51    20    21    1
    52    76    73    1
    53    92    90   ar
    54    56    53    1
    55    73    74    1
    56    22    21    1
    57    22    23    2
    58    24    21    1
    59    24    25    1
    60    91    89   ar
    61    90    88   ar
    62    29    28    1
    63    74    75    2
    64    26    25    1
    65    26    27    1
    66    53    54    1
    67    53    52    1
    68    54    55    2
    69    71    70    1
    70    52    44   am
    71    89    88   ar
    72    88    87    1
    73    28    27    2
    74    28    30    1
    75    44    43    1
    76    44    45    2
    77    42    43    1
    78    70    68   ar
    79    70    69   ar
    80    87    84    1
    81    86    85    2
    82    46    43    1
    83    46    47    1
    84    68    66   ar
    85    49    47   ar
    86    49    51   ar
    87    85    84    1
    88    69    67   ar
    89    47    48   ar
    90    84    83    1
    91    51    50   ar
    92    66    65   ar
    93    67    65   ar
    94    48    50   ar
    95    65    64    1
    96    63    62    2
    97    62    61    1
    98    64    61    1
    99    61    60    1
