@<TRIPOS>MOLECULE
tmp/3wqmA01.pdb
 191 185 0 0 0
SMALL
GASTEIGER

@<TRIPOS>ATOM
      1  N        -19.5770  -14.4850   14.7770 N.3    34  PHE34      -0.1227
      2  CA       -18.8800  -13.9520   15.9330 C.3    34  PHE34       0.1736
      3  C        -17.7530  -14.9230   16.2030 C.2    34  PHE34       0.2595
      4  O        -17.9830  -16.0790   16.5550 O.2    34  PHE34      -0.2718
      5  CB       -19.8190  -13.8420   17.1290 C.3    34  PHE34       0.0547
      6  CG       -20.6820  -12.6230   17.0840 C.ar   34  PHE34      -0.0202
      7  CD1      -20.1410  -11.3710   17.3450 C.ar   34  PHE34      -0.0042
      8  CD2      -22.0180  -12.7130   16.7290 C.ar   34  PHE34      -0.0042
      9  CE1      -20.9210  -10.2250   17.2510 C.ar   34  PHE34      -0.0003
     10  CE2      -22.8060  -11.5740   16.6320 C.ar   34  PHE34      -0.0003
     11  CZ       -22.2590  -10.3290   16.8920 C.ar   34  PHE34      -0.0000
     12  N        -16.5300  -14.4510   16.0030 N.am   35  ASP35      -0.1960
     13  CA       -15.3540  -15.2820   16.1920 C.3    35  ASP35       0.1840
     14  C        -14.2180  -14.3970   16.6910 C.2    35  ASP35       0.2623
     15  O        -14.3260  -13.1690   16.6700 O.2    35  ASP35      -0.2715
     16  CB       -14.9850  -15.9420   14.8580 C.3    35  ASP35       0.1450
     17  CG       -14.0410  -17.1180   15.0280 C.2    35  ASP35       0.3671
     18  OD1      -13.6930  -17.7550   14.0090 O.co2  35  ASP35      -0.2456
     19  OD2      -13.6500  -17.4090   16.1800 O.co2  35  ASP35      -0.2456
     20  N        -13.1310  -15.0180   17.1340 N.am   36  GLY36      -0.1940
     21  CA       -12.0100  -14.2520   17.6450 C.3    36  GLY36       0.2014
     22  C        -12.3240  -13.7340   19.0370 C.2    36  GLY36       0.2640
     23  O        -11.7080  -12.7890   19.5140 O.2    36  GLY36      -0.2714
     24  N        -13.2920  -14.3650   19.6910 N.am   37  THR37      -0.1936
     25  CA       -13.7120  -13.9760   21.0340 C.3    37  THR37       0.2028
     26  C        -12.5520  -13.9160   22.0370 C.2    37  THR37       0.2642
     27  O        -12.3530  -12.9050   22.7120 O.2    37  THR37      -0.2714
     28  CB       -14.7550  -14.9620   21.5850 C.3    37  THR37       0.1808
     29  OG1      -15.6750  -15.3200   20.5470 O.3    37  THR37      -0.2208
     30  CG2      -15.5230  -14.3300   22.7350 C.3    37  THR37       0.0379
     31  N        -11.7980  -15.0070   22.1350 N.am   38  ARG38      -0.1977
     32  CA       -10.6750  -15.0880   23.0630 C.3    38  ARG38       0.1597
     33  C         -9.6180  -14.0070   22.8760 C.2    38  ARG38       0.2287
     34  O         -9.2470  -13.3270   23.8320 O.2    38  ARG38      -0.2864
     35  CB       -10.0110  -16.4600   22.9580 C.3    38  ARG38       0.0334
     36  CG       -10.4260  -17.4490   24.0310 C.3    38  ARG38       0.0492
     37  CD        -9.8730  -18.8200   23.6940 C.3    38  ARG38       0.2205
     38  NE        -9.6200  -19.6580   24.8610 N.pl3  38  ARG38      -0.0865
     39  CZ        -9.1650  -20.9060   24.7910 C.cat  38  ARG38       0.5346
     40  NH1       -8.9210  -21.4590   23.6080 N.pl3  38  ARG38       0.1354
     41  NH2       -8.9380  -21.5980   25.9020 N.pl3  38  ARG38       0.1354
     42  N        -15.2250  -12.9150   31.0660 N.3    49  TYR49      -0.1227
     43  CA       -15.2810  -13.3900   29.6880 C.3    49  TYR49       0.1736
     44  C        -16.6770  -13.4340   29.0610 C.2    49  TYR49       0.2595
     45  O        -17.0420  -12.5540   28.2820 O.2    49  TYR49      -0.2718
     46  CB       -14.6540  -14.7840   29.6020 C.3    49  TYR49       0.0548
     47  CG       -14.6540  -15.3620   28.2080 C.ar   49  TYR49      -0.0200
     48  CD1      -13.7710  -14.8910   27.2360 C.ar   49  TYR49      -0.0009
     49  CD2      -15.5550  -16.3650   27.8510 C.ar   49  TYR49      -0.0009
     50  CE1      -13.7840  -15.4060   25.9410 C.ar   49  TYR49       0.0417
     51  CE2      -15.5780  -16.8850   26.5600 C.ar   49  TYR49       0.0417
     52  CZ       -14.6920  -16.4030   25.6110 C.ar   49  TYR49       0.1957
     53  OH       -14.7160  -16.9180   24.3340 O.3    49  TYR49      -0.2866
     54  N        -17.4430  -14.4680   29.3980 N.am   50  GLN50      -0.1979
     55  CA       -18.7870  -14.6550   28.8560 C.3    50  GLN50       0.1601
     56  C        -19.6340  -13.3870   28.8000 C.2    50  GLN50       0.2287
     57  O        -20.3190  -13.1360   27.8090 O.2    50  GLN50      -0.2864
     58  CB       -19.5430  -15.7210   29.6550 C.3    50  GLN50       0.0394
     59  CG       -18.8340  -17.0630   29.7470 C.3    50  GLN50       0.0908
     60  CD       -19.7960  -18.2150   29.9680 C.2    50  GLN50       0.2608
     61  OE1      -20.6460  -18.1650   30.8560 O.2    50  GLN50      -0.2717
     62  NE2      -19.6630  -19.2640   29.1620 N.am   50  GLN50      -0.0878
     63  N        -18.1740  -10.7610   26.1550 N.3    53  ALA53      -0.1231
     64  CA       -18.4960  -11.1940   24.8050 C.3    53  ALA53       0.1694
     65  C        -19.9870  -11.0240   24.5320 C.2    53  ALA53       0.2591
     66  O        -20.3810  -10.6280   23.4340 O.2    53  ALA53      -0.2718
     67  CB       -18.0930  -12.6460   24.6150 C.3    53  ALA53       0.0304
     68  N        -20.8040  -11.3300   25.5370 N.am   54  LEU54      -0.1980
     69  CA       -22.2530  -11.2080   25.4240 C.3    54  LEU54       0.1596
     70  C        -22.6660   -9.7660   25.1500 C.2    54  LEU54       0.2287
     71  O        -23.4390   -9.4950   24.2330 O.2    54  LEU54      -0.2864
     72  CB       -22.9260  -11.6960   26.7110 C.3    54  LEU54       0.0297
     73  CG       -24.4280  -11.4240   26.8550 C.3    54  LEU54       0.0022
     74  CD1      -25.2010  -12.1410   25.7570 C.3    54  LEU54       0.0001
     75  CD2      -24.9000  -11.8910   28.2270 C.3    54  LEU54       0.0001
     76  N        -21.3640   -8.5330   21.8090 N.3    57  SER57      -0.1217
     77  CA       -22.1820   -9.1290   20.7610 C.3    57  SER57       0.1889
     78  C        -23.4640   -8.3360   20.5930 C.2    57  SER57       0.2288
     79  O        -23.9090   -8.0890   19.4720 O.2    57  SER57      -0.2866
     80  CB       -22.5280  -10.5680   21.1240 C.3    57  SER57       0.2089
     81  OG       -21.3530  -11.3420   21.2010 O.3    57  SER57      -0.2183
     82  N        -22.2810  -19.0250   15.4110 N.3    76  ILE76      -0.1231
     83  CA       -21.6370  -18.7920   16.7060 C.3    76  ILE76       0.1692
     84  C        -20.8990  -20.0050   17.2520 C.2    76  ILE76       0.2592
     85  O        -20.0100  -19.8660   18.0870 O.2    76  ILE76      -0.2718
     86  CB       -22.6610  -18.3490   17.7770 C.3    76  ILE76       0.0266
     87  CG1      -23.9110  -19.2190   17.6630 C.3    76  ILE76       0.0019
     88  CG2      -23.0090  -16.8880   17.6080 C.3    76  ILE76       0.0020
     89  CD1      -24.8950  -19.0230   18.7890 C.3    76  ILE76       0.0001
     90  N        -21.2800  -21.1950   16.8030 N.am   77  PHE77      -0.1962
     91  CA       -20.6370  -22.4220   17.2530 C.3    77  PHE77       0.1771
     92  C        -20.6640  -23.4640   16.1270 C.2    77  PHE77       0.2620
     93  O        -21.7290  -23.7700   15.5780 O.2    77  PHE77      -0.2715
     94  CB       -21.3760  -22.9940   18.4930 C.3    77  PHE77       0.0574
     95  CG       -21.3330  -22.1070   19.7280 C.ar   77  PHE77      -0.0200
     96  CD1      -20.1810  -22.0080   20.5120 C.ar   77  PHE77      -0.0042
     97  CD2      -22.4670  -21.4020   20.1260 C.ar   77  PHE77      -0.0042
     98  CE1      -20.1680  -21.2190   21.6780 C.ar   77  PHE77      -0.0003
     99  CE2      -22.4630  -20.6080   21.2890 C.ar   77  PHE77      -0.0003
    100  CZ       -21.3070  -20.5200   22.0660 C.ar   77  PHE77      -0.0000
    101  N        -19.4980  -23.9900   15.7660 N.am   78  SER78      -0.1950
    102  CA       -19.4290  -25.0090   14.7160 C.3    78  SER78       0.1924
    103  C        -18.8510  -26.3210   15.2460 C.2    78  SER78       0.2314
    104  O        -18.2390  -26.3370   16.3110 O.2    78  SER78      -0.2863
    105  CB       -18.6020  -24.4910   13.5380 C.3    78  SER78       0.2116
    106  OG       -19.2420  -24.7880   12.3040 O.3    78  SER78      -0.2180
    107  N        -16.2450  -28.1390   15.1270 N.3    80  ASP80      -0.1225
    108  CA       -14.9590  -28.1060   15.8080 C.3    80  ASP80       0.1805
    109  C        -14.9920  -28.2160   17.3110 C.2    80  ASP80       0.2597
    110  O        -14.2160  -28.9780   17.9040 O.2    80  ASP80      -0.2718
    111  CB       -14.2380  -26.8150   15.4630 C.3    80  ASP80       0.1424
    112  CG       -13.8490  -26.7900   14.0460 C.2    80  ASP80       0.3668
    113  OD1      -14.2190  -27.8040   13.4070 O.co2  80  ASP80      -0.2456
    114  OD2      -13.2040  -25.8070   13.5670 O.co2  80  ASP80      -0.2456
    115  N        -15.8700  -27.4410   17.9410 N.am   81  LEU81      -0.1979
    116  CA       -15.8950  -27.4160   19.4110 C.3    81  LEU81       0.1596
    117  C        -16.1090  -28.7350   20.1400 C.2    81  LEU81       0.2287
    118  O        -15.6680  -28.8830   21.2910 O.2    81  LEU81      -0.2864
    119  CB       -16.8960  -26.3650   19.8970 C.3    81  LEU81       0.0297
    120  CG       -18.4050  -26.4790   19.8310 C.3    81  LEU81       0.0022
    121  CD1      -18.9670  -27.2530   21.0170 C.3    81  LEU81       0.0001
    122  CD2      -18.9150  -25.0520   19.9080 C.3    81  LEU81       0.0001
    123  N        -14.2380  -26.7070   27.9150 N.3    88  TYR88      -0.1241
    124  CA       -14.4420  -25.8150   26.7790 C.3    88  TYR88       0.1605
    125  C        -15.8560  -26.0410   26.2480 C.2    88  TYR88       0.2264
    126  O        -16.5290  -25.1060   25.8190 O.2    88  TYR88      -0.2867
    127  CB       -13.4110  -26.1550   25.7030 C.3    88  TYR88       0.0534
    128  CG       -13.3990  -25.2790   24.4700 C.ar   88  TYR88      -0.0201
    129  CD1      -12.5010  -24.2160   24.3540 C.ar   88  TYR88      -0.0009
    130  CD2      -14.2120  -25.5760   23.3760 C.ar   88  TYR88      -0.0009
    131  CE1      -12.4020  -23.4810   23.1730 C.ar   88  TYR88       0.0417
    132  CE2      -14.1220  -24.8490   22.1930 C.ar   88  TYR88       0.0417
    133  CZ       -13.2120  -23.8080   22.0970 C.ar   88  TYR88       0.1957
    134  OH       -13.0830  -23.1270   20.9120 O.3    88  TYR88      -0.2866
    135  N        -18.3800  -24.6030   28.6970 N.3    91  GLN91      -0.1231
    136  CA       -18.2840  -23.1620   28.5110 C.3    91  GLN91       0.1698
    137  C        -19.1740  -22.7130   27.3510 C.2    91  GLN91       0.2592
    138  O        -19.8680  -21.6990   27.4410 O.2    91  GLN91      -0.2718
    139  CB       -16.8310  -22.7880   28.2240 C.3    91  GLN91       0.0381
    140  CG       -16.1950  -21.8910   29.2600 C.3    91  GLN91       0.0905
    141  CD       -14.6870  -21.8660   29.1350 C.2    91  GLN91       0.2608
    142  OE1      -14.0080  -22.8320   29.4880 O.2    91  GLN91      -0.2717
    143  NE2      -14.1540  -20.7650   28.6160 N.am   91  GLN91      -0.0878
    144  N        -19.1440  -23.4830   26.2650 N.am   92  ALA92      -0.1980
    145  CA       -19.9410  -23.1880   25.0810 C.3    92  ALA92       0.1597
    146  C        -21.4340  -23.2380   25.3900 C.2    92  ALA92       0.2287
    147  O        -22.1670  -22.2880   25.1050 O.2    92  ALA92      -0.2864
    148  CB       -19.6090  -24.1740   23.9730 C.3    92  ALA92       0.0319
    149  N        -22.6140  -20.3000   27.1010 N.3    95  GLY95      -0.1225
    150  CA       -22.7630  -19.1580   26.2190 C.3    95  GLY95       0.1811
    151  C        -24.0400  -19.3080   25.4120 C.2    95  GLY95       0.2280
    152  O        -24.7490  -18.3320   25.1610 O.2    95  GLY95      -0.2866
    153  N        -26.9460  -18.3790   27.4500 N.3    98  LEU98      -0.1231
    154  CA       -27.0080  -16.9250   27.6060 C.3    98  LEU98       0.1693
    155  C        -27.8540  -16.2570   26.5280 C.2    98  LEU98       0.2591
    156  O        -28.7250  -15.4350   26.8220 O.2    98  LEU98      -0.2718
    157  CB       -25.6050  -16.3100   27.5560 C.3    98  LEU98       0.0284
    158  CG       -24.6760  -16.4900   28.7530 C.3    98  LEU98       0.0019
    159  CD1      -23.3650  -15.7650   28.4760 C.3    98  LEU98       0.0001
    160  CD2      -25.3390  -15.9420   30.0110 C.3    98  LEU98       0.0001
    161  N        -27.5740  -16.6060   25.2770 N.am   99  LEU99      -0.1980
    162  CA       -28.2840  -16.0360   24.1380 C.3    99  LEU99       0.1596
    163  C        -29.7890  -16.2370   24.2420 C.2    99  LEU99       0.2287
    164  O        -30.5650  -15.4570   23.6940 O.2    99  LEU99      -0.2864
    165  CB       -27.7890  -16.6770   22.8410 C.3    99  LEU99       0.0297
    166  CG       -26.2900  -16.6010   22.5580 C.3    99  LEU99       0.0022
    167  CD1      -25.9800  -17.4450   21.3390 C.3    99  LEU99       0.0001
    168  CD2      -25.8640  -15.1600   22.3470 C.3    99  LEU99       0.0001
    169  N        -29.2030  -17.6200   14.7700 N.3   156  PHE156     -0.1241
    170  CA       -27.9660  -18.1000   15.3760 C.3   156  PHE156      0.1605
    171  C        -27.5990  -19.4610   14.8410 C.2   156  PHE156      0.2264
    172  O        -28.4080  -20.3930   14.8780 O.2   156  PHE156     -0.2867
    173  CB       -28.0960  -18.1750   16.9000 C.3   156  PHE156      0.0534
    174  CG       -27.9260  -16.8520   17.5820 C.ar  156  PHE156     -0.0203
    175  CD1      -26.7760  -16.0970   17.3710 C.ar  156  PHE156     -0.0042
    176  CD2      -28.9060  -16.3640   18.4380 C.ar  156  PHE156     -0.0042
    177  CE1      -26.6020  -14.8640   18.0090 C.ar  156  PHE156     -0.0003
    178  CE2      -28.7500  -15.1390   19.0810 C.ar  156  PHE156     -0.0003
    179  CZ       -27.5940  -14.3830   18.8690 C.ar  156  PHE156     -0.0000
    180  N        -15.7090   -8.5720   16.9720 N.3   231  TYR231     -0.1241
    181  CA       -15.9760   -7.6110   18.0400 C.3   231  TYR231      0.1605
    182  C        -15.3790   -6.2090   17.8830 C.2   231  TYR231      0.2264
    183  O        -15.8100   -5.2770   18.5540 O.2   231  TYR231     -0.2867
    184  CB       -15.5330   -8.2240   19.3740 C.3   231  TYR231      0.0534
    185  CG       -16.1610   -9.5770   19.6450 C.ar  231  TYR231     -0.0201
    186  CD1      -17.3870   -9.6840   20.3020 C.ar  231  TYR231     -0.0009
    187  CD2      -15.5380  -10.7530   19.2200 C.ar  231  TYR231     -0.0009
    188  CE1      -17.9800  -10.9300   20.5330 C.ar  231  TYR231      0.0417
    189  CE2      -16.1230  -12.0050   19.4450 C.ar  231  TYR231      0.0417
    190  CZ       -17.3410  -12.0830   20.1020 C.ar  231  TYR231      0.1957
    191  OH       -17.9130  -13.3140   20.3290 O.3   231  TYR231     -0.2866
@<TRIPOS>BOND
     1   106   105    1
     2   113   112   ar
     3   105   102    1
     4   114   112   ar
     5    18    17   ar
     6   112   111    1
     7   102   103    1
     8   102   101    1
     9   169   170    1
    10     1     2    1
    11   171   172    2
    12   171   170    1
    13    16    17    1
    14    16    13    1
    15    17    19   ar
    16   107   108    1
    17   103   104    2
    18   170   173    1
    19    82    83    1
    20   111   108    1
    21    93    92    2
    22   101    92   am
    23   108   109    1
    24     2     3    1
    25     2     5    1
    26    12    13    1
    27    12     3   am
    28    92    91    1
    29    13    14    1
    30     3     4    2
    31    10     8   ar
    32    10    11   ar
    33    15    14    2
    34    14    20   am
    35    83    84    1
    36    83    86    1
    37     8     6   ar
    38    90    84   am
    39    90    91    1
    40    11     9   ar
    41   173   174    1
    42   180   181    1
    43     6     5    1
    44     6     7   ar
    45    20    21    1
    46     9     7   ar
    47    84    85    2
    48    91    94    1
    49   109   110    2
    50   109   115   am
    51   175   174   ar
    52   175   177   ar
    53   174   176   ar
    54    88    86    1
    55    21    22    1
    56    87    86    1
    57    87    89    1
    58   182   181    1
    59   182   183    2
    60   115   116    1
    61   177   179   ar
    62   181   184    1
    63   176   178   ar
    64    94    95    1
    65   179   178   ar
    66    22    23    2
    67    22    24   am
    68   187   189   ar
    69   187   185   ar
    70   184   185    1
    71   116   119    1
    72   116   117    1
    73   189   190   ar
    74    79    78    2
    75   185   186   ar
    76    24    25    1
    77    95    97   ar
    78    95    96   ar
    79   120   119    1
    80   120   122    1
    81   120   121    1
    82   190   191    1
    83   190   188   ar
    84    97    99   ar
    85   117   118    2
    86   186   188   ar
    87    96    98   ar
    88    29    28    1
    89    78    77    1
    90    77    80    1
    91    77    76    1
    92   134   133    1
    93    25    28    1
    94    25    26    1
    95    80    81    1
    96    99   100   ar
    97   167   166    1
    98    28    30    1
    99    98   100   ar
   100    26    31   am
   101    26    27    2
   102   133   132   ar
   103   133   131   ar
   104    31    32    1
   105   132   130   ar
   106   168   166    1
   107   166   165    1
   108   165   162    1
   109    33    32    1
   110    33    34    2
   111    35    32    1
   112    35    36    1
   113   131   129   ar
   114   130   128   ar
   115    66    65    2
   116    40    39    1
   117   164   163    2
   118    37    36    1
   119    37    38    1
   120   148   145    1
   121   162   163    1
   122   162   161    1
   123    71    70    2
   124    53    52    1
   125   129   128   ar
   126   128   127    1
   127    65    64    1
   128    65    68   am
   129    67    64    1
   130    39    38    2
   131    39    41    1
   132    64    63    1
   133   145   146    1
   134   145   144    1
   135   147   146    2
   136    70    69    1
   137   152   151    2
   138   161   155   am
   139   151   150    1
   140    69    68    1
   141    69    72    1
   142    52    50   ar
   143    52    51   ar
   144   127   124    1
   145    74    73    1
   146   126   125    2
   147    50    48   ar
   148   150   149    1
   149   125   124    1
   150   144   137   am
   151   155   156    2
   152   155   154    1
   153    51    49   ar
   154    72    73    1
   155   124   123    1
   156    73    75    1
   157    48    47   ar
   158   137   138    2
   159   137   136    1
   160   153   154    1
   161   157   154    1
   162   157   158    1
   163    57    56    2
   164    49    47   ar
   165    47    46    1
   166   139   136    1
   167   139   140    1
   168    45    44    2
   169   159   158    1
   170   136   135    1
   171   143   141   am
   172   158   160    1
   173    56    55    1
   174    55    54    1
   175    55    58    1
   176    44    54   am
   177    44    43    1
   178   141   140    1
   179   141   142    2
   180    62    60   am
   181    46    43    1
   182    58    59    1
   183    43    42    1
   184    59    60    1
   185    60    61    2
