@<TRIPOS>MOLECULE
tmp/3wqqA01.pdb
 158 147 0 0 0
SMALL
GASTEIGER

@<TRIPOS>ATOM
      1  N         -2.0470   15.8320   10.0840 N.3   129  LYS129     -0.1245
      2  CA        -2.3080   14.6690    9.2550 C.3   129  LYS129      0.1561
      3  C         -1.9060   14.8740    7.8120 C.2   129  LYS129      0.2260
      4  O         -1.6710   13.8990    7.1000 O.2   129  LYS129     -0.2867
      5  CB        -3.7800   14.2730    9.3190 C.3   129  LYS129      0.0271
      6  CG        -4.7330   15.3400    8.7930 C.3   129  LYS129      0.0035
      7  CD        -6.1830   15.0260    9.1810 C.3   129  LYS129      0.0206
      8  CE        -6.5430   15.7030   10.4880 C.3   129  LYS129      0.1093
      9  NZ        -7.8520   15.2030   10.8970 N.3   129  LYS129     -0.1314
     10  N         -4.1400   13.1380   16.3940 N.3   155  ASP155     -0.1225
     11  CA        -5.4720   13.2140   15.7790 C.3   155  ASP155      0.1805
     12  C         -6.4280   12.3060   16.5660 C.2   155  ASP155      0.2598
     13  O         -6.1350   11.1230   16.7740 O.2   155  ASP155     -0.2718
     14  CB        -5.3620   12.7970   14.3000 C.3   155  ASP155      0.1424
     15  CG        -6.5460   13.2270   13.4670 C.2   155  ASP155      0.3668
     16  OD1       -7.4710   13.9160   13.9620 O.co2 155  ASP155     -0.2456
     17  OD2       -6.5440   12.8560   12.2760 O.co2 155  ASP155     -0.2456
     18  N         -7.5560   12.8570   17.0130 N.am  156  SER156     -0.1938
     19  CA        -8.3930   12.2240   18.0570 C.3   156  SER156      0.2055
     20  C         -8.7880   10.7790   17.7810 C.2   156  SER156      0.2642
     21  O         -8.7130    9.9390   18.6880 O.2   156  SER156     -0.2714
     22  CB        -9.6490   13.0580   18.3410 C.3   156  SER156      0.2130
     23  OG       -10.5540   12.9570   17.2490 O.3   156  SER156     -0.2179
     24  N         -9.1970   10.4870   16.5410 N.am  157  GLU157     -0.1976
     25  CA        -9.5690    9.1270   16.1530 C.3   157  GLU157      0.1602
     26  C         -8.3860    8.1870   16.2280 C.2   157  GLU157      0.2287
     27  O         -8.5280    7.0250   16.5880 O.2   157  GLU157     -0.2864
     28  CB       -10.1470    9.0740   14.7220 C.3   157  GLU157      0.0415
     29  CG       -11.2970   10.0190   14.4540 C.3   157  GLU157      0.1163
     30  CD       -10.8730   11.4790   14.3130 C.2   157  GLU157      0.3649
     31  OE1       -9.6540   11.8090   14.3120 O.co2 157  GLU157     -0.2457
     32  OE2      -11.7690   12.3240   14.1840 O.co2 157  GLU157     -0.2457
     33  N        -16.8770    9.8740   13.1050 N.3   193  SER193     -0.1202
     34  CA       -16.9470   11.2250   12.5860 C.3   193  SER193      0.2020
     35  C        -18.0980   12.0020   13.2080 C.2   193  SER193      0.2619
     36  O        -19.1760   11.4520   13.4100 O.2   193  SER193     -0.2717
     37  CB       -17.1290   11.1950   11.0650 C.3   193  SER193      0.2103
     38  OG       -17.0610   12.5150   10.5710 O.3   193  SER193     -0.2182
     39  N        -17.8700   13.2830   13.4670 N.am  194  SER194     -0.1951
     40  CA       -18.9350   14.1930   13.8350 C.3   194  SER194      0.1924
     41  C        -19.9800   14.3270   12.7140 C.2   194  SER194      0.2314
     42  O        -21.1370   14.5920   12.9880 O.2   194  SER194     -0.2863
     43  CB       -18.3550   15.5700   14.1710 C.3   194  SER194      0.2116
     44  OG       -18.2650   16.3990   13.0130 O.3   194  SER194     -0.2180
     45  N        -19.8500   16.7040   10.5660 N.3   196  GLY196     -0.1225
     46  CA       -19.7620   18.1240   10.2070 C.3   196  GLY196      0.1811
     47  C        -21.0920   18.8490   10.2760 C.2   196  GLY196      0.2280
     48  O        -22.1130   18.2450   10.5900 O.2   196  GLY196     -0.2866
     49  N        -19.7740   24.0860   18.0370 N.3   219  LYS219     -0.1231
     50  CA       -19.2930   22.7070   18.2920 C.3   219  LYS219      0.1693
     51  C        -17.9950   22.3480   17.5490 C.2   219  LYS219      0.2592
     52  O        -17.2590   21.4370   17.9610 O.2   219  LYS219     -0.2718
     53  CB       -20.3760   21.6230   18.0860 C.3   219  LYS219      0.0285
     54  CG       -21.5670   21.9870   17.2250 C.3   219  LYS219      0.0035
     55  CD       -22.7080   20.9900   17.4770 C.3   219  LYS219      0.0206
     56  CE       -24.0530   21.4630   16.9010 C.3   219  LYS219      0.1093
     57  NZ       -24.2790   21.0200   15.4820 N.3   219  LYS219     -0.1314
     58  N        -17.7140   23.0870   16.4770 N.am  220  TRP220     -0.1976
     59  CA       -16.4830   22.9060   15.7070 C.3   220  TRP220      0.1640
     60  C        -15.4240   23.9450   16.1160 C.2   220  TRP220      0.2290
     61  O        -15.3670   25.0520   15.5710 O.2   220  TRP220     -0.2864
     62  CB       -16.7990   22.8580   14.1910 C.3   220  TRP220      0.0576
     63  CG       -17.5980   21.5940   13.8550 C.ar  220  TRP220      0.0006
     64  CD1      -17.0910   20.3420   13.6080 C.ar  220  TRP220      0.0946
     65  CD2      -19.0320   21.4530   13.8120 C.ar  220  TRP220      0.0152
     66  NE1      -18.1080   19.4450   13.3990 N.ar  220  TRP220     -0.2442
     67  CE2      -19.3100   20.0960   13.5130 C.ar  220  TRP220      0.0810
     68  CE3      -20.1050   22.3430   13.9740 C.ar  220  TRP220      0.0012
     69  CZ2      -20.6160   19.6080   13.3770 C.ar  220  TRP220      0.0191
     70  CZ3      -21.4020   21.8550   13.8340 C.ar  220  TRP220      0.0001
     71  CH2      -21.6450   20.5000   13.5440 C.ar  220  TRP220      0.0015
     72  N        -11.9660   24.3000   15.9660 N.3   222  MET222     -0.1245
     73  CA       -10.6170   24.1060   15.4300 C.3   222  MET222      0.1570
     74  C        -10.2500   25.2150   14.4640 C.2   222  MET222      0.2261
     75  O        -11.0180   26.1470   14.2830 O.2   222  MET222     -0.2867
     76  CB       -10.4610   22.7490   14.7210 C.3   222  MET222      0.0387
     77  CG       -11.4010   21.6320   15.1050 C.3   222  MET222      0.0595
     78  SD       -12.4700   21.2680   13.7120 S.3   222  MET222     -0.1393
     79  CE       -13.7710   20.3600   14.5280 C.3   222  MET222      0.0692
     80  N         -9.2830   22.8160    8.8360 N.3   226  ILE226     -0.1245
     81  CA        -9.8850   21.5390    9.2360 C.3   226  ILE226      0.1561
     82  C        -11.4180   21.6670    9.4010 C.2   226  ILE226      0.2260
     83  O        -12.1390   20.7090    9.1630 O.2   226  ILE226     -0.2867
     84  CB        -9.1810   20.8930   10.4680 C.3   226  ILE226      0.0252
     85  CG1       -9.8310   19.5480   10.8340 C.3   226  ILE226      0.0019
     86  CG2       -9.1470   21.8660   11.6600 C.3   226  ILE226      0.0019
     87  CD1       -9.0050   18.7030   11.7910 C.3   226  ILE226      0.0001
     88  N        -14.0820   19.3560    7.6470 N.3   230  SER230     -0.1217
     89  CA       -15.0860   18.6320    8.4100 C.3   230  SER230      0.1889
     90  C        -16.4340   18.7850    7.7530 C.2   230  SER230      0.2288
     91  O        -17.2330   17.8660    7.7880 O.2   230  SER230     -0.2866
     92  CB       -15.1390   19.1310    9.8560 C.3   230  SER230      0.2089
     93  OG       -16.1080   18.4000   10.5850 O.3   230  SER230     -0.2183
     94  N        -16.3930   16.5360    4.7850 N.3   233  MET233     -0.1245
     95  CA       -15.9570   15.1930    5.2160 C.3   233  MET233      0.1570
     96  C        -14.6520   14.7580    4.5300 C.2   233  MET233      0.2261
     97  O        -14.2550   13.5930    4.6080 O.2   233  MET233     -0.2867
     98  CB       -17.0490   14.1370    5.0630 C.3   233  MET233      0.0387
     99  CG       -18.2910   14.3480    6.0040 C.3   233  MET233      0.0595
    100  SD       -19.2360   12.8240    6.3300 S.3   233  MET233     -0.1393
    101  CE       -18.1980   12.0890    7.5850 C.3   233  MET233      0.0692
    102  N        -11.9610   15.7520    5.6750 N.3   235  ASN235     -0.1225
    103  CA       -11.1480   15.4800    6.8670 C.3   235  ASN235      0.1785
    104  C        -11.1650   14.0100    7.1860 C.2   235  ASN235      0.2597
    105  O        -10.0990   13.4030    7.4020 O.2   235  ASN235     -0.2718
    106  CB       -11.6230   16.2680    8.0760 C.3   235  ASN235      0.1169
    107  CG       -10.7460   16.0520    9.2740 C.2   235  ASN235      0.2627
    108  OD1       -9.5460   16.3070    9.2210 O.2   235  ASN235     -0.2716
    109  ND2      -11.3300   15.5610   10.3670 N.am  235  ASN235     -0.0877
    110  N        -12.3430   13.4050    7.1760 N.am  236  LYS236     -0.1980
    111  CA       -12.4240   11.9740    7.4070 C.3   236  LYS236      0.1596
    112  C        -11.7490   11.2070    6.2670 C.2   236  LYS236      0.2287
    113  O        -11.0160   10.2470    6.5090 O.2   236  LYS236     -0.2864
    114  CB       -13.8710   11.5120    7.5870 C.3   236  LYS236      0.0298
    115  CG       -14.0050   10.2570    8.4460 C.3   236  LYS236      0.0038
    116  CD       -13.4210   10.4160    9.9070 C.3   236  LYS236      0.0206
    117  CE       -13.7280   11.7890   10.5320 C.3   236  LYS236      0.1093
    118  NZ       -13.4840   11.8390   12.0130 N.3   236  LYS236     -0.1314
    119  N         -8.2990   11.2760    7.0600 N.3   239  GLU239     -0.1245
    120  CA        -8.0650   10.3820    8.2130 C.3   239  GLU239      0.1567
    121  C         -8.1320    8.9120    7.8630 C.2   239  GLU239      0.2260
    122  O         -7.5980    8.0980    8.5830 O.2   239  GLU239     -0.2867
    123  CB        -8.9980   10.7010    9.3760 C.3   239  GLU239      0.0388
    124  CG        -8.6530   12.0200   10.0250 C.3   239  GLU239      0.1160
    125  CD        -9.6160   12.3970   11.1300 C.2   239  GLU239      0.3649
    126  OE1      -10.4630   11.5420   11.4560 O.co2 239  GLU239     -0.2457
    127  OE2       -9.5490   13.5440   11.6570 O.co2 239  GLU239     -0.2457
    128  N        -20.2340   12.4890   19.3480 N.3   262  CYS262     -0.1235
    129  CA       -18.7770   12.5930   19.4340 C.3   262  CYS262      0.1677
    130  C        -18.2490   12.1710   20.8210 C.2   262  CYS262      0.2270
    131  O        -17.3810   12.8270   21.4280 O.2   262  CYS262     -0.2867
    132  CB       -18.3330   14.0070   19.0560 C.3   262  CYS262      0.0956
    133  SG       -18.8480   14.5460   17.3560 S.3   262  CYS262     -0.0801
    134  N        -14.8220    7.9590   20.0980 N.3   265  HIS265     -0.1241
    135  CA       -13.9530    8.7050   19.1900 C.3   265  HIS265      0.1621
    136  C        -13.3820    7.8390   18.0680 C.2   265  HIS265      0.2264
    137  O        -12.9540    8.3610   17.0310 O.2   265  HIS265     -0.2867
    138  CB       -12.8590    9.4770   19.9450 C.3   265  HIS265      0.0745
    139  CG       -13.3930   10.4920   20.9070 C.ar  265  HIS265      0.0817
    140  ND1      -12.7100   10.8780   22.0400 N.ar  265  HIS265     -0.2268
    141  CD2      -14.5590   11.1770   20.9230 C.ar  265  HIS265      0.1154
    142  CE1      -13.4250   11.7700   22.7030 C.ar  265  HIS265      0.1986
    143  NE2      -14.5610   11.9540   22.0550 N.ar  265  HIS265     -0.2212
    144  N        -15.9020   15.5310   23.5840 N.3   282  PRO282     -0.2116
    145  CA       -15.1370   16.0790   22.4710 C.3   282  PRO282      0.1372
    146  C        -14.1340   17.1320   22.9330 C.2   282  PRO282      0.2244
    147  O        -14.5020   18.2750   23.1320 O.2   282  PRO282     -0.2868
    148  CB       -16.2120   16.7130   21.5780 C.3   282  PRO282      0.0268
    149  CG       -17.4960   16.6220   22.3240 C.3   282  PRO282      0.0207
    150  CD       -17.3490   15.5350   23.3180 C.3   282  PRO282      0.0892
    151  N         -9.6010   17.9380   22.7150 N.3   284  MET284     -0.1245
    152  CA        -8.3260   17.5090   22.1470 C.3   284  MET284      0.1570
    153  C         -7.2390   17.3360   23.1910 C.2   284  MET284      0.2261
    154  O         -6.2150   16.7120   22.9130 O.2   284  MET284     -0.2867
    155  CB        -7.8690   18.4680   21.0410 C.3   284  MET284      0.0387
    156  CG        -8.4910   18.1850   19.6740 C.3   284  MET284      0.0595
    157  SD        -8.2350   16.5050   19.1170 S.3   284  MET284     -0.1393
    158  CE        -6.4830   16.5050   18.7880 C.3   284  MET284      0.0692
@<TRIPOS>BOND
     1    96    97    2
     2    96    95    1
     3    94    95    1
     4    98    95    1
     5    98    99    1
     6   102   103    1
     7    99   100    1
     8   112   113    2
     9   112   111    1
    10   100   101    1
    11   103   104    1
    12   103   106    1
    13   119   120    1
    14     4     3    2
    15   110   104   am
    16   110   111    1
    17   104   105    2
    18   111   114    1
    19   114   115    1
    20    88    89    1
    21    90    91    2
    22    90    89    1
    23     3     2    1
    24   121   120    1
    25   121   122    2
    26   106   107    1
    27   120   123    1
    28    89    92    1
    29   115   116    1
    30     6     7    1
    31     6     5    1
    32    80    81    1
    33    83    82    2
    34     7     8    1
    35   108   107    2
    36    81    82    1
    37    81    84    1
    38     2     5    1
    39     2     1    1
    40   107   109   am
    41   123   124    1
    42    92    93    1
    43   116   117    1
    44   124   125    1
    45    46    47    1
    46    46    45    1
    47    47    48    2
    48    84    85    1
    49    84    86    1
    50     8     9    1
    51   117   118    1
    52    38    37    1
    53    85    87    1
    54    37    34    1
    55   125   126   ar
    56   125   127   ar
    57    17    15   ar
    58    34    33    1
    59    34    35    1
    60    41    42    2
    61    41    40    1
    62    44    43    1
    63    35    36    2
    64    35    39   am
    65    69    67   ar
    66    69    71   ar
    67    66    67   ar
    68    66    64   ar
    69    15    16   ar
    70    15    14    1
    71    39    40    1
    72    67    65   ar
    73    71    70   ar
    74    64    63   ar
    75    78    79    1
    76    78    77    1
    77    65    63   ar
    78    65    68   ar
    79    70    68   ar
    80    40    43    1
    81    63    62    1
    82    32    30   ar
    83    62    59    1
    84    75    74    2
    85    14    11    1
    86    31    30   ar
    87    30    29    1
    88    29    28    1
    89    74    73    1
    90    76    77    1
    91    76    73    1
    92    28    25    1
    93    73    72    1
    94    57    56    1
    95    61    60    2
    96    59    60    1
    97    59    58    1
    98    11    10    1
    99    11    12    1
   100    25    26    1
   101    25    24    1
   102    26    27    2
   103    58    51   am
   104    24    20   am
   105    12    13    2
   106    12    18   am
   107    56    55    1
   108    18    19    1
   109   137   136    2
   110    54    55    1
   111    54    53    1
   112    23    22    1
   113   133   132    1
   114    51    52    2
   115    51    50    1
   116    20    19    1
   117    20    21    2
   118    49    50    1
   119    19    22    1
   120   136   135    1
   121    53    50    1
   122   158   157    1
   123   132   129    1
   124   157   156    1
   125   135   138    1
   126   135   134    1
   127   128   129    1
   128   129   130    1
   129   156   155    1
   130   138   139    1
   131   130   131    2
   132   139   141   ar
   133   139   140   ar
   134   141   143   ar
   135   155   152    1
   136   148   149    1
   137   148   145    1
   138   140   142   ar
   139   143   142   ar
   140   152   151    1
   141   152   153    1
   142   149   150    1
   143   145   146    1
   144   145   144    1
   145   154   153    2
   146   146   147    2
   147   150   144    1
