@<TRIPOS>MOLECULE
tmp/3wqrA01.pdb
 162 152 0 0 0
SMALL
GASTEIGER

@<TRIPOS>ATOM
      1  N         -2.0540   15.8570   10.1760 N.3   129  LYS129     -0.1245
      2  CA        -2.3420   14.6640    9.3670 C.3   129  LYS129      0.1561
      3  C         -1.8790   14.8160    7.9270 C.2   129  LYS129      0.2260
      4  O         -1.6020   13.8190    7.2560 O.2   129  LYS129     -0.2867
      5  CB        -3.8390   14.3110    9.3990 C.3   129  LYS129      0.0271
      6  CG        -4.7530   15.3670    8.7780 C.3   129  LYS129      0.0035
      7  CD        -6.2190   15.1710    9.1950 C.3   129  LYS129      0.0206
      8  CE        -6.4380   15.7490   10.5730 C.3   129  LYS129      0.1093
      9  NZ        -7.7990   15.4900   11.0760 N.3   129  LYS129     -0.1314
     10  N         -4.0840   13.1540   16.3870 N.3   155  ASP155     -0.1225
     11  CA        -5.4170   13.1990   15.7540 C.3   155  ASP155      0.1805
     12  C         -6.3260   12.2950   16.5920 C.2   155  ASP155      0.2598
     13  O         -5.9390   11.1670   16.9180 O.2   155  ASP155     -0.2718
     14  CB        -5.3330   12.7360   14.2840 C.3   155  ASP155      0.1424
     15  CG        -6.5040   13.2410   13.4120 C.2   155  ASP155      0.3668
     16  OD1       -7.4560   13.8930   13.9030 O.co2 155  ASP155     -0.2456
     17  OD2       -6.4680   12.9780   12.1950 O.co2 155  ASP155     -0.2456
     18  N         -7.4970   12.8070   16.9820 N.am  156  SER156     -0.1938
     19  CA        -8.2920   12.1990   18.0800 C.3   156  SER156      0.2055
     20  C         -8.7490   10.7740   17.8250 C.2   156  SER156      0.2642
     21  O         -8.7520    9.9660   18.7480 O.2   156  SER156     -0.2714
     22  CB        -9.4980   13.0640   18.4610 C.3   156  SER156      0.2130
     23  OG       -10.4800   13.0650   17.4380 O.3   156  SER156     -0.2179
     24  N         -9.1390   10.4780   16.5790 N.am  157  GLU157     -0.1976
     25  CA        -9.5510    9.1220   16.1810 C.3   157  GLU157      0.1602
     26  C         -8.3660    8.1590   16.2150 C.2   157  GLU157      0.2287
     27  O         -8.4870    7.0030   16.6090 O.2   157  GLU157     -0.2864
     28  CB       -10.1780    9.1300   14.7740 C.3   157  GLU157      0.0415
     29  CG       -11.3670   10.1060   14.5860 C.3   157  GLU157      0.1163
     30  CD       -10.9330   11.5520   14.3450 C.2   157  GLU157      0.3649
     31  OE1       -9.7160   11.8120   14.2560 O.co2 157  GLU157     -0.2457
     32  OE2      -11.8050   12.4430   14.2130 O.co2 157  GLU157     -0.2457
     33  N        -16.8270    9.9270   13.1550 N.3   193  SER193     -0.1202
     34  CA       -16.8760   11.2880   12.6420 C.3   193  SER193      0.2020
     35  C        -18.0370   12.0510   13.2400 C.2   193  SER193      0.2619
     36  O        -19.1220   11.4950   13.4320 O.2   193  SER193     -0.2717
     37  CB       -17.0500   11.2810   11.1230 C.3   193  SER193      0.2103
     38  OG       -17.1270   12.6080   10.6390 O.3   193  SER193     -0.2182
     39  N        -17.8120   13.3360   13.4950 N.am  194  SER194     -0.1937
     40  CA       -18.8720   14.2550   13.8850 C.3   194  SER194      0.2055
     41  C        -19.9410   14.3640   12.8060 C.2   194  SER194      0.2644
     42  O        -21.0830   14.6990   13.1050 O.2   194  SER194     -0.2714
     43  CB       -18.2960   15.6560   14.1410 C.3   194  SER194      0.2130
     44  OG       -18.1510   16.3770   12.9290 O.3   194  SER194     -0.2179
     45  N        -19.5590   14.0950   11.5580 N.am  195  GLY195     -0.1939
     46  CA       -20.4180   14.3440   10.3890 C.3   195  GLY195      0.2014
     47  C        -20.3950   15.7970    9.9140 C.2   195  GLY195      0.2639
     48  O        -20.8430   16.1130    8.8050 O.2   195  GLY195     -0.2714
     49  N        -19.8720   16.6860   10.7550 N.am  196  GLY196     -0.1954
     50  CA       -19.7080   18.0920   10.3910 C.3   196  GLY196      0.1869
     51  C        -21.0060   18.8810   10.4160 C.2   196  GLY196      0.2309
     52  O        -22.0680   18.3210   10.6730 O.2   196  GLY196     -0.2863
     53  N        -19.9610   24.1930   18.0360 N.3   219  LYS219     -0.1231
     54  CA       -19.6440   22.7880   18.3340 C.3   219  LYS219      0.1693
     55  C        -18.2810   22.3820   17.7550 C.2   219  LYS219      0.2592
     56  O        -17.5830   21.5340   18.3220 O.2   219  LYS219     -0.2718
     57  CB       -20.7550   21.8630   17.8170 C.3   219  LYS219      0.0285
     58  CG       -20.5820   20.3880   18.1890 C.3   219  LYS219      0.0035
     59  CD       -21.7040   19.5400   17.6070 C.3   219  LYS219      0.0206
     60  CE       -21.2410   18.1230   17.3420 C.3   219  LYS219      0.1093
     61  NZ       -22.3990   17.2380   17.0310 N.3   219  LYS219     -0.1314
     62  N        -17.9110   23.0000   16.6350 N.am  220  TRP220     -0.1976
     63  CA       -16.6310   22.7260   15.9800 C.3   220  TRP220      0.1640
     64  C        -15.5590   23.7540   16.3880 C.2   220  TRP220      0.2290
     65  O        -15.5160   24.8690   15.8610 O.2   220  TRP220     -0.2864
     66  CB       -16.8220   22.6080   14.4510 C.3   220  TRP220      0.0576
     67  CG       -17.6060   21.3500   14.0720 C.ar  220  TRP220      0.0006
     68  CD1      -17.0840   20.1230   13.7700 C.ar  220  TRP220      0.0946
     69  CD2      -19.0410   21.1960   14.0040 C.ar  220  TRP220      0.0152
     70  NE1      -18.0920   19.2220   13.5110 N.ar  220  TRP220     -0.2442
     71  CE2      -19.3020   19.8530   13.6440 C.ar  220  TRP220      0.0810
     72  CE3      -20.1250   22.0610   14.2100 C.ar  220  TRP220      0.0012
     73  CZ2      -20.6090   19.3510   13.4910 C.ar  220  TRP220      0.0191
     74  CZ3      -21.4280   21.5650   14.0460 C.ar  220  TRP220      0.0001
     75  CH2      -21.6540   20.2220   13.6900 C.ar  220  TRP220      0.0015
     76  N        -11.9120   24.2880   16.1960 N.3   222  MET222     -0.1245
     77  CA       -10.6040   23.9910   15.5800 C.3   222  MET222      0.1570
     78  C        -10.2280   25.1140   14.6380 C.2   222  MET222      0.2261
     79  O        -11.0120   26.0330   14.4390 O.2   222  MET222     -0.2867
     80  CB       -10.6530   22.7300   14.7140 C.3   222  MET222      0.0387
     81  CG       -11.4670   21.5790   15.2040 C.3   222  MET222      0.0595
     82  SD       -12.5810   21.0020   13.9000 S.3   222  MET222     -0.1393
     83  CE       -13.8280   20.3790   15.0210 C.3   222  MET222      0.0692
     84  N         -9.1860   22.8790    8.8530 N.3   226  ILE226     -0.1245
     85  CA        -9.8030   21.6280    9.2950 C.3   226  ILE226      0.1561
     86  C        -11.3300   21.7430    9.4930 C.2   226  ILE226      0.2260
     87  O        -12.0540   20.7660    9.2830 O.2   226  ILE226     -0.2867
     88  CB        -9.0940   21.0160   10.5380 C.3   226  ILE226      0.0252
     89  CG1       -9.6160   19.5890   10.7970 C.3   226  ILE226      0.0019
     90  CG2       -9.2620   21.9090   11.7710 C.3   226  ILE226      0.0019
     91  CD1       -8.7390   18.7710   11.7440 C.3   226  ILE226      0.0001
     92  N        -13.9890   19.2970    7.7190 N.3   230  SER230     -0.1217
     93  CA       -15.0240   18.6120    8.5020 C.3   230  SER230      0.1889
     94  C        -16.3930   18.7490    7.8190 C.2   230  SER230      0.2288
     95  O        -17.1900   17.8130    7.8200 O.2   230  SER230     -0.2866
     96  CB       -15.0670   19.1750    9.9280 C.3   230  SER230      0.2089
     97  OG       -16.0910   18.5550   10.7000 O.3   230  SER230     -0.2183
     98  N        -16.4380   16.6160    4.8240 N.3   233  MET233     -0.1245
     99  CA       -15.9360   15.2890    5.2360 C.3   233  MET233      0.1570
    100  C        -14.6630   14.8600    4.4980 C.2   233  MET233      0.2261
    101  O        -14.2860   13.6740    4.5220 O.2   233  MET233     -0.2867
    102  CB       -17.0230   14.2000    5.1700 C.3   233  MET233      0.0387
    103  CG       -18.2190   14.4100    6.1330 C.3   233  MET233      0.0595
    104  SD       -19.2750   12.9430    6.4140 S.3   233  MET233     -0.1393
    105  CE       -18.2350   11.9480    7.4960 C.3   233  MET233      0.0692
    106  N        -11.9920   15.8290    5.6730 N.3   235  ASN235     -0.1225
    107  CA       -11.1900   15.5210    6.8660 C.3   235  ASN235      0.1785
    108  C        -11.1810   14.0320    7.1560 C.2   235  ASN235      0.2597
    109  O        -10.1190   13.4460    7.3750 O.2   235  ASN235     -0.2718
    110  CB       -11.6360   16.2850    8.1110 C.3   235  ASN235      0.1169
    111  CG       -10.6950   16.0540    9.2830 C.2   235  ASN235      0.2627
    112  OD1       -9.5050   16.3600    9.1970 O.2   235  ASN235     -0.2716
    113  ND2      -11.2100   15.4610   10.3630 N.am  235  ASN235     -0.0877
    114  N        -12.3620   13.4170    7.1370 N.am  236  LYS236     -0.1980
    115  CA       -12.4610   11.9880    7.3880 C.3   236  LYS236      0.1596
    116  C        -11.7540   11.1970    6.2860 C.2   236  LYS236      0.2287
    117  O        -11.1080   10.1800    6.5590 O.2   236  LYS236     -0.2864
    118  CB       -13.9260   11.5510    7.5260 C.3   236  LYS236      0.0298
    119  CG       -14.1190   10.3150    8.4010 C.3   236  LYS236      0.0038
    120  CD       -13.4730   10.4340    9.8150 C.3   236  LYS236      0.0206
    121  CE       -13.8120   11.7670   10.5000 C.3   236  LYS236      0.1093
    122  NZ       -13.2700   11.9090   11.8860 N.3   236  LYS236     -0.1314
    123  N         -8.2540   11.1630    7.0460 N.3   239  GLU239     -0.1245
    124  CA        -8.0340   10.3190    8.2250 C.3   239  GLU239      0.1567
    125  C         -8.0900    8.8420    7.8880 C.2   239  GLU239      0.2260
    126  O         -7.5140    8.0440    8.5920 O.2   239  GLU239     -0.2867
    127  CB        -9.0500   10.6520    9.3160 C.3   239  GLU239      0.0388
    128  CG        -8.8430   12.0440    9.9010 C.3   239  GLU239      0.1160
    129  CD        -9.7390   12.3440   11.0790 C.2   239  GLU239      0.3649
    130  OE1      -10.6400   11.5280   11.3610 O.co2 239  GLU239     -0.2457
    131  OE2       -9.5390   13.4080   11.7230 O.co2 239  GLU239     -0.2457
    132  N        -20.1760   12.6060   19.3130 N.3   262  CYS262     -0.1235
    133  CA       -18.7080   12.7230   19.4640 C.3   262  CYS262      0.1677
    134  C        -18.1990   12.3110   20.8430 C.2   262  CYS262      0.2270
    135  O        -17.3200   12.9740   21.4300 O.2   262  CYS262     -0.2867
    136  CB       -18.2220   14.1440   19.1350 C.3   262  CYS262      0.0956
    137  SG       -18.7110   14.6980   17.4860 S.3   262  CYS262     -0.0801
    138  N        -14.7180    7.9640   20.1040 N.3   265  HIS265     -0.1241
    139  CA       -13.8460    8.6860   19.1690 C.3   265  HIS265      0.1621
    140  C        -13.2780    7.8210   18.0470 C.2   265  HIS265      0.2264
    141  O        -12.7670    8.3400   17.0480 O.2   265  HIS265     -0.2867
    142  CB       -12.7390    9.4330   19.9110 C.3   265  HIS265      0.0745
    143  CG       -13.2440   10.5420   20.7840 C.ar  265  HIS265      0.0817
    144  ND1      -12.6820   10.8430   22.0060 N.ar  265  HIS265     -0.2268
    145  CD2      -14.2790   11.3990   20.6290 C.ar  265  HIS265      0.1154
    146  CE1      -13.3390   11.8450   22.5600 C.ar  265  HIS265      0.1986
    147  NE2      -14.3180   12.1960   21.7480 N.ar  265  HIS265     -0.2212
    148  N        -15.7150   15.5820   23.5660 N.3   282  PRO282     -0.2116
    149  CA       -14.8620   15.9810   22.4580 C.3   282  PRO282      0.1372
    150  C        -13.9170   17.1010   22.8820 C.2   282  PRO282      0.2244
    151  O        -14.2700   18.2890   22.8130 O.2   282  PRO282     -0.2868
    152  CB       -15.8650   16.4320   21.3820 C.3   282  PRO282      0.0268
    153  CG       -17.0950   16.7670   22.0970 C.3   282  PRO282      0.0207
    154  CD       -17.1370   15.8950   23.3190 C.3   282  PRO282      0.0892
    155  N         -9.6290   17.9050   22.7630 N.3   284  MET284     -0.1245
    156  CA        -8.2970   17.5130   22.2620 C.3   284  MET284      0.1570
    157  C         -7.2080   17.3620   23.3310 C.2   284  MET284      0.2261
    158  O         -6.1280   16.8350   23.0520 O.2   284  MET284     -0.2867
    159  CB        -7.8360   18.4480   21.1410 C.3   284  MET284      0.0387
    160  CG        -8.4960   18.1440   19.7860 C.3   284  MET284      0.0595
    161  SD        -8.2720   16.4380   19.2420 S.3   284  MET284     -0.1393
    162  CE        -6.5390   16.4300   18.7930 C.3   284  MET284      0.0692
@<TRIPOS>BOND
     1   100   101    2
     2   100    99    1
     3    98    99    1
     4   102    99    1
     5   102   103    1
     6   106   107    1
     7   103   104    1
     8   116   117    2
     9   116   115    1
    10   104   105    1
    11   107   108    1
    12   107   110    1
    13   123   124    1
    14   114   108   am
    15   114   115    1
    16   108   109    2
    17     4     3    2
    18   115   118    1
    19   118   119    1
    20    92    93    1
    21    94    95    2
    22    94    93    1
    23   125   124    1
    24   125   126    2
    25     3     2    1
    26   110   111    1
    27   124   127    1
    28   119   120    1
    29    93    96    1
    30     6     7    1
    31     6     5    1
    32    48    47    2
    33    84    85    1
    34     7     8    1
    35   112   111    2
    36   111   113   am
    37    87    86    2
    38    85    86    1
    39    85    88    1
    40   127   128    1
    41     2     5    1
    42     2     1    1
    43   120   121    1
    44   128   129    1
    45    47    46    1
    46    47    49   am
    47    96    97    1
    48    46    45    1
    49    50    51    1
    50    50    49    1
    51    51    52    2
    52   121   122    1
    53    88    89    1
    54    88    90    1
    55     8     9    1
    56    38    37    1
    57    89    91    1
    58   129   130   ar
    59   129   131   ar
    60    37    34    1
    61    45    41   am
    62    17    15   ar
    63    34    33    1
    64    34    35    1
    65    41    42    2
    66    41    40    1
    67    44    43    1
    68    35    36    2
    69    35    39   am
    70    15    16   ar
    71    15    14    1
    72    73    71   ar
    73    73    75   ar
    74    39    40    1
    75    70    71   ar
    76    70    68   ar
    77    71    69   ar
    78    75    74   ar
    79    68    67   ar
    80    40    43    1
    81    82    83    1
    82    82    81    1
    83    69    67   ar
    84    69    72   ar
    85    74    72   ar
    86    67    66    1
    87    32    30   ar
    88    31    30   ar
    89    14    11    1
    90    30    29    1
    91    79    78    2
    92    66    63    1
    93    29    28    1
    94    78    77    1
    95    80    81    1
    96    80    77    1
    97    28    25    1
    98    77    76    1
    99    11    10    1
   100    11    12    1
   101    65    64    2
   102    63    64    1
   103    63    62    1
   104    25    26    1
   105    25    24    1
   106    26    27    2
   107    24    20   am
   108    12    13    2
   109    12    18   am
   110    62    55   am
   111    18    19    1
   112    61    60    1
   113   141   140    2
   114    60    59    1
   115    23    22    1
   116   137   136    1
   117    59    58    1
   118    55    56    2
   119    55    54    1
   120    57    58    1
   121    57    54    1
   122    20    19    1
   123    20    21    2
   124    53    54    1
   125   140   139    1
   126    19    22    1
   127   162   161    1
   128   136   133    1
   129   139   142    1
   130   139   138    1
   131   161   160    1
   132   132   133    1
   133   133   134    1
   134   160   159    1
   135   142   143    1
   136   145   143   ar
   137   145   147   ar
   138   143   144   ar
   139   134   135    2
   140   159   156    1
   141   152   153    1
   142   152   149    1
   143   147   146   ar
   144   144   146   ar
   145   153   154    1
   146   156   155    1
   147   156   157    1
   148   149   150    1
   149   149   148    1
   150   151   150    2
   151   158   157    2
   152   154   148    1
