@<TRIPOS>MOLECULE
tmp/3wqsA01.pdb
 164 154 0 0 0
SMALL
GASTEIGER

@<TRIPOS>ATOM
      1  N         31.2760   -9.3410    3.7320 N.3   129  LYS129     -0.1245
      2  CA        31.2470  -10.3360    2.7030 C.3   129  LYS129      0.1561
      3  C         31.1070  -11.7250    3.3220 C.2   129  LYS129      0.2260
      4  O         30.6570  -12.6420    2.6620 O.2   129  LYS129     -0.2867
      5  CB        32.4590  -10.2080    1.7670 C.3   129  LYS129      0.0271
      6  CG        33.7760  -10.5990    2.3910 C.3   129  LYS129      0.0035
      7  CD        34.9550  -10.0240    1.6180 C.3   129  LYS129      0.0206
      8  CE        35.1340   -8.5160    1.8380 C.3   129  LYS129      0.1093
      9  NZ        36.1970   -8.0750    0.9030 N.3   129  LYS129     -0.1314
     10  N         30.9370   -4.0960   -1.3170 N.3   155  ASP155     -0.1225
     11  CA        32.2920   -4.5480   -1.6030 C.3   155  ASP155      0.1805
     12  C         32.6690   -3.9580   -2.9610 C.2   155  ASP155      0.2598
     13  O         31.9290   -4.1310   -3.9440 O.2   155  ASP155     -0.2718
     14  CB        32.3670   -6.0760   -1.6230 C.3   155  ASP155      0.1424
     15  CG        33.7330   -6.6010   -1.2330 C.2   155  ASP155      0.3668
     16  OD1       34.7340   -5.8530   -1.3430 O.co2 155  ASP155     -0.2456
     17  OD2       33.8240   -7.7650   -0.8040 O.co2 155  ASP155     -0.2456
     18  N         33.7980   -3.2460   -3.0210 N.am  156  SER156     -0.1938
     19  CA        34.1180   -2.4120   -4.2000 C.3   156  SER156      0.2055
     20  C         34.1070   -3.1730   -5.5110 C.2   156  SER156      0.2642
     21  O         33.6110   -2.6600   -6.5040 O.2   156  SER156     -0.2714
     22  CB        35.4490   -1.6660   -4.0450 C.3   156  SER156      0.2130
     23  OG        36.5430   -2.5350   -4.2260 O.3   156  SER156     -0.2179
     24  N         34.5960   -4.4060   -5.5200 N.am  157  GLU157     -0.1976
     25  CA        34.6620   -5.1590   -6.7790 C.3   157  GLU157      0.1602
     26  C         33.2560   -5.5070   -7.2270 C.2   157  GLU157      0.2287
     27  O         32.8990   -5.4290   -8.4180 O.2   157  GLU157     -0.2864
     28  CB        35.5340   -6.4110   -6.6210 C.3   157  GLU157      0.0415
     29  CG        36.9520   -6.1180   -6.1090 C.3   157  GLU157      0.1163
     30  CD        37.0080   -5.9040   -4.6030 C.2   157  GLU157      0.3649
     31  OE1       35.9470   -5.9700   -3.9490 O.co2 157  GLU157     -0.2457
     32  OE2       38.1080   -5.6910   -4.0430 O.co2 157  GLU157     -0.2457
     33  N         39.2630   -7.9740   -9.8570 N.3   192  CYS192     -0.1221
     34  CA        40.5510   -7.2730   -9.6540 C.3   192  CYS192      0.1808
     35  C         40.9870   -7.3350   -8.2130 C.2   192  CYS192      0.2602
     36  O         40.1620   -7.3050   -7.2870 O.2   192  CYS192     -0.2717
     37  CB        40.5050   -5.8270  -10.1610 C.3   192  CYS192      0.0970
     38  SG        40.4280   -5.7930  -11.9640 S.3   192  CYS192     -0.0800
     39  N         42.2970   -7.4480   -8.0400 N.am  193  SER193     -0.1938
     40  CA        42.9030   -7.4230   -6.7340 C.3   193  SER193      0.2055
     41  C         44.1050   -6.4670   -6.6500 C.2   193  SER193      0.2644
     42  O         44.9180   -6.3660   -7.5840 O.2   193  SER193     -0.2714
     43  CB        43.3740   -8.8210   -6.3420 C.3   193  SER193      0.2130
     44  OG        43.9420   -8.7460   -5.0570 O.3   193  SER193     -0.2179
     45  N         44.2130   -5.8120   -5.5020 N.am  194  SER194     -0.1935
     46  CA        45.3030   -4.9110   -5.2400 C.3   194  SER194      0.2055
     47  C         46.5660   -5.7310   -5.1720 C.2   194  SER194      0.2643
     48  O         47.6090   -5.2240   -5.5270 O.2   194  SER194     -0.2714
     49  CB        45.1100   -4.1480   -3.9410 C.3   194  SER194      0.2130
     50  OG        45.5810   -4.9240   -2.8660 O.3   194  SER194     -0.2179
     51  N         46.4360   -7.0150   -4.7700 N.am  195  GLY195     -0.1954
     52  CA        47.5550   -7.9730   -4.6400 C.3   195  GLY195      0.1869
     53  C         48.1420   -7.9720   -3.2230 C.2   195  GLY195      0.2309
     54  O         48.8600   -8.8890   -2.8210 O.2   195  GLY195     -0.2863
     55  N         46.1280    2.7010    2.2970 N.3   219  LYS219     -0.1231
     56  CA        45.6390    3.7280    1.3880 C.3   219  LYS219      0.1693
     57  C         44.5180    4.4890    2.1090 C.2   219  LYS219      0.2592
     58  O         44.5790    5.7250    2.2600 O.2   219  LYS219     -0.2718
     59  CB        45.1490    3.1170    0.0790 C.3   219  LYS219      0.0285
     60  CG        45.5430    3.9010   -1.1680 C.3   219  LYS219      0.0035
     61  CD        44.7810    5.2000   -1.3050 C.3   219  LYS219      0.0206
     62  CE        45.0140    5.8090   -2.6710 C.3   219  LYS219      0.1093
     63  NZ        43.9680    6.8200   -3.0040 N.3   219  LYS219     -0.1314
     64  N         43.5040    3.7510    2.5590 N.am  220  TRP220     -0.1976
     65  CA        42.6460    4.2220    3.6450 C.3   220  TRP220      0.1640
     66  C         42.6930    3.1260    4.7160 C.2   220  TRP220      0.2290
     67  O         42.9450    1.9730    4.3950 O.2   220  TRP220     -0.2864
     68  CB        41.2200    4.5390    3.1630 C.3   220  TRP220      0.0576
     69  CG        40.4260    3.3300    2.7070 C.ar  220  TRP220      0.0006
     70  CD1       39.5040    2.6270    3.4410 C.ar  220  TRP220      0.0946
     71  CD2       40.4990    2.6850    1.4340 C.ar  220  TRP220      0.0152
     72  NE1       38.9970    1.5950    2.7010 N.ar  220  TRP220     -0.2442
     73  CE2       39.5940    1.5960    1.4670 C.ar  220  TRP220      0.0810
     74  CE3       41.2540    2.9070    0.2730 C.ar  220  TRP220      0.0012
     75  CZ2       39.4120    0.7300    0.3760 C.ar  220  TRP220      0.0191
     76  CZ3       41.0690    2.0510   -0.8170 C.ar  220  TRP220      0.0001
     77  CH2       40.1490    0.9740   -0.7550 C.ar  220  TRP220      0.0015
     78  N         41.6360    0.3160    6.8110 N.3   222  MET222     -0.1245
     79  CA        40.5890   -0.7100    6.8980 C.3   222  MET222      0.1570
     80  C         40.6870   -1.4400    8.2260 C.2   222  MET222      0.2261
     81  O         41.7560   -1.4530    8.8600 O.2   222  MET222     -0.2867
     82  CB        40.7210   -1.7400    5.7570 C.3   222  MET222      0.0387
     83  CG        40.5620   -1.1530    4.3680 C.3   222  MET222      0.0595
     84  SD        40.6390   -2.3500    3.0250 S.3   222  MET222     -0.1393
     85  CE        42.2600   -3.0920    3.1770 C.3   222  MET222      0.0692
     86  N         40.0020   -7.6410    7.4190 N.3   226  ILE226     -0.1245
     87  CA        40.1070   -7.4890    5.9750 C.3   226  ILE226      0.1561
     88  C         41.5490   -7.1730    5.5330 C.2   226  ILE226      0.2260
     89  O         42.0300   -7.7160    4.5260 O.2   226  ILE226     -0.2867
     90  CB        39.0360   -6.5310    5.3930 C.3   226  ILE226      0.0252
     91  CG1       39.0200   -6.6280    3.8620 C.3   226  ILE226      0.0019
     92  CG2       39.2420   -5.1060    5.9070 C.3   226  ILE226      0.0019
     93  CD1       37.7760   -6.0800    3.2120 C.3   226  ILE226      0.0001
     94  N         43.4670   -9.3180    2.8110 N.3   230  SER230     -0.1217
     95  CA        44.0660   -8.6690    1.6620 C.3   230  SER230      0.1889
     96  C         45.4640   -9.1610    1.4370 C.2   230  SER230      0.2288
     97  O         45.8280   -9.4870    0.3180 O.2   230  SER230     -0.2866
     98  CB        44.0970   -7.1650    1.8710 C.3   230  SER230      0.2089
     99  OG        44.4910   -6.5480    0.6780 O.3   230  SER230     -0.2183
    100  N         45.5940  -12.7260    0.3600 N.3   233  MET233     -0.1245
    101  CA        44.6370  -12.8440   -0.7450 C.3   233  MET233      0.1570
    102  C         43.4470  -13.7540   -0.4150 C.2   233  MET233      0.2261
    103  O         42.6180  -14.0730   -1.3000 O.2   233  MET233     -0.2867
    104  CB        45.3140  -13.2280   -2.0750 C.3   233  MET233      0.0387
    105  CG        46.2950  -12.1550   -2.5890 C.3   233  MET233      0.0595
    106  SD        46.6930  -12.3370   -4.3320 S.3   233  MET233     -0.1393
    107  CE        45.1700  -11.8530   -5.1690 C.3   233  MET233      0.0692
    108  N         41.2190  -12.5790    1.0960 N.3   235  ASN235     -0.1225
    109  CA        40.1470  -11.6100    0.7840 C.3   235  ASN235      0.1785
    110  C         39.6030  -11.7970   -0.6220 C.2   235  ASN235      0.2597
    111  O         38.3990  -11.7970   -0.8170 O.2   235  ASN235     -0.2718
    112  CB        40.5650  -10.1530    0.9700 C.3   235  ASN235      0.1169
    113  CG        39.3870   -9.1910    0.8050 C.2   235  ASN235      0.2627
    114  OD1       38.4020   -9.2680    1.5560 O.2   235  ASN235     -0.2716
    115  ND2       39.4740   -8.2820   -0.1930 N.am  235  ASN235     -0.0877
    116  N         40.4770  -11.9780   -1.5990 N.am  236  LYS236     -0.1980
    117  CA        40.0030  -12.2490   -2.9490 C.3   236  LYS236      0.1596
    118  C         39.2770  -13.6490   -3.0240 C.2   236  LYS236      0.2287
    119  O         38.2100  -13.7640   -3.6230 O.2   236  LYS236     -0.2864
    120  CB        41.1470  -12.0890   -3.9760 C.3   236  LYS236      0.0298
    121  CG        40.7360  -11.5270   -5.3670 C.3   236  LYS236      0.0038
    122  CD        39.9200  -10.2280   -5.3460 C.3   236  LYS236      0.0206
    123  CE        40.4860   -9.1970   -4.3540 C.3   236  LYS236      0.1093
    124  NZ        39.8330   -7.9130   -4.5070 N.3   236  LYS236     -0.1314
    125  N         35.9630  -13.1550   -1.9870 N.3   239  GLU239     -0.1245
    126  CA        35.2340  -12.3760   -2.9620 C.3   239  GLU239      0.1567
    127  C         34.8650  -13.1650   -4.1870 C.2   239  GLU239      0.2260
    128  O         33.8980  -12.8180   -4.8730 O.2   239  GLU239     -0.2867
    129  CB        36.0220  -11.1450   -3.3740 C.3   239  GLU239      0.0388
    130  CG        36.1040  -10.1760   -2.2640 C.3   239  GLU239      0.1160
    131  CD        36.9170   -8.9600   -2.6050 C.2   239  GLU239      0.3649
    132  OE1       37.3840   -8.8390   -3.7400 O.co2 239  GLU239     -0.2457
    133  OE2       37.0650   -8.1060   -1.7280 O.co2 239  GLU239     -0.2457
    134  N         44.8940   -0.4250   -8.7030 N.3   262  CYS262     -0.1235
    135  CA        43.5100   -0.4050   -8.1950 C.3   262  CYS262      0.1677
    136  C         42.6630    0.7250   -8.7700 C.2   262  CYS262      0.2270
    137  O         42.0100    1.4700   -8.0300 O.2   262  CYS262     -0.2867
    138  CB        43.4840   -0.2690   -6.6700 C.3   262  CYS262      0.0956
    139  SG        44.4980   -1.3790   -5.7880 S.3   262  CYS262     -0.0801
    140  N         38.1530   -1.4280  -10.9480 N.3   265  HIS265     -0.1241
    141  CA        37.7690   -2.1620   -9.7640 C.3   265  HIS265      0.1621
    142  C         37.2310   -3.5580   -9.9890 C.2   265  HIS265      0.2264
    143  O         37.2030   -4.3180   -9.0360 O.2   265  HIS265     -0.2867
    144  CB        36.8980   -1.3080   -8.8540 C.3   265  HIS265      0.0745
    145  CG        37.6340   -0.1140   -8.3300 C.ar  265  HIS265      0.0817
    146  ND1       37.1240    1.1670   -8.3790 N.ar  265  HIS265     -0.2268
    147  CD2       38.8840   -0.0010   -7.8320 C.ar  265  HIS265      0.1154
    148  CE1       38.0070    2.0060   -7.8730 C.ar  265  HIS265      0.1986
    149  NE2       39.0840    1.3210   -7.5400 N.ar  265  HIS265     -0.2212
    150  N         41.2280    4.1280   -5.7270 N.3   282  PRO282     -0.2116
    151  CA        40.9820    3.2220   -4.5920 C.3   282  PRO282      0.1372
    152  C         40.2290    3.9670   -3.5190 C.2   282  PRO282      0.2244
    153  O         40.8290    4.7940   -2.8450 O.2   282  PRO282     -0.2868
    154  CB        42.3940    2.9590   -4.0480 C.3   282  PRO282      0.0268
    155  CG        43.2850    3.1550   -5.1660 C.3   282  PRO282      0.0207
    156  CD        42.6660    4.2230   -6.0430 C.3   282  PRO282      0.0892
    157  N         36.1180    3.8700   -1.0590 N.3   284  MET284     -0.1245
    158  CA        34.8750    3.1700   -0.7400 C.3   284  MET284      0.1570
    159  C         33.7210    4.1370   -0.7540 C.2   284  MET284      0.2261
    160  O         32.5680    3.7480   -0.6330 O.2   284  MET284     -0.2867
    161  CB        34.9480    2.5020    0.6420 C.3   284  MET284      0.0387
    162  CG        35.8590    1.2740    0.7230 C.3   284  MET284      0.0595
    163  SD        35.5180    0.0080   -0.5510 S.3   284  MET284     -0.1393
    164  CE        33.8350   -0.4660   -0.0830 C.3   284  MET284      0.0692
@<TRIPOS>BOND
     1    38    37    1
     2   140   141    1
     3    37    34    1
     4   142   141    1
     5   142   143    2
     6    33    34    1
     7   141   144    1
     8    34    35    1
     9   144   145    1
    10   136   135    1
    11   136   137    2
    12   134   135    1
    13    27    26    2
    14   146   145   ar
    15   146   148   ar
    16   145   147   ar
    17    35    39   am
    18    35    36    2
    19   135   138    1
    20    39    40    1
    21   148   149   ar
    22   147   149   ar
    23    42    41    2
    24    26    25    1
    25    25    28    1
    26    25    24    1
    27    40    41    1
    28    40    43    1
    29   138   139    1
    30    41    45   am
    31    28    29    1
    32    21    20    2
    33    43    44    1
    34    29    30    1
    35   156   150    1
    36   156   155    1
    37   150   151    1
    38    48    47    2
    39    24    20   am
    40    20    19    1
    41    45    46    1
    42   121   122    1
    43   121   120    1
    44   122   123    1
    45    46    47    1
    46    46    49    1
    47    47    51   am
    48   107   106    1
    49   155   154    1
    50   128   127    2
    51    51    52    1
    52    52    53    1
    53    30    32   ar
    54    30    31   ar
    55   151   154    1
    56   151   152    1
    57   124   123    1
    58   106   105    1
    59    23    22    1
    60    19    22    1
    61    19    18    1
    62   127   126    1
    63   120   117    1
    64    13    12    2
    65    49    50    1
    66   132   131   ar
    67   119   118    2
    68   152   153    2
    69   129   126    1
    70   129   130    1
    71    53    54    2
    72   118   117    1
    73    18    12   am
    74    63    62    1
    75   126   125    1
    76    12    11    1
    77   117   116    1
    78    62    61    1
    79   131   130    1
    80   131   133   ar
    81   105   104    1
    82   104   101    1
    83    14    11    1
    84    14    15    1
    85    11    10    1
    86   116   110   am
    87    16    15   ar
    88    61    60    1
    89   103   102    2
    90    15    17   ar
    91    60    59    1
    92   157   158    1
    93   111   110    2
    94    76    77   ar
    95    76    74   ar
    96    77    75   ar
    97   159   158    1
    98   159   160    2
    99   101   102    1
   100   101   100    1
   101   158   161    1
   102   110   109    1
   103   163   164    1
   104   163   162    1
   105   115   113   am
   106    59    56    1
   107    74    71   ar
   108    97    96    2
   109    75    73   ar
   110   161   162    1
   111    99    98    1
   112   109   112    1
   113   109   108    1
   114   113   112    1
   115   113   114    2
   116     9     8    1
   117    56    57    1
   118    56    55    1
   119    71    73   ar
   120    71    69   ar
   121    96    95    1
   122    73    72   ar
   123     7     8    1
   124     7     6    1
   125    95    98    1
   126    95    94    1
   127     5     6    1
   128     5     2    1
   129    57    58    2
   130    57    64   am
   131    64    65    1
   132     4     3    2
   133    72    70   ar
   134     2     3    1
   135     2     1    1
   136    69    68    1
   137    69    70   ar
   138    84    85    1
   139    84    83    1
   140    68    65    1
   141    93    91    1
   142    65    66    1
   143    91    90    1
   144    83    82    1
   145    67    66    2
   146    89    88    2
   147    90    92    1
   148    90    87    1
   149    88    87    1
   150    82    79    1
   151    87    86    1
   152    78    79    1
   153    79    80    1
   154    80    81    2
