@<TRIPOS>MOLECULE
tmp/3wqtC00.pdb
 197 184 0 0 0
SMALL
GASTEIGER

@<TRIPOS>ATOM
      1  N        -26.1180  -12.8960    2.5310 N.3     7  ASP7       -0.1225
      2  CA       -25.7610  -14.2930    2.7920 C.3     7  ASP7        0.1805
      3  C        -25.9490  -14.5120    4.2780 C.2     7  ASP7        0.2598
      4  O        -25.1450  -14.0450    5.0720 O.2     7  ASP7       -0.2718
      5  CB       -24.2900  -14.5460    2.4100 C.3     7  ASP7        0.1424
      6  CG       -23.7610  -15.9120    2.8830 C.2     7  ASP7        0.3668
      7  OD1      -24.5110  -16.7250    3.4860 O.co2   7  ASP7       -0.2456
      8  OD2      -22.5640  -16.1680    2.6340 O.co2   7  ASP7       -0.2456
      9  N        -27.0130  -15.2210    4.6450 N.am    8  ILE8       -0.1966
     10  CA       -27.3380  -15.5020    6.0420 C.3     8  ILE8        0.1727
     11  C        -26.5840  -16.7450    6.5400 C.2     8  ILE8        0.2617
     12  O        -27.1400  -17.8430    6.5830 O.2     8  ILE8       -0.2715
     13  CB       -28.8530  -15.7490    6.2020 C.3     8  ILE8        0.0290
     14  CG1      -29.6410  -14.6140    5.5420 C.3     8  ILE8        0.0022
     15  CG2      -29.2180  -15.8650    7.6950 C.3     8  ILE8        0.0023
     16  CD1      -31.1510  -14.7460    5.7220 C.3     8  ILE8        0.0001
     17  N        -25.3250  -16.5580    6.9260 N.am    9  GLY9       -0.1940
     18  CA       -24.5060  -17.6700    7.3800 C.3     9  GLY9        0.2014
     19  C        -24.5950  -18.0210    8.8530 C.2     9  GLY9        0.2640
     20  O        -24.9870  -17.1990    9.6850 O.2     9  GLY9       -0.2714
     21  N        -24.2200  -19.2610    9.1610 N.am   10  SER10      -0.1935
     22  CA       -24.2290  -19.7940   10.5200 C.3    10  SER10       0.2055
     23  C        -23.1980  -19.0800   11.3950 C.2    10  SER10       0.2644
     24  O        -23.3920  -18.9320   12.6010 O.2    10  SER10      -0.2714
     25  CB       -23.9170  -21.2900   10.4920 C.3    10  SER10       0.2130
     26  OG       -24.8750  -21.9980    9.7270 O.3    10  SER10      -0.2179
     27  N        -22.0920  -18.6620   10.7820 N.am   11  SER11      -0.1935
     28  CA       -21.0450  -17.9450   11.5070 C.3    11  SER11       0.2055
     29  C        -21.3690  -16.4520   11.4660 C.2    11  SER11       0.2643
     30  O        -21.4330  -15.8040   12.4980 O.2    11  SER11      -0.2714
     31  CB       -19.6770  -18.1870   10.8690 C.3    11  SER11       0.2130
     32  OG       -18.7580  -17.2020   11.2890 O.3    11  SER11      -0.2179
     33  N        -21.5650  -15.9090   10.2680 N.am   12  SER12      -0.1949
     34  CA       -21.9070  -14.4980   10.1420 C.3    12  SER12       0.1924
     35  C        -22.8040  -14.2040    8.9510 C.2    12  SER12       0.2314
     36  O        -22.8750  -14.9670    7.9840 O.2    12  SER12      -0.2863
     37  CB       -20.6550  -13.6320   10.0150 C.3    12  SER12       0.2116
     38  OG       -20.0670  -13.7890    8.7400 O.3    12  SER12      -0.2180
     39  N        -23.4650  -11.8710    5.8770 N.3    14  LYS14      -0.1245
     40  CA       -22.6450  -11.0300    5.0300 C.3    14  LYS14       0.1561
     41  C        -23.5150  -10.3850    3.9660 C.2    14  LYS14       0.2260
     42  O        -24.3680  -11.0400    3.3500 O.2    14  LYS14      -0.2867
     43  CB       -21.5400  -11.8740    4.3890 C.3    14  LYS14       0.0271
     44  CG       -20.8610  -12.8240    5.3850 C.3    14  LYS14       0.0035
     45  CD       -19.8220  -13.6900    4.6920 C.3    14  LYS14       0.0206
     46  CE       -19.6360  -15.0070    5.4100 C.3    14  LYS14       0.1093
     47  NZ       -20.8790  -15.8090    5.4100 N.3    14  LYS14      -0.1314
     48  N        -20.8580   -6.9790    7.6910 N.3    30  GLN30      -0.1245
     49  CA       -20.7070   -8.3310    8.1980 C.3    30  GLN30       0.1566
     50  C        -20.9780   -8.3730    9.6920 C.2    30  GLN30       0.2260
     51  O        -20.3930   -7.6100   10.4540 O.2    30  GLN30      -0.2867
     52  CB       -19.2940   -8.8680    7.9290 C.3    30  GLN30       0.0367
     53  CG       -19.1200  -10.3050    8.4160 C.3    30  GLN30       0.0905
     54  CD       -17.8280  -10.9580    7.9500 C.2    30  GLN30       0.2608
     55  OE1      -17.6980  -12.1800    8.0050 O.2    30  GLN30      -0.2717
     56  NE2      -16.8640  -10.1490    7.5000 N.am   30  GLN30      -0.0878
     57  N        -21.3210  -11.1450   12.9510 N.3    32  TYR32      -0.1241
     58  CA       -21.2290  -12.4840   13.5190 C.3    32  TYR32       0.1605
     59  C        -22.4540  -12.7030   14.3890 C.2    32  TYR32       0.2264
     60  O        -22.8070  -11.8510   15.1880 O.2    32  TYR32      -0.2867
     61  CB       -19.9410  -12.6020   14.3460 C.3    32  TYR32       0.0534
     62  CG       -18.7100  -12.6190   13.4730 C.ar   32  TYR32      -0.0201
     63  CD1      -18.1900  -13.8240   12.9930 C.ar   32  TYR32      -0.0009
     64  CD2      -18.1200  -11.4240   13.0390 C.ar   32  TYR32      -0.0009
     65  CE1      -17.1220  -13.8460   12.1020 C.ar   32  TYR32       0.0417
     66  CE2      -17.0540  -11.4340   12.1430 C.ar   32  TYR32       0.0417
     67  CZ       -16.5630  -12.6530   11.6770 C.ar   32  TYR32       0.1957
     68  OH       -15.5300  -12.6770   10.7660 O.3    32  TYR32      -0.2866
     69  N        -26.9780  -23.5020    8.9160 N.3    39  GLY39      -0.1225
     70  CA       -27.5360  -22.7710    7.7890 C.3    39  GLY39       0.1811
     71  C        -29.0040  -22.3870    7.8730 C.2    39  GLY39       0.2280
     72  O        -29.5310  -21.7740    6.9490 O.2    39  GLY39      -0.2866
     73  N        -29.3680  -15.2360   -1.1290 N.3    72  LYS72      -0.1245
     74  CA       -28.8930  -16.5600   -1.4920 C.3    72  LYS72       0.1561
     75  C        -29.5820  -17.5660   -0.5680 C.2    72  LYS72       0.2260
     76  O        -30.0420  -17.2160    0.5250 O.2    72  LYS72      -0.2867
     77  CB       -27.3670  -16.6610   -1.3520 C.3    72  LYS72       0.0271
     78  CG       -26.8170  -16.9480    0.0520 C.3    72  LYS72       0.0035
     79  CD       -26.9160  -18.4220    0.3970 C.3    72  LYS72       0.0206
     80  CE       -26.1410  -18.7760    1.6730 C.3    72  LYS72       0.1093
     81  NZ       -24.6750  -18.9450    1.3920 N.3    72  LYS72      -0.1314
     82  N        -17.4600  -25.3810   -0.6540 N.3   197  ASP197     -0.1239
     83  CA       -17.3980  -24.2190    0.2220 C.3   197  ASP197      0.1674
     84  C        -17.5260  -24.7390    1.6410 C.2   197  ASP197      0.2266
     85  O        -18.5790  -25.2270    2.0400 O.2   197  ASP197     -0.2867
     86  CB       -18.5250  -23.2180   -0.0880 C.3   197  ASP197      0.1410
     87  CG       -18.4790  -21.9700    0.8150 C.2   197  ASP197      0.3668
     88  OD1      -18.4970  -20.8380    0.2820 O.co2 197  ASP197     -0.2456
     89  OD2      -18.4360  -22.1200    2.0560 O.co2 197  ASP197     -0.2456
     90  N        -17.8510  -23.8650    5.2400 N.3   199  GLY199     -0.1210
     91  CA       -18.2100  -22.7480    6.0950 C.3   199  GLY199      0.1956
     92  C        -17.9990  -23.0590    7.5610 C.2   199  GLY199      0.2612
     93  O        -16.9310  -23.5400    7.9490 O.2   199  GLY199     -0.2717
     94  N        -19.0090  -22.7890    8.3830 N.am  200  GLU200     -0.1965
     95  CA       -18.8780  -23.0630    9.8030 C.3   200  GLU200      0.1733
     96  C        -19.6070  -24.3200   10.2250 C.2   200  GLU200      0.2616
     97  O        -19.0260  -25.1810   10.8840 O.2   200  GLU200     -0.2715
     98  CB       -19.3690  -21.9020   10.6560 C.3   200  GLU200      0.0429
     99  CG       -19.2470  -22.2530   12.1350 C.3   200  GLU200      0.1163
    100  CD       -19.4250  -21.0800   13.0480 C.2   200  GLU200      0.3649
    101  OE1      -20.5430  -20.5190   13.1110 O.co2 200  GLU200     -0.2457
    102  OE2      -18.4370  -20.7180   13.7110 O.co2 200  GLU200     -0.2457
    103  N        -20.8820  -24.4230    9.8700 N.am  201  ASP201     -0.1957
    104  CA       -21.6510  -25.6140   10.2110 C.3   201  ASP201      0.1840
    105  C        -21.9370  -26.4280    8.9640 C.2   201  ASP201      0.2621
    106  O        -22.3050  -27.6000    9.0600 O.2   201  ASP201     -0.2715
    107  CB       -22.9860  -25.2610   10.8630 C.3   201  ASP201      0.1450
    108  CG       -22.8250  -24.6850   12.2480 C.2   201  ASP201      0.3671
    109  OD1      -21.7660  -24.9130   12.8710 O.co2 201  ASP201     -0.2456
    110  OD2      -23.7700  -24.0100   12.7140 O.co2 201  ASP201     -0.2456
    111  N        -21.7630  -25.8190    7.7940 N.am  202  VAL202     -0.1977
    112  CA       -22.0540  -26.5290    6.5540 C.3   202  VAL202      0.1596
    113  C        -20.9830  -26.4730    5.4750 C.2   202  VAL202      0.2287
    114  O        -20.3160  -25.4530    5.2930 O.2   202  VAL202     -0.2864
    115  CB       -23.3780  -26.0110    5.9440 C.3   202  VAL202      0.0276
    116  CG1      -23.6830  -26.7360    4.6280 C.3   202  VAL202      0.0022
    117  CG2      -24.5110  -26.2050    6.9460 C.3   202  VAL202      0.0022
    118  N        -20.7580  -27.1090    1.4590 N.3   204  GLN204     -0.1245
    119  CA       -21.5860  -27.3120    0.2770 C.3   204  GLN204      0.1566
    120  C        -20.7530  -27.7560   -0.8970 C.2   204  GLN204      0.2260
    121  O        -19.5830  -27.3750   -1.0270 O.2   204  GLN204     -0.2867
    122  CB       -22.3480  -26.0340   -0.0800 C.3   204  GLN204      0.0367
    123  CG       -23.1520  -25.4780    1.0940 C.3   204  GLN204      0.0905
    124  CD       -24.0290  -24.2890    0.7070 C.2   204  GLN204      0.2608
    125  OE1      -23.5910  -23.3590    0.0060 O.2   204  GLN204     -0.2717
    126  NE2      -25.2660  -24.3060    1.1810 N.am  204  GLN204     -0.0878
    127  N        -16.0250  -25.8110    9.5930 N.3   223  GLY223     -0.1225
    128  CA       -15.1770  -25.1060   10.5370 C.3   223  GLY223      0.1811
    129  C        -15.4450  -25.3450   12.0110 C.2   223  GLY223      0.2280
    130  O        -14.5180  -25.5580   12.7820 O.2   223  GLY223     -0.2866
    131  N        -10.6370  -21.7470   18.7520 N.3   242  GLU242     -0.1245
    132  CA       -10.9630  -20.9960   17.5440 C.3   242  GLU242      0.1567
    133  C         -9.8650  -19.9930   17.2080 C.2   242  GLU242      0.2260
    134  O         -9.5000  -19.8040   16.0450 O.2   242  GLU242     -0.2867
    135  CB       -12.2760  -20.2440   17.7410 C.3   242  GLU242      0.0388
    136  CG       -12.7380  -19.4730   16.5190 C.3   242  GLU242      0.1160
    137  CD       -13.8650  -20.1770   15.7930 C.2   242  GLU242      0.3649
    138  OE1      -13.6580  -21.3280   15.3660 O.co2 242  GLU242     -0.2457
    139  OE2      -14.9600  -19.5870   15.6530 O.co2 242  GLU242     -0.2457
    140  N         -6.8170  -21.7820   15.9200 N.3   245  LYS245     -0.1231
    141  CA        -7.1240  -22.3350   14.6000 C.3   245  LYS245      0.1693
    142  C         -6.8370  -21.2420   13.5870 C.2   245  LYS245      0.2592
    143  O         -6.1950  -21.4810   12.5570 O.2   245  LYS245     -0.2718
    144  CB        -8.6070  -22.7130   14.4770 C.3   245  LYS245      0.0285
    145  CG        -8.9560  -23.2830   13.1160 C.3   245  LYS245      0.0035
    146  CD       -10.2660  -22.7330   12.5510 C.3   245  LYS245      0.0206
    147  CE       -11.4840  -23.1130   13.3730 C.3   245  LYS245      0.1093
    148  NZ       -12.7530  -22.6910   12.6960 N.3   245  LYS245     -0.1314
    149  N         -7.3260  -20.0400   13.8960 N.am  246  HIS246     -0.1976
    150  CA        -7.1440  -18.8890   13.0200 C.3   246  HIS246      0.1656
    151  C         -5.7000  -18.4290   12.9800 C.2   246  HIS246      0.2291
    152  O         -5.1730  -18.1290   11.9040 O.2   246  HIS246     -0.2864
    153  CB        -8.0320  -17.7130   13.4570 C.3   246  HIS246      0.0771
    154  CG        -9.4890  -17.9110   13.1610 C.ar  246  HIS246      0.0820
    155  ND1      -10.3600  -16.8620   12.9760 N.ar  246  HIS246     -0.2267
    156  CD2      -10.2230  -19.0380   13.0110 C.ar  246  HIS246      0.1154
    157  CE1      -11.5670  -17.3320   12.7230 C.ar  246  HIS246      0.1986
    158  NE2      -11.5110  -18.6500   12.7370 N.ar  246  HIS246     -0.2212
    159  N        -14.9750  -20.3660    0.8840 N.3   315  GLY315     -0.1210
    160  CA       -15.6620  -20.2310    2.1590 C.3   315  GLY315      0.1956
    161  C        -14.6670  -19.9440    3.2680 C.2   315  GLY315      0.2612
    162  O        -13.4710  -20.1710    3.1030 O.2   315  GLY315     -0.2717
    163  N        -15.1610  -19.4660    4.4040 N.am  316  GLY316     -0.1942
    164  CA       -14.3010  -19.1300    5.5300 C.3   316  GLY316      0.2014
    165  C        -13.1900  -20.0990    5.9190 C.2   316  GLY316      0.2639
    166  O        -12.0520  -19.6850    6.1810 O.2   316  GLY316     -0.2714
    167  N        -13.5070  -21.3850    5.9730 N.am  317  SER317     -0.1949
    168  CA       -12.5090  -22.3790    6.3390 C.3   317  SER317      0.1924
    169  C        -11.4110  -22.5100    5.2920 C.2   317  SER317      0.2314
    170  O        -10.3720  -23.1150    5.5470 O.2   317  SER317     -0.2863
    171  CB       -13.1710  -23.7300    6.5780 C.3   317  SER317      0.2116
    172  OG       -14.0290  -23.6490    7.7050 O.3   317  SER317     -0.2180
    173  N         -9.6200  -20.3080    4.5320 N.3   319  ASN319     -0.1225
    174  CA        -8.5890  -19.3730    4.9750 C.3   319  ASN319      0.1785
    175  C         -7.4880  -20.1830    5.6530 C.2   319  ASN319      0.2597
    176  O         -6.3650  -19.7290    5.8100 O.2   319  ASN319     -0.2718
    177  CB        -9.1390  -18.3800    6.0040 C.3   319  ASN319      0.1169
    178  CG        -9.8490  -17.1990    5.3720 C.2   319  ASN319      0.2627
    179  OD1       -9.2910  -16.5070    4.5280 O.2   319  ASN319     -0.2716
    180  ND2      -11.0850  -16.9580    5.7910 N.am  319  ASN319     -0.0877
    181  N         -7.8490  -21.3820    6.0740 N.am  320  LEU320     -0.1980
    182  CA        -6.9450  -22.2820    6.7700 C.3   320  LEU320      0.1596
    183  C         -5.7350  -22.6310    5.9030 C.2   320  LEU320      0.2287
    184  O         -5.8820  -22.9870    4.7320 O.2   320  LEU320     -0.2864
    185  CB        -7.7350  -23.5290    7.1260 C.3   320  LEU320      0.0297
    186  CG        -7.3270  -24.4790    8.2410 C.3   320  LEU320      0.0022
    187  CD1       -6.9530  -23.7210    9.5370 C.3   320  LEU320      0.0001
    188  CD2       -8.5040  -25.4320    8.4580 C.3   320  LEU320      0.0001
    189  N        -14.9240  -16.2130    2.5760 N.3   349  GLU349     -0.1245
    190  CA       -16.2770  -16.2610    3.1250 C.3   349  GLU349      0.1567
    191  C        -17.3200  -15.4860    2.3160 C.2   349  GLU349      0.2260
    192  O        -18.5130  -15.7580    2.4220 O.2   349  GLU349     -0.2867
    193  CB       -16.2880  -15.7550    4.5680 C.3   349  GLU349      0.0388
    194  CG       -15.3790  -14.5790    4.8250 C.3   349  GLU349      0.1160
    195  CD       -13.9940  -15.0300    5.2510 C.2   349  GLU349      0.3649
    196  OE1      -13.1220  -15.2460    4.3780 O.co2 349  GLU349     -0.2457
    197  OE2      -13.7910  -15.1900    6.4750 O.co2 349  GLU349     -0.2457
@<TRIPOS>BOND
     1    74    77    1
     2    74    73    1
     3    74    75    1
     4    77    78    1
     5   121   120    2
     6   120   119    1
     7    82    83    1
     8    75    76    2
     9    86    83    1
    10    86    87    1
    11   122   119    1
    12   122   123    1
    13   125   124    2
    14    78    79    1
    15    83    84    1
    16   119   118    1
    17    88    87   ar
    18    79    80    1
    19   124   123    1
    20   124   126   am
    21    87    89   ar
    22   159   160    1
    23    81    80    1
    24    84    85    2
    25   160   161    1
    26   191   192    2
    27   191   190    1
    28     5     2    1
    29     5     6    1
    30     1     2    1
    31   189   190    1
    32     8     6   ar
    33     2     3    1
    34     6     7   ar
    35   162   161    2
    36   190   193    1
    37   161   163   am
    38    42    41    2
    39    41    40    1
    40     3     9   am
    41     3     4    2
    42   196   195   ar
    43    43    40    1
    44    43    44    1
    45   163   164    1
    46   179   178    2
    47   173   174    1
    48   193   194    1
    49   116   115    1
    50     9    10    1
    51    45    44    1
    52    45    46    1
    53   184   183    2
    54   194   195    1
    55   174   175    1
    56   174   177    1
    57    40    39    1
    58    90    91    1
    59   195   197   ar
    60   169   170    2
    61   169   168    1
    62   114   113    2
    63   178   180   am
    64   178   177    1
    65    47    46    1
    66   113   112    1
    67   164   165    1
    68    14    16    1
    69    14    13    1
    70   175   176    2
    71   175   181   am
    72   183   182    1
    73   165   167   am
    74   165   166    2
    75   115   112    1
    76   115   117    1
    77   167   168    1
    78    10    13    1
    79    10    11    1
    80   181   182    1
    81    91    92    1
    82    13    15    1
    83   168   171    1
    84    11    12    2
    85    11    17   am
    86   112   111    1
    87   171   172    1
    88   182   185    1
    89    17    18    1
    90    72    71    2
    91   185   186    1
    92    18    19    1
    93    56    54   am
    94    92    93    2
    95    92    94   am
    96    48    49    1
    97    70    71    1
    98    70    69    1
    99   111   105   am
   100    52    49    1
   101    52    53    1
   102    54    55    2
   103    54    53    1
   104    36    35    2
   105    49    50    1
   106   186   188    1
   107   186   187    1
   108    94    95    1
   109    38    37    1
   110    19    21   am
   111    19    20    2
   112    35    34    1
   113   105   106    2
   114   105   104    1
   115    21    22    1
   116   127   128    1
   117    50    51    2
   118    26    25    1
   119    95    96    1
   120    95    98    1
   121   103   104    1
   122   103    96   am
   123    37    34    1
   124    34    33    1
   125   104   107    1
   126    96    97    2
   127    33    29   am
   128    25    22    1
   129    22    23    1
   130   128   129    1
   131    98    99    1
   132    68    67    1
   133    27    23   am
   134    27    28    1
   135   107   108    1
   136    31    32    1
   137    31    28    1
   138    23    24    2
   139    29    28    1
   140    29    30    2
   141    67    65   ar
   142    67    66   ar
   143   152   151    2
   144   129   130    2
   145    65    63   ar
   146    99   100    1
   147    66    64   ar
   148   108   110   ar
   149   108   109   ar
   150   146   145    1
   151   146   147    1
   152   143   142    2
   153   148   147    1
   154   157   158   ar
   155   157   155   ar
   156   158   156   ar
   157    57    58    1
   158   155   154   ar
   159   151   150    1
   160    63    62   ar
   161   156   154   ar
   162   150   153    1
   163   150   149    1
   164    64    62   ar
   165   100   101   ar
   166   100   102   ar
   167   145   144    1
   168   154   153    1
   169    62    61    1
   170    58    61    1
   171    58    59    1
   172   142   149   am
   173   142   141    1
   174    59    60    2
   175   144   141    1
   176   141   140    1
   177   138   137   ar
   178   139   137   ar
   179   137   136    1
   180   134   133    2
   181   136   135    1
   182   133   132    1
   183   132   135    1
   184   132   131    1
