@<TRIPOS>MOLECULE
tmp/3wqtB00.pdb
 188 174 0 0 0
SMALL
GASTEIGER

@<TRIPOS>ATOM
      1  N         14.8320   -4.2140  -24.1610 N.3     5  ASP5       -0.1239
      2  CA        13.4140   -4.3930  -24.4490 C.3     5  ASP5        0.1674
      3  C         13.1740   -4.7870  -25.8930 C.2     5  ASP5        0.2266
      4  O         13.2860   -3.9660  -26.8020 O.2     5  ASP5       -0.2867
      5  CB        12.6210   -3.1170  -24.1470 C.3     5  ASP5        0.1410
      6  CG        11.2110   -3.1570  -24.7320 C.2     5  ASP5        0.3668
      7  OD1       10.5090   -4.1710  -24.5290 O.co2   5  ASP5       -0.2456
      8  OD2       10.8040   -2.1800  -25.3950 O.co2   5  ASP5       -0.2456
      9  N         10.9560   -4.9410  -28.2190 N.3     7  GLY7       -0.1210
     10  CA         9.6300   -4.4840  -28.5950 C.3     7  GLY7        0.1956
     11  C          9.2050   -4.8440  -30.0030 C.2     7  GLY7        0.2613
     12  O         10.0340   -4.9980  -30.8950 O.2     7  GLY7       -0.2717
     13  N          7.9000   -4.9830  -30.1970 N.am    8  SER8       -0.1938
     14  CA         7.3440   -5.3060  -31.5030 C.3     8  SER8        0.2055
     15  C          7.7840   -4.2860  -32.5520 C.2     8  SER8        0.2644
     16  O          8.1430   -4.6500  -33.6750 O.2     8  SER8       -0.2714
     17  CB         5.8170   -5.3360  -31.4230 C.3     8  SER8        0.2130
     18  OG         5.2400   -5.0220  -32.6770 O.3     8  SER8       -0.2179
     19  N          7.7530   -3.0100  -32.1760 N.am    9  SER9       -0.1935
     20  CA         8.1450   -1.9250  -33.0710 C.3     9  SER9        0.2055
     21  C          9.6510   -1.7380  -33.1070 C.2     9  SER9        0.2643
     22  O         10.2110   -1.3880  -34.1410 O.2     9  SER9       -0.2714
     23  CB         7.4890   -0.6110  -32.6360 C.3     9  SER9        0.2130
     24  OG         8.0640    0.4970  -33.3130 O.3     9  SER9       -0.2179
     25  N         10.3050   -1.9600  -31.9730 N.am   10  SER10      -0.1949
     26  CA        11.7480   -1.7980  -31.9090 C.3    10  SER10       0.1924
     27  C         12.3190   -2.2930  -30.5890 C.2    10  SER10       0.2314
     28  O         11.6040   -2.4440  -29.5920 O.2    10  SER10      -0.2863
     29  CB        12.1200   -0.3270  -32.0850 C.3    10  SER10       0.2116
     30  OG        11.8160    0.4060  -30.9160 O.3    10  SER10      -0.2180
     31  N         15.0140   -1.7080  -27.4650 N.3    12  LYS12      -0.1245
     32  CA        15.6780   -0.6010  -26.8030 C.3    12  LYS12       0.1561
     33  C         16.6250   -1.1120  -25.7290 C.2    12  LYS12       0.2260
     34  O         16.3920   -2.1610  -25.1300 O.2    12  LYS12      -0.2867
     35  CB        14.6600    0.3490  -26.1560 C.3    12  LYS12       0.0271
     36  CG        13.1800    0.0770  -26.4450 C.3    12  LYS12       0.0035
     37  CD        12.7260    0.6250  -27.7880 C.3    12  LYS12       0.0206
     38  CE        11.2490    1.0320  -27.7410 C.3    12  LYS12       0.1093
     39  NZ        10.3010   -0.0760  -27.4210 N.3    12  LYS12      -0.1314
     40  N         18.4950    2.1280  -29.5090 N.3    23  GLN23      -0.1245
     41  CA        17.2290    1.6410  -30.0410 C.3    23  GLN23       0.1566
     42  C         17.4200    1.1760  -31.4790 C.2    23  GLN23       0.2260
     43  O         18.2690    1.6970  -32.1990 O.2    23  GLN23      -0.2867
     44  CB        16.1670    2.7450  -29.9840 C.3    23  GLN23       0.0367
     45  CG        14.7830    2.3090  -30.4590 C.3    23  GLN23       0.0905
     46  CD        13.7090    3.3700  -30.2420 C.2    23  GLN23       0.2608
     47  OE1       12.5390    3.1480  -30.5490 O.2    23  GLN23      -0.2717
     48  NE2       14.1030    4.5250  -29.7120 N.am   23  GLN23      -0.0878
     49  N          4.8590   -8.7940  -29.5670 N.3    32  GLY32      -0.1225
     50  CA         5.7980   -9.0240  -28.4860 C.3    32  GLY32       0.1811
     51  C          6.5550  -10.3360  -28.5340 C.2    32  GLY32       0.2280
     52  O          7.4720  -10.5490  -27.7380 O.2    32  GLY32      -0.2866
     53  N         13.6260   -7.7760  -19.9770 N.3    62  LYS62      -0.1245
     54  CA        12.2210   -7.6390  -19.6300 C.3    62  LYS62       0.1561
     55  C         11.3820   -8.5680  -20.5040 C.2    62  LYS62       0.2260
     56  O         11.7440   -8.8440  -21.6510 O.2    62  LYS62      -0.2867
     57  CB        11.7910   -6.1760  -19.8130 C.3    62  LYS62       0.0271
     58  CG        10.4460   -5.9700  -20.4940 C.3    62  LYS62       0.0035
     59  CD        10.5410   -6.1540  -22.0030 C.3    62  LYS62       0.0206
     60  CE         9.1610   -6.1970  -22.6550 C.3    62  LYS62       0.1093
     61  NZ         8.4370   -4.8940  -22.5620 N.3    62  LYS62      -0.1314
     62  N         -0.0370    0.5100  -21.2130 N.3   187  ASP187     -0.1239
     63  CA         1.0080    0.7340  -22.2090 C.3   187  ASP187      0.1674
     64  C          0.4970    0.3210  -23.5790 C.2   187  ASP187      0.2266
     65  O          0.2500   -0.8620  -23.8280 O.2   187  ASP187     -0.2867
     66  CB         2.2550   -0.0880  -21.8680 C.3   187  ASP187      0.1410
     67  CG         3.4340    0.2210  -22.7750 C.2   187  ASP187      0.3668
     68  OD1        3.2530    0.2530  -24.0120 O.co2 187  ASP187     -0.2456
     69  OD2        4.5520    0.4230  -22.2480 O.co2 187  ASP187     -0.2456
     70  N          1.4870   -0.1030  -27.2180 N.3   189  GLY189     -0.1210
     71  CA         2.6430   -0.1800  -28.0910 C.3   189  GLY189      0.1956
     72  C          2.2280   -0.2230  -29.5480 C.2   189  GLY189      0.2612
     73  O          1.3250    0.5040  -29.9600 O.2   189  GLY189     -0.2717
     74  N          2.8900   -1.0660  -30.3360 N.am  190  GLU190     -0.1965
     75  CA         2.5490   -1.1830  -31.7440 C.3   190  GLU190      0.1733
     76  C          1.4980   -2.2660  -31.8950 C.2   190  GLU190      0.2616
     77  O          0.4270   -2.0250  -32.4530 O.2   190  GLU190     -0.2715
     78  CB         3.7870   -1.5200  -32.5790 C.3   190  GLU190      0.0429
     79  CG         3.5040   -1.6120  -34.0740 C.3   190  GLU190      0.1163
     80  CD         4.7520   -1.4580  -34.9260 C.2   190  GLU190      0.3649
     81  OE1        5.7100   -2.2460  -34.7520 O.co2 190  GLU190     -0.2457
     82  OE2        4.7740   -0.5420  -35.7750 O.co2 190  GLU190     -0.2457
     83  N          1.7900   -3.4550  -31.3770 N.am  191  ASP191     -0.1957
     84  CA         0.8360   -4.5520  -31.4730 C.3   191  ASP191      0.1840
     85  C          0.1350   -4.8430  -30.1470 C.2   191  ASP191      0.2621
     86  O         -1.0760   -5.0690  -30.1110 O.2   191  ASP191     -0.2715
     87  CB         1.5300   -5.8350  -31.9540 C.3   191  ASP191      0.1450
     88  CG         2.2790   -5.6520  -33.2660 C.2   191  ASP191      0.3671
     89  OD1        1.7340   -5.0050  -34.1920 O.co2 191  ASP191     -0.2456
     90  OD2        3.4100   -6.1780  -33.3710 O.co2 191  ASP191     -0.2456
     91  N          0.9000   -4.8320  -29.0600 N.am  192  VAL192     -0.1977
     92  CA         0.3630   -5.1380  -27.7400 C.3   192  VAL192      0.1596
     93  C          0.0960   -3.9540  -26.8120 C.2   192  VAL192      0.2287
     94  O          0.9330   -3.0570  -26.6660 O.2   192  VAL192     -0.2864
     95  CB         1.3070   -6.1070  -26.9820 C.3   192  VAL192      0.0276
     96  CG1        0.7930   -6.3450  -25.5590 C.3   192  VAL192      0.0022
     97  CG2        1.4200   -7.4170  -27.7400 C.3   192  VAL192      0.0022
     98  N         -0.6080   -3.3620  -22.9670 N.3   194  GLN194     -0.1245
     99  CA        -0.5370   -4.0370  -21.6730 C.3   194  GLN194      0.1566
    100  C         -1.2430   -3.3080  -20.5250 C.2   194  GLN194      0.2260
    101  O         -1.1930   -2.0800  -20.4160 O.2   194  GLN194     -0.2867
    102  CB         0.9290   -4.2870  -21.2990 C.3   194  GLN194      0.0367
    103  CG         1.7850   -4.7930  -22.4610 C.3   194  GLN194      0.0905
    104  CD         3.0610   -5.4850  -22.0120 C.2   194  GLN194      0.2608
    105  OE1        3.9100   -4.8950  -21.3350 O.2   194  GLN194     -0.2717
    106  NE2        3.2040   -6.7470  -22.3940 N.am  194  GLN194     -0.0878
    107  N         -0.9590    0.5500  -31.4040 N.3   213  GLY213     -0.1210
    108  CA        -0.6200    1.4720  -32.4760 C.3   213  GLY213      0.1956
    109  C         -0.7840    0.9540  -33.8970 C.2   213  GLY213      0.2611
    110  O         -1.4540    1.5790  -34.7230 O.2   213  GLY213     -0.2717
    111  N         -0.1610   -0.1840  -34.1850 N.am  214  ARG214     -0.1979
    112  CA        -0.2300   -0.7920  -35.5080 C.3   214  ARG214      0.1597
    113  C         -1.6650   -1.0770  -35.9310 C.2   214  ARG214      0.2287
    114  O         -1.9360   -1.2640  -37.1110 O.2   214  ARG214     -0.2864
    115  CB         0.6060   -2.0790  -35.5300 C.3   214  ARG214      0.0334
    116  CG         0.5290   -2.8950  -36.8120 C.3   214  ARG214      0.0492
    117  CD         1.7110   -3.8520  -36.8970 C.3   214  ARG214      0.2205
    118  NE         1.5400   -4.8730  -37.9250 N.pl3 214  ARG214     -0.0865
    119  CZ         1.2490   -4.6280  -39.2010 C.cat 214  ARG214      0.5346
    120  NH1        1.0870   -3.3830  -39.6350 N.pl3 214  ARG214      0.1354
    121  NH2        1.1190   -5.6380  -40.0520 N.pl3 214  ARG214      0.1354
    122  N          1.2340    5.4240  -41.6800 N.3   232  GLU232     -0.1245
    123  CA         2.0850    5.4650  -40.4980 C.3   232  GLU232      0.1567
    124  C          2.7160    6.8540  -40.3640 C.2   232  GLU232      0.2260
    125  O          2.9000    7.3600  -39.2620 O.2   232  GLU232     -0.2867
    126  CB         3.1820    4.4010  -40.6160 C.3   232  GLU232      0.0388
    127  CG         4.1890    4.3810  -39.4720 C.3   232  GLU232      0.1160
    128  CD         3.6070    3.8410  -38.1790 C.2   232  GLU232      0.3649
    129  OE1        4.3340    3.8290  -37.1660 O.co2 232  GLU232     -0.2457
    130  OE2        2.4270    3.4250  -38.1720 O.co2 232  GLU232     -0.2457
    131  N         -0.0450    9.2540  -39.0720 N.3   235  LYS235     -0.1231
    132  CA        -0.4510    9.0020  -37.6930 C.3   235  LYS235      0.1693
    133  C          0.4500    9.7470  -36.7230 C.2   235  LYS235      0.2592
    134  O         -0.0040   10.2220  -35.6850 O.2   235  LYS235     -0.2718
    135  CB        -0.4100    7.5050  -37.3640 C.3   235  LYS235      0.0285
    136  CG        -1.1010    7.1680  -36.0390 C.3   235  LYS235      0.0035
    137  CD        -0.2380    6.3150  -35.1160 C.3   235  LYS235      0.0206
    138  CE        -0.1100    4.8830  -35.6060 C.3   235  LYS235      0.1093
    139  NZ         0.7880    4.0560  -34.7420 N.3   235  LYS235     -0.1314
    140  N          1.7320    9.8420  -37.0570 N.am  236  HIS236     -0.1976
    141  CA         2.6740   10.5420  -36.1950 C.3   236  HIS236      0.1656
    142  C          2.6070   12.0560  -36.3980 C.2   236  HIS236      0.2291
    143  O          2.6290   12.8190  -35.4320 O.2   236  HIS236     -0.2864
    144  CB         4.1150   10.0790  -36.4610 C.3   236  HIS236      0.0771
    145  CG         4.3840    8.6520  -36.0910 C.ar  236  HIS236      0.0820
    146  ND1        5.5790    8.2430  -35.5350 N.ar  236  HIS236     -0.2267
    147  CD2        3.6410    7.5310  -36.2440 C.ar  236  HIS236      0.1154
    148  CE1        5.5600    6.9340  -35.3630 C.ar  236  HIS236      0.1986
    149  NE2        4.3950    6.4770  -35.7850 N.ar  236  HIS236     -0.2212
    150  N          3.8710    4.3010  -23.2780 N.3   284  GLY284     -0.1210
    151  CA         4.1580    3.5060  -24.4600 C.3   284  GLY284      0.1956
    152  C          4.0860    4.3730  -25.7070 C.2   284  GLY284      0.2612
    153  O          3.5040    5.4530  -25.6800 O.2   284  GLY284     -0.2717
    154  N          4.6700    3.9040  -26.8030 N.am  285  GLY285     -0.1942
    155  CA         4.6700    4.6670  -28.0390 C.3   285  GLY285      0.2014
    156  C          3.3710    5.3300  -28.4720 C.2   285  GLY285      0.2639
    157  O          3.3760    6.4960  -28.8600 O.2   285  GLY285     -0.2714
    158  N          2.2570    4.6090  -28.4230 N.am  286  SER286     -0.1949
    159  CA         0.9890    5.1960  -28.8380 C.3   286  SER286      0.1924
    160  C          0.5490    6.3350  -27.9190 C.2   286  SER286      0.2314
    161  O         -0.4060    7.0560  -28.2210 O.2   286  SER286     -0.2863
    162  CB        -0.0970    4.1210  -28.8930 C.3   286  SER286      0.2116
    163  OG         0.2050    3.1540  -29.8840 O.3   286  SER286     -0.2180
    164  N          2.1470    8.9190  -27.4490 N.3   288  ASN288     -0.1225
    165  CA         2.6610   10.1650  -28.0220 C.3   288  ASN288      0.1785
    166  C          1.5460   10.7810  -28.8600 C.2   288  ASN288      0.2597
    167  O          1.6440   11.9200  -29.3200 O.2   288  ASN288     -0.2718
    168  CB         3.8780    9.8980  -28.9130 C.3   288  ASN288      0.1169
    169  CG         5.0800    9.4140  -28.1330 C.2   288  ASN288      0.2627
    170  OD1        5.6680   10.1590  -27.3530 O.2   288  ASN288     -0.2716
    171  ND2        5.4540    8.1580  -28.3420 N.am  288  ASN288     -0.0877
    172  N          0.4850   10.0040  -29.0510 N.am  289  LEU289     -0.1980
    173  CA        -0.6770   10.4250  -29.8240 C.3   289  LEU289      0.1596
    174  C         -1.4650   11.4970  -29.0630 C.2   289  LEU289      0.2287
    175  O         -1.8580   11.2970  -27.9150 O.2   289  LEU289     -0.2864
    176  CB        -1.5620    9.2070  -30.0910 C.3   289  LEU289      0.0297
    177  CG        -2.7580    9.2930  -31.0380 C.3   289  LEU289      0.0022
    178  CD1       -2.2870    9.4440  -32.4840 C.3   289  LEU289      0.0001
    179  CD2       -3.5820    8.0240  -30.8800 C.3   289  LEU289      0.0001
    180  N          7.8660    5.2680  -24.9210 N.3   315  GLU315     -0.1245
    181  CA         8.4260    3.9640  -25.2560 C.3   315  GLU315      0.1567
    182  C          9.4450    3.4000  -24.2580 C.2   315  GLU315      0.2260
    183  O          9.4220    2.2050  -23.9640 O.2   315  GLU315     -0.2867
    184  CB         9.0490    4.0180  -26.6560 C.3   315  GLU315      0.0388
    185  CG         9.8360    5.2960  -26.9520 C.3   315  GLU315      0.1160
    186  CD         9.0520    6.2940  -27.8030 C.2   315  GLU315      0.3649
    187  OE1        7.9640    6.7360  -27.3720 O.co2 315  GLU315     -0.2457
    188  OE2        9.5310    6.6350  -28.9060 O.co2 315  GLU315     -0.2457
@<TRIPOS>BOND
     1   122   123    1
     2   126   123    1
     3   126   127    1
     4   123   124    1
     5   124   125    2
     6   121   119    1
     7   120   119    1
     8   127   128    1
     9   119   118    2
    10   131   132    1
    11   128   130   ar
    12   128   129   ar
    13   118   117    1
    14   132   135    1
    15   132   133    1
    16   135   136    1
    17   114   113    2
    18   140   133   am
    19   140   141    1
    20   117   116    1
    21   116   115    1
    22   133   134    2
    23   144   141    1
    24   144   145    1
    25   142   141    1
    26   142   143    2
    27   147   145   ar
    28   147   149   ar
    29   145   146   ar
    30   136   137    1
    31   113   112    1
    32   149   148   ar
    33    82    80   ar
    34   138   137    1
    35   138   139    1
    36   146   148   ar
    37   115   112    1
    38   112   111    1
    39    80    81   ar
    40    80    79    1
    41   110   109    2
    42    89    88   ar
    43   111   109   am
    44    22    21    2
    45    79    78    1
    46   109   108    1
    47    16    15    2
    48    90    88   ar
    49    24    23    1
    50    88    87    1
    51    21    20    1
    52    21    25   am
    53    20    23    1
    54    20    19    1
    55    18    17    1
    56    78    75    1
    57    15    19   am
    58    15    14    1
    59   178   177    1
    60   108   107    1
    61    77    76    2
    62    43    42    2
    63    29    26    1
    64    29    30    1
    65    25    26    1
    66    87    84    1
    67    26    27    1
    68    76    75    1
    69    76    83   am
    70    75    74    1
    71    14    17    1
    72    14    13    1
    73    42    41    1
    74    84    83    1
    75    84    85    1
    76   177   179    1
    77   177   176    1
    78    12    11    2
    79    27    28    2
    80    47    46    2
    81    45    46    1
    82    45    44    1
    83    74    72   am
    84    46    48   am
    85    13    11   am
    86    85    86    2
    87    85    91   am
    88   176   173    1
    89    41    44    1
    90    41    40    1
    91    11    10    1
    92    73    72    2
    93   163   162    1
    94   173   174    1
    95   173   172    1
    96    49    50    1
    97    72    71    1
    98   167   166    2
    99   174   175    2
   100    91    92    1
   101   172   166   am
   102   168   169    1
   103   168   165    1
   104   188   186   ar
   105   162   159    1
   106   157   156    2
   107   166   165    1
   108   159   158    1
   109   159   160    1
   110    10     9    1
   111    51    50    1
   112    51    52    2
   113   156   158   am
   114   156   155    1
   115   171   169   am
   116   161   160    2
   117   169   170    2
   118    71    70    1
   119   155   154    1
   120   165   164    1
   121   186   187   ar
   122   186   185    1
   123    37    38    1
   124    37    36    1
   125    38    39    1
   126    92    95    1
   127    92    93    1
   128    97    95    1
   129    31    32    1
   130    95    96    1
   131   185   184    1
   132    93    94    2
   133   154   152   am
   134    32    35    1
   135    32    33    1
   136     4     3    2
   137   184   181    1
   138    36    35    1
   139     3     2    1
   140    33    34    2
   141   152   153    2
   142   152   151    1
   143     8     6   ar
   144   181   180    1
   145   181   182    1
   146     6     7   ar
   147     6     5    1
   148   151   150    1
   149     2     1    1
   150     2     5    1
   151   182   183    2
   152    68    67   ar
   153    65    64    2
   154    64    63    1
   155    98    99    1
   156    67    69   ar
   157    67    66    1
   158    60    61    1
   159    60    59    1
   160   103   104    1
   161   103   102    1
   162   106   104   am
   163    63    66    1
   164    63    62    1
   165   104   105    2
   166    59    58    1
   167    99   102    1
   168    99   100    1
   169    56    55    2
   170   100   101    2
   171    55    54    1
   172    58    57    1
   173    53    54    1
   174    57    54    1
