@<TRIPOS>MOLECULE
tmp/3wqwA00.pdb
 229 226 0 0 0
SMALL
GASTEIGER

@<TRIPOS>ATOM
      1  N        -39.1170   15.8530   11.0650 N.3     7  TYR7       -0.1241
      2  CA       -37.8590   16.2990   10.4900 C.3     7  TYR7        0.1605
      3  C        -37.0680   17.0370   11.5390 C.2     7  TYR7        0.2264
      4  O        -37.6190   17.8610   12.2360 O.2     7  TYR7       -0.2867
      5  CB       -38.1110   17.2520    9.3190 C.3     7  TYR7        0.0534
      6  CG       -38.4880   16.4670    8.0580 C.ar    7  TYR7       -0.0201
      7  CD1      -39.8250   16.1540    7.7790 C.ar    7  TYR7       -0.0009
      8  CD2      -37.4970   16.0520    7.1500 C.ar    7  TYR7       -0.0009
      9  CE1      -40.2020   15.4500    6.5810 C.ar    7  TYR7        0.0417
     10  CE2      -37.8540   15.3220    5.9430 C.ar    7  TYR7        0.0417
     11  CZ       -39.1820   15.0590    5.6660 C.ar    7  TYR7        0.1957
     12  OH       -39.5110   14.3470    4.5270 O.3     7  TYR7       -0.2866
     13  N        -28.9300   22.2800   11.4450 N.3    11  TRP11      -0.1241
     14  CA       -28.3860   23.6310   11.6440 C.3    11  TRP11       0.1605
     15  C        -29.0490   24.3670   12.8230 C.2    11  TRP11       0.2264
     16  O        -28.6520   25.4640   13.1540 O.2    11  TRP11      -0.2867
     17  CB       -28.4990   24.4540   10.3530 C.3    11  TRP11       0.0550
     18  CG       -29.9450   24.6880    9.9380 C.ar   11  TRP11       0.0003
     19  CD1      -30.7280   25.7660   10.2630 C.ar   11  TRP11       0.0946
     20  CD2      -30.7460   23.8330    9.1190 C.ar   11  TRP11       0.0152
     21  NE1      -31.9680   25.6250    9.7090 N.ar   11  TRP11      -0.2442
     22  CE2      -32.0170   24.4420    9.0110 C.ar   11  TRP11       0.0810
     23  CE3      -30.5180   22.5860    8.4940 C.ar   11  TRP11       0.0012
     24  CZ2      -33.0750   23.8660    8.2870 C.ar   11  TRP11       0.0191
     25  CZ3      -31.5760   21.9880    7.7680 C.ar   11  TRP11       0.0001
     26  CH2      -32.8350   22.6410    7.6630 C.ar   11  TRP11       0.0015
     27  N        -27.0860   25.9510   15.8730 N.3    14  TYR14      -0.1227
     28  CA       -26.4020   27.2650   15.8060 C.3    14  TYR14       0.1736
     29  C        -27.2920   28.4840   16.1410 C.2    14  TYR14       0.2595
     30  O        -26.8060   29.6340   16.1870 O.2    14  TYR14      -0.2718
     31  CB       -25.7420   27.4640   14.4200 C.3    14  TYR14       0.0548
     32  CG       -24.7680   26.3680   14.0650 C.ar   14  TYR14      -0.0200
     33  CD1      -23.4980   26.3140   14.6540 C.ar   14  TYR14      -0.0009
     34  CD2      -25.1140   25.3720   13.1510 C.ar   14  TYR14      -0.0009
     35  CE1      -22.5770   25.3090   14.3140 C.ar   14  TYR14       0.0417
     36  CE2      -24.2070   24.3480   12.8140 C.ar   14  TYR14       0.0417
     37  CZ       -22.9510   24.3180   13.4030 C.ar   14  TYR14       0.1957
     38  OH       -22.0660   23.2960   13.0620 O.3    14  TYR14      -0.2866
     39  N        -28.5920   28.2620   16.3650 N.am   15  ARG15      -0.1966
     40  CA       -29.4700   29.3700   16.7450 C.3    15  ARG15       0.1714
     41  C        -29.1040   29.8530   18.1510 C.2    15  ARG15       0.2458
     42  O        -28.7730   29.0430   19.0210 O.2    15  ARG15      -0.2730
     43  CB       -30.9240   28.8890   16.7190 C.3    15  ARG15       0.0347
     44  CG       -31.4280   28.6590   15.2730 C.3    15  ARG15       0.0492
     45  CD       -32.8150   28.0310   15.2300 C.3    15  ARG15       0.2205
     46  NE       -33.1170   27.6970   13.8250 N.pl3  15  ARG15      -0.0865
     47  CZ       -33.9190   26.7100   13.4360 C.cat  15  ARG15       0.5346
     48  NH1      -34.5540   25.9890   14.3720 N.pl3  15  ARG15       0.1354
     49  NH2      -34.1080   26.4640   12.1090 N.pl3  15  ARG15       0.1354
     50  N        -29.1500   31.1670   18.3790 N.am   16  PRO16      -0.2727
     51  CA       -28.6260   31.7190   19.6430 C.3    16  PRO16       0.1402
     52  C        -29.5920   31.5390   20.8140 C.2    16  PRO16       0.2269
     53  O        -30.7880   31.3020   20.6000 O.2    16  PRO16      -0.2865
     54  CB       -28.4900   33.2160   19.3410 C.3    16  PRO16       0.0296
     55  CG       -29.5480   33.4780   18.3440 C.3    16  PRO16       0.0237
     56  CD       -29.5900   32.2320   17.4590 C.3    16  PRO16       0.0939
     57  N        -29.8830   18.0370    6.6080 N.3    38  PHE38      -0.1241
     58  CA       -29.9100   17.3040    5.3390 C.3    38  PHE38       0.1605
     59  C        -28.4870   16.8060    5.0340 C.2    38  PHE38       0.2264
     60  O        -27.4980   17.4050    5.4910 O.2    38  PHE38      -0.2867
     61  CB       -30.3350   18.2030    4.1550 C.3    38  PHE38       0.0534
     62  CG       -31.7820   18.5920    4.1830 C.ar   38  PHE38      -0.0203
     63  CD1      -32.7580   17.6600    3.8630 C.ar   38  PHE38      -0.0042
     64  CD2      -32.1630   19.8720    4.5650 C.ar   38  PHE38      -0.0042
     65  CE1      -34.1280   17.9620    3.9520 C.ar   38  PHE38      -0.0003
     66  CE2      -33.5110   20.2050    4.6040 C.ar   38  PHE38      -0.0003
     67  CZ       -34.5070   19.2390    4.3090 C.ar   38  PHE38      -0.0000
     68  N        -22.8620   17.8660    4.6130 N.3    51  ILE51      -0.1245
     69  CA       -22.9470   19.2820    4.4450 C.3    51  ILE51       0.1561
     70  C        -22.2670   20.0410    5.6060 C.2    51  ILE51       0.2260
     71  O        -21.7230   21.1040    5.4020 O.2    51  ILE51      -0.2867
     72  CB       -24.4480   19.7100    4.2340 C.3    51  ILE51       0.0252
     73  CG1      -24.9200   19.1570    2.8680 C.3    51  ILE51       0.0019
     74  CG2      -24.6040   21.2590    4.2250 C.3    51  ILE51       0.0019
     75  CD1      -26.4540   19.3380    2.5570 C.3    51  ILE51       0.0001
     76  N        -31.0710   16.2050    0.0950 N.3    82  GLY82      -0.1210
     77  CA       -31.6850   17.2300   -0.7220 C.3    82  GLY82       0.1956
     78  C        -32.0470   18.4270    0.1370 C.2    82  GLY82       0.2612
     79  O        -31.1800   18.9340    0.8650 O.2    82  GLY82      -0.2717
     80  N        -33.3120   18.8460    0.1130 N.am   83  GLY83      -0.1942
     81  CA       -33.7210   20.0520    0.8440 C.3    83  GLY83       0.2014
     82  C        -33.6520   21.2550   -0.0890 C.2    83  GLY83       0.2639
     83  O        -33.0090   21.2070   -1.1430 O.2    83  GLY83      -0.2714
     84  N        -34.2930   22.3540    0.2890 N.am   84  TRP84      -0.1959
     85  CA       -34.3400   23.5220   -0.6360 C.3    84  TRP84       0.1771
     86  C        -32.9460   24.1090   -0.9340 C.2    84  TRP84       0.2620
     87  O        -32.5940   24.3890   -2.0950 O.2    84  TRP84      -0.2715
     88  CB       -35.2530   24.5990   -0.0320 C.3    84  TRP84       0.0590
     89  CG       -35.5310   25.7040   -1.0210 C.ar   84  TRP84       0.0006
     90  CD1      -35.0130   26.9890   -1.0280 C.ar   84  TRP84       0.0946
     91  CD2      -36.3820   25.5970   -2.1530 C.ar   84  TRP84       0.0152
     92  NE1      -35.5200   27.6720   -2.1160 N.ar   84  TRP84      -0.2442
     93  CE2      -36.3660   26.8480   -2.8140 C.ar   84  TRP84       0.0810
     94  CE3      -37.1800   24.5560   -2.6720 C.ar   84  TRP84       0.0012
     95  CZ2      -37.1160   27.0970   -3.9740 C.ar   84  TRP84       0.0191
     96  CZ3      -37.9260   24.8080   -3.8520 C.ar   84  TRP84       0.0001
     97  CH2      -37.8890   26.0660   -4.4670 C.ar   84  TRP84       0.0015
     98  N        -32.1370   24.2740    0.1120 N.am   85  ALA85      -0.1963
     99  CA       -30.8290   24.9000   -0.0520 C.3    85  ALA85       0.1728
    100  C        -29.8870   24.1340   -0.9630 C.2    85  ALA85       0.2616
    101  O        -29.0180   24.7360   -1.5830 O.2    85  ALA85      -0.2715
    102  CB       -30.1440   25.1690    1.3200 C.3    85  ALA85       0.0334
    103  N        -30.0640   22.8200   -1.0730 N.am   86  GLU86      -0.1977
    104  CA       -29.2400   22.0130   -1.9800 C.3    86  GLU86       0.1602
    105  C        -29.4330   22.3240   -3.4620 C.2    86  GLU86       0.2287
    106  O        -28.5480   22.0110   -4.2420 O.2    86  GLU86      -0.2864
    107  CB       -29.5000   20.4890   -1.7460 C.3    86  GLU86       0.0415
    108  CG       -28.4240   19.8550   -0.8530 C.3    86  GLU86       0.1163
    109  CD       -27.1830   19.5380   -1.6510 C.2    86  GLU86       0.3649
    110  OE1      -27.2510   18.5570   -2.4260 O.co2  86  GLU86      -0.2457
    111  OE2      -26.1710   20.2770   -1.5090 O.co2  86  GLU86      -0.2457
    112  N        -35.4750   14.1090   -0.7720 N.3   123  ASP123     -0.1239
    113  CA       -36.0800   15.4290   -0.7630 C.3   123  ASP123      0.1674
    114  C        -35.4800   16.3310   -1.8590 C.2   123  ASP123      0.2266
    115  O        -35.0190   17.4450   -1.5990 O.2   123  ASP123     -0.2867
    116  CB       -35.9370   16.0820    0.6210 C.3   123  ASP123      0.1410
    117  CG       -36.7150   17.3760    0.7320 C.2   123  ASP123      0.3668
    118  OD1      -37.6510   17.6050   -0.0700 O.co2 123  ASP123     -0.2456
    119  OD2      -36.3700   18.1690    1.5980 O.co2 123  ASP123     -0.2456
    120  N        -35.9430   18.8510   -4.5460 N.3   125  GLU125     -0.1245
    121  CA       -36.9950   19.8070   -4.8630 C.3   125  GLU125      0.1567
    122  C        -36.5950   20.6600   -6.0540 C.2   125  GLU125      0.2260
    123  O        -35.8710   21.6430   -5.8960 O.2   125  GLU125     -0.2867
    124  CB       -37.2940   20.6960   -3.6540 C.3   125  GLU125      0.0388
    125  CG       -37.8030   19.9400   -2.4380 C.3   125  GLU125      0.1160
    126  CD       -37.7250   20.7610   -1.1660 C.2   125  GLU125      0.3649
    127  OE1      -37.3120   21.9380   -1.2410 O.co2 125  GLU125     -0.2457
    128  OE2      -38.0750   20.2300   -0.0910 O.co2 125  GLU125     -0.2457
    129  N        -40.2160   13.3010    0.3320 N.3   165  ALA165     -0.1245
    130  CA       -40.9700   14.5230    0.6140 C.3   165  ALA165      0.1562
    131  C        -41.3960   15.0720   -0.7620 C.2   165  ALA165      0.2260
    132  O        -40.5630   15.1380   -1.6790 O.2   165  ALA165     -0.2867
    133  CB       -40.0490   15.5370    1.3330 C.3   165  ALA165      0.0290
    134  N        -45.5140   17.8720    1.6100 N.3   192  MET192     -0.1245
    135  CA       -45.1680   19.2130    2.0930 C.3   192  MET192      0.1570
    136  C        -46.3400   20.1560    1.9180 C.2   192  MET192      0.2261
    137  O        -46.3390   21.0240    1.0400 O.2   192  MET192     -0.2867
    138  CB       -43.9000   19.7030    1.3550 C.3   192  MET192      0.0387
    139  CG       -42.7210   18.7500    1.7170 C.3   192  MET192      0.0595
    140  SD       -41.1710   19.3580    0.9510 S.3   192  MET192     -0.1393
    141  CE       -41.4120   18.8570   -0.7750 C.3   192  MET192      0.0692
    142  N        -47.4570   22.8580    2.9790 N.3   194  TYR194     -0.1227
    143  CA       -47.1370   24.1450    3.6110 C.3   194  TYR194      0.1736
    144  C        -46.2780   24.9210    2.6060 C.2   194  TYR194      0.2595
    145  O        -46.0360   24.4180    1.4980 O.2   194  TYR194     -0.2718
    146  CB       -46.4250   23.9440    4.9880 C.3   194  TYR194      0.0548
    147  CG       -45.2520   22.9680    4.9080 C.ar  194  TYR194     -0.0200
    148  CD1      -44.0730   23.3310    4.2290 C.ar  194  TYR194     -0.0009
    149  CD2      -45.3250   21.7010    5.4900 C.ar  194  TYR194     -0.0009
    150  CE1      -42.9760   22.4420    4.1200 C.ar  194  TYR194      0.0417
    151  CE2      -44.2290   20.7980    5.4020 C.ar  194  TYR194      0.0417
    152  CZ       -43.0630   21.2020    4.7050 C.ar  194  TYR194      0.1957
    153  OH       -42.0010   20.3490    4.5970 O.3   194  TYR194     -0.2866
    154  N        -45.8670   26.1450    2.9410 N.am  195  ASP195     -0.1974
    155  CA       -45.3050   27.0460    1.9160 C.3   195  ASP195      0.1709
    156  C        -46.2290   27.0800    0.6880 C.2   195  ASP195      0.2293
    157  O        -45.7700   27.2460   -0.4610 O.2   195  ASP195     -0.2864
    158  CB       -43.9120   26.5860    1.4750 C.3   195  ASP195      0.1436
    159  CG       -42.8040   27.0740    2.4230 C.2   195  ASP195      0.3671
    160  OD1      -43.1150   27.7380    3.4480 O.co2 195  ASP195     -0.2456
    161  OD2      -41.6120   26.8240    2.1110 O.co2 195  ASP195     -0.2456
    162  N        -44.1030   26.6440   11.8030 N.3   249  TYR249     -0.1241
    163  CA       -43.5360   27.9410   11.4820 C.3   249  TYR249      0.1605
    164  C        -44.5320   28.7250   10.6480 C.2   249  TYR249      0.2264
    165  O        -45.4790   28.1360   10.1040 O.2   249  TYR249     -0.2867
    166  CB       -42.1840   27.8300   10.7550 C.3   249  TYR249      0.0534
    167  CG       -42.3560   27.3490    9.3220 C.ar  249  TYR249     -0.0201
    168  CD1      -42.4350   26.0070    9.0480 C.ar  249  TYR249     -0.0009
    169  CD2      -42.4800   28.2700    8.2560 C.ar  249  TYR249     -0.0009
    170  CE1      -42.6300   25.5330    7.7340 C.ar  249  TYR249      0.0417
    171  CE2      -42.6750   27.8320    6.9330 C.ar  249  TYR249      0.0417
    172  CZ       -42.7270   26.4450    6.6870 C.ar  249  TYR249      0.1957
    173  OH       -42.9200   25.9900    5.3790 O.3   249  TYR249     -0.2866
    174  N        -45.2040   31.8980    7.6010 N.3   251  ARG251     -0.1245
    175  CA       -44.6890   32.7600    6.5070 C.3   251  ARG251      0.1563
    176  C        -45.1590   34.1560    6.7810 C.2   251  ARG251      0.2260
    177  O        -46.3760   34.4000    6.9660 O.2   251  ARG251     -0.2867
    178  CB       -45.2030   32.2660    5.1350 C.3   251  ARG251      0.0307
    179  CG       -44.4560   30.9610    4.7050 C.3   251  ARG251      0.0489
    180  CD       -42.9780   31.3820    4.2820 C.3   251  ARG251      0.2205
    181  NE       -42.1410   30.2630    3.8630 N.pl3 251  ARG251     -0.0865
    182  CZ       -40.8440   30.3620    3.5950 C.cat 251  ARG251      0.5346
    183  NH1      -40.2360   31.5290    3.7820 N.pl3 251  ARG251      0.1354
    184  NH2      -40.1480   29.2890    3.2140 N.pl3 251  ARG251      0.1354
    185  N        -34.3290   32.5420   14.2540 N.3   281  THR281     -0.1203
    186  CA       -34.1810   31.9610   12.9080 C.3   281  THR281      0.1994
    187  C        -33.5470   32.9920   11.9640 C.2   281  THR281      0.2618
    188  O        -32.9570   32.6480   10.9710 O.2   281  THR281     -0.2717
    189  CB       -35.5440   31.5280   12.3360 C.3   281  THR281      0.1784
    190  OG1      -36.4700   32.6030   12.5150 O.3   281  THR281     -0.2211
    191  CG2      -36.0560   30.2500   13.0740 C.3   281  THR281      0.0376
    192  N        -33.6780   34.2560   12.3040 N.am  282  ASN282     -0.1960
    193  CA       -33.0260   35.3270   11.5380 C.3   282  ASN282      0.1819
    194  C        -33.2040   35.1760   10.0160 C.2   282  ASN282      0.2621
    195  O        -32.2110   35.1700    9.2600 O.2   282  ASN282     -0.2715
    196  CB       -31.5200   35.3350   11.8660 C.3   282  ASN282      0.1195
    197  CG       -30.8120   36.5410   11.2560 C.2   282  ASN282      0.2630
    198  OD1      -31.4410   37.5740   11.0480 O.2   282  ASN282     -0.2716
    199  ND2      -29.5270   36.3820   10.9170 N.am  282  ASN282     -0.0877
    200  N        -34.4480   35.0080    9.5620 N.am  283  ALA283     -0.1977
    201  CA       -34.6970   34.7710    8.1400 C.3   283  ALA283      0.1597
    202  C        -35.9160   35.5700    7.7470 C.2   283  ALA283      0.2287
    203  O        -37.0230   35.4030    8.3170 O.2   283  ALA283     -0.2864
    204  CB       -34.9560   33.2510    7.8940 C.3   283  ALA283      0.0319
    205  N        -39.9120   34.3010    7.4570 N.3   286  PHE286     -0.1241
    206  CA       -39.9700   32.9510    8.0340 C.3   286  PHE286      0.1605
    207  C        -39.8180   33.0010    9.5540 C.2   286  PHE286      0.2264
    208  O        -38.7280   33.3280   10.0280 O.2   286  PHE286     -0.2867
    209  CB       -38.7870   32.1410    7.4600 C.3   286  PHE286      0.0534
    210  CG       -38.8150   30.6540    7.8030 C.ar  286  PHE286     -0.0203
    211  CD1      -39.2760   29.7320    6.8830 C.ar  286  PHE286     -0.0042
    212  CD2      -38.3620   30.2000    9.0410 C.ar  286  PHE286     -0.0042
    213  CE1      -39.3110   28.3470    7.1790 C.ar  286  PHE286     -0.0003
    214  CE2      -38.3850   28.8300    9.3500 C.ar  286  PHE286     -0.0003
    215  CZ       -38.8650   27.9050    8.4140 C.ar  286  PHE286     -0.0000
    216  N        -42.5190   19.9010    9.6170 N.3   349  TRP349     -0.1241
    217  CA       -41.3140   20.7030    9.3320 C.3   349  TRP349      0.1605
    218  C        -41.3770   21.8690   10.3360 C.2   349  TRP349      0.2264
    219  O        -42.2250   22.7230   10.1800 O.2   349  TRP349     -0.2867
    220  CB       -41.2990   21.3080    7.8730 C.3   349  TRP349      0.0550
    221  CG       -39.9520   22.0000    7.7420 C.ar  349  TRP349      0.0003
    222  CD1      -39.6560   23.3240    8.0350 C.ar  349  TRP349      0.0946
    223  CD2      -38.7010   21.3540    7.4870 C.ar  349  TRP349      0.0152
    224  NE1      -38.2920   23.5400    7.9000 N.ar  349  TRP349     -0.2442
    225  CE2      -37.6870   22.3340    7.6090 C.ar  349  TRP349      0.0810
    226  CE3      -38.3410   20.0080    7.1900 C.ar  349  TRP349      0.0012
    227  CZ2      -36.3410   22.0460    7.4080 C.ar  349  TRP349      0.0191
    228  CZ3      -37.0010   19.7150    7.0070 C.ar  349  TRP349      0.0001
    229  CH2      -36.0070   20.7360    7.1150 C.ar  349  TRP349      0.0015
@<TRIPOS>BOND
     1   122   123    2
     2   122   121    1
     3   121   120    1
     4   121   124    1
     5    97    95   ar
     6    97    96   ar
     7   106   105    2
     8    95    93   ar
     9    96    94   ar
    10   124   125    1
    11   105   104    1
    12    93    91   ar
    13    93    92   ar
    14    94    91   ar
    15   125   126    1
    16   110   109   ar
    17    91    89   ar
    18    92    90   ar
    19    87    86    2
    20   104   107    1
    21   104   103    1
    22   114   115    2
    23   114   113    1
    24   107   108    1
    25   132   131    2
    26   109   111   ar
    27   109   108    1
    28   101   100    2
    29   127   126   ar
    30   126   128   ar
    31    83    82    2
    32   103   100   am
    33    90    89   ar
    34    89    88    1
    35   100    99    1
    36    86    85    1
    37    86    98   am
    38   141   140    1
    39   112   113    1
    40   113   116    1
    41   131   130    1
    42    77    76    1
    43    77    78    1
    44    85    88    1
    45    85    84    1
    46   157   156    2
    47    82    84   am
    48    82    81    1
    49   118   117   ar
    50    99    98    1
    51    99   102    1
    52    80    78   am
    53    80    81    1
    54    78    79    2
    55   129   130    1
    56   130   133    1
    57   116   117    1
    58   156   155    1
    59   117   119   ar
    60   140   139    1
    61   137   136    2
    62   138   139    1
    63   138   135    1
    64   158   155    1
    65   158   159    1
    66   145   144    2
    67   134   135    1
    68   155   154    1
    69   136   135    1
    70   161   159   ar
    71   159   160   ar
    72    75    73    1
    73   144   154   am
    74   144   143    1
    75    73    72    1
    76   142   143    1
    77   184   182    1
    78   182   183    1
    79   182   181    2
    80   143   146    1
    81   181   180    1
    82    63    65   ar
    83    63    62   ar
    84    65    67   ar
    85   150   148   ar
    86   150   152   ar
    87    61    62    1
    88    61    58    1
    89    62    64   ar
    90    74    72    1
    91   148   147   ar
    92    72    69    1
    93   180   179    1
    94    67    66   ar
    95    69    68    1
    96    69    70    1
    97    12    11    1
    98    64    66   ar
    99   153   152    1
   100   179   178    1
   101   152   151   ar
   102   147   146    1
   103   147   149   ar
   104    59    58    1
   105    59    60    2
   106   178   175    1
   107    58    57    1
   108   173   172    1
   109   151   149   ar
   110    71    70    2
   111    11    10   ar
   112    11     9   ar
   113    10     8   ar
   114   175   176    1
   115   175   174    1
   116     9     7   ar
   117   172   171   ar
   118   172   170   ar
   119   176   177    2
   120   211   213   ar
   121   211   210   ar
   122   171   169   ar
   123   228   229   ar
   124   228   226   ar
   125   229   227   ar
   126     8     6   ar
   127   213   215   ar
   128   226   223   ar
   129   227   225   ar
   130   205   206    1
   131   209   210    1
   132   209   206    1
   133   223   225   ar
   134   223   221   ar
   135   225   224   ar
   136    26    25   ar
   137    26    24   ar
   138   170   168   ar
   139   221   220    1
   140   221   222   ar
   141   202   201    1
   142   202   203    2
   143    25    23   ar
   144     7     6   ar
   145   210   212   ar
   146   220   217    1
   147   204   201    1
   148   224   222   ar
   149   206   207    1
   150     6     5    1
   151   201   200    1
   152   169   167   ar
   153    24    22   ar
   154   215   214   ar
   155    23    20   ar
   156    22    20   ar
   157    22    21   ar
   158   212   214   ar
   159   168   167   ar
   160    20    18   ar
   161   195   194    2
   162     5     2    1
   163   167   166    1
   164   217   216    1
   165   217   218    1
   166   207   208    2
   167   200   194   am
   168    21    19   ar
   169    18    19   ar
   170    18    17    1
   171   194   193    1
   172   165   164    2
   173   219   218    2
   174    17    14    1
   175     2     1    1
   176     2     3    1
   177   164   163    1
   178   166   163    1
   179   199   197   am
   180   188   187    2
   181   198   197    2
   182   197   196    1
   183    13    14    1
   184   163   162    1
   185   193   196    1
   186   193   192    1
   187     3     4    2
   188    14    15    1
   189   187   192   am
   190   187   186    1
   191    49    47    1
   192   189   190    1
   193   189   186    1
   194   189   191    1
   195    36    34   ar
   196    36    37   ar
   197    15    16    2
   198   186   185    1
   199    38    37    1
   200    34    32   ar
   201    37    35   ar
   202    47    46    2
   203    47    48    1
   204    46    45    1
   205    32    31    1
   206    32    33   ar
   207    35    33   ar
   208    31    28    1
   209    45    44    1
   210    44    43    1
   211    28    27    1
   212    28    29    1
   213    29    30    2
   214    29    39   am
   215    39    40    1
   216    43    40    1
   217    40    41    1
   218    56    55    1
   219    56    50    1
   220    41    50   am
   221    41    42    2
   222    55    54    1
   223    50    51    1
   224    54    51    1
   225    51    52    1
   226    53    52    2
