@<TRIPOS>MOLECULE
tmp/3wqyA00.pdb
 194 184 0 0 0
SMALL
GASTEIGER

@<TRIPOS>ATOM
      1  N        -59.1900   22.3260   33.7210 N.3    98  ALA98      -0.1231
      2  CA       -59.5290   23.5730   34.3950 C.3    98  ALA98       0.1694
      3  C        -58.4060   24.0000   35.3280 C.2    98  ALA98       0.2593
      4  O        -57.5290   23.2030   35.6560 O.2    98  ALA98      -0.2718
      5  CB       -60.8310   23.4260   35.1640 C.3    98  ALA98       0.0304
      6  N        -58.4290   25.2610   35.7460 N.am   99  SER99      -0.1938
      7  CA       -57.4370   25.7590   36.6890 C.3    99  SER99       0.2055
      8  C        -57.5430   24.9850   37.9980 C.2    99  SER99       0.2642
      9  O        -56.5380   24.5440   38.5530 O.2    99  SER99      -0.2714
     10  CB       -57.6190   27.2580   36.9310 C.3    99  SER99       0.2130
     11  OG       -58.8750   27.5370   37.5240 O.3    99  SER99      -0.2179
     12  N        -58.7740   24.8020   38.4670 N.am  100  ILE100     -0.1977
     13  CA       -59.0480   24.0690   39.7000 C.3   100  ILE100      0.1596
     14  C        -58.5350   22.6250   39.6620 C.2   100  ILE100      0.2287
     15  O        -58.2800   22.0200   40.7050 O.2   100  ILE100     -0.2864
     16  CB       -60.5640   24.0610   40.0000 C.3   100  ILE100      0.0276
     17  CG1      -60.8340   23.5390   41.4120 C.3   100  ILE100      0.0022
     18  CG2      -61.3160   23.2370   38.9590 C.3   100  ILE100      0.0022
     19  CD1      -60.0280   24.2420   42.4780 C.3   100  ILE100      0.0001
     20  N        -59.3160   21.1900   26.2730 N.3   127  ARG127     -0.1245
     21  CA       -60.5770   20.4780   26.1060 C.3   127  ARG127      0.1563
     22  C        -60.7110   19.9930   24.6740 C.2   127  ARG127      0.2260
     23  O        -60.5230   20.7540   23.7230 O.2   127  ARG127     -0.2867
     24  CB       -61.7730   21.3510   26.4790 C.3   127  ARG127      0.0307
     25  CG       -62.1720   21.2670   27.9410 C.3   127  ARG127      0.0489
     26  CD       -61.2060   22.0520   28.8090 C.3   127  ARG127      0.2205
     27  NE       -61.8500   22.5870   30.0040 N.pl3 127  ARG127     -0.0865
     28  CZ       -62.6800   23.6240   29.9960 C.cat 127  ARG127      0.5346
     29  NH1      -63.2240   24.0580   31.1240 N.pl3 127  ARG127      0.1354
     30  NH2      -62.9690   24.2220   28.8510 N.pl3 127  ARG127      0.1354
     31  N        -65.0270   19.9540   22.5180 N.3   130  ASP130     -0.1239
     32  CA       -65.5550   20.9920   21.6310 C.3   130  ASP130      0.1674
     33  C        -64.9550   20.9470   20.2500 C.2   130  ASP130      0.2266
     34  O        -64.9390   21.9530   19.5350 O.2   130  ASP130     -0.2867
     35  CB       -65.3000   22.3710   22.2150 C.3   130  ASP130      0.1410
     36  CG       -66.2210   22.6850   23.3470 C.2   130  ASP130      0.3668
     37  OD1      -67.3970   22.2710   23.2710 O.co2 130  ASP130     -0.2456
     38  OD2      -65.7680   23.3310   24.3120 O.co2 130  ASP130     -0.2456
     39  N        -65.1110   31.1960   18.9540 N.3   139  ARG139     -0.1231
     40  CA       -64.7470   31.5050   20.3320 C.3   139  ARG139      0.1694
     41  C        -64.1440   30.3030   21.0470 C.2   139  ARG139      0.2592
     42  O        -63.7860   30.3910   22.2200 O.2   139  ARG139     -0.2718
     43  CB       -65.9640   32.0060   21.1140 C.3   139  ARG139      0.0321
     44  CG       -66.8920   30.9020   21.5930 C.3   139  ARG139      0.0489
     45  CD       -67.9550   31.4430   22.5330 C.3   139  ARG139      0.2205
     46  NE       -68.7630   30.3760   23.1150 N.pl3 139  ARG139     -0.0865
     47  CZ       -69.8370   29.8540   22.5340 C.cat 139  ARG139      0.5346
     48  NH1      -70.2360   30.2980   21.3510 N.pl3 139  ARG139      0.1354
     49  NH2      -70.5120   28.8850   23.1370 N.pl3 139  ARG139      0.1354
     50  N        -64.0290   29.1820   20.3410 N.am  140  HIS140     -0.1962
     51  CA       -63.5280   27.9560   20.9580 C.3   140  HIS140      0.1787
     52  C        -62.1170   27.5780   20.5240 C.2   140  HIS140      0.2620
     53  O        -61.7440   27.7280   19.3630 O.2   140  HIS140     -0.2715
     54  CB       -64.4730   26.7870   20.6720 C.3   140  HIS140      0.0785
     55  CG       -65.5470   26.6210   21.7010 C.ar  140  HIS140      0.0821
     56  ND1      -66.8220   27.1160   21.5350 N.ar  140  HIS140     -0.2267
     57  CD2      -65.5310   26.0240   22.9150 C.ar  140  HIS140      0.1154
     58  CE1      -67.5480   26.8250   22.5990 C.ar  140  HIS140      0.1986
     59  NE2      -66.7880   26.1620   23.4530 N.ar  140  HIS140     -0.2212
     60  N        -61.3410   27.0840   21.4820 N.am  141  LEU141     -0.1977
     61  CA       -60.0170   26.5390   21.2200 C.3   141  LEU141      0.1596
     62  C        -59.9230   25.1310   21.8010 C.2   141  LEU141      0.2287
     63  O        -60.6870   24.7700   22.6990 O.2   141  LEU141     -0.2864
     64  CB       -58.9280   27.4310   21.8240 C.3   141  LEU141      0.0297
     65  CG       -58.6750   28.8280   21.2370 C.3   141  LEU141      0.0022
     66  CD1      -57.6820   29.5780   22.0930 C.3   141  LEU141      0.0001
     67  CD2      -58.1620   28.7380   19.8160 C.3   141  LEU141      0.0001
     68  N        -56.1720   26.4810   25.5550 N.3   144  PHE144     -0.1241
     69  CA       -56.2710   27.8580   26.0140 C.3   144  PHE144      0.1605
     70  C        -55.6090   28.0320   27.3700 C.2   144  PHE144      0.2264
     71  O        -55.3290   27.0570   28.0640 O.2   144  PHE144     -0.2867
     72  CB       -57.7370   28.2890   26.0970 C.3   144  PHE144      0.0534
     73  CG       -58.5630   27.4560   27.0400 C.ar  144  PHE144     -0.0203
     74  CD1      -58.6300   27.7650   28.3910 C.ar  144  PHE144     -0.0042
     75  CD2      -59.2730   26.3650   26.5730 C.ar  144  PHE144     -0.0042
     76  CE1      -59.3880   26.9970   29.2570 C.ar  144  PHE144     -0.0003
     77  CE2      -60.0320   25.5930   27.4330 C.ar  144  PHE144     -0.0003
     78  CZ       -60.0910   25.9100   28.7760 C.ar  144  PHE144     -0.0000
     79  N        -56.3590   29.4170   31.0490 N.3   146  MET146     -0.1245
     80  CA       -57.4040   29.8330   31.9670 C.3   146  MET146      0.1570
     81  C        -56.7670   30.3840   33.2250 C.2   146  MET146      0.2261
     82  O        -55.9910   29.6940   33.8870 O.2   146  MET146     -0.2867
     83  CB       -58.3270   28.6670   32.3020 C.3   146  MET146      0.0387
     84  CG       -59.1030   28.8360   33.5930 C.3   146  MET146      0.0595
     85  SD       -60.0790   27.3680   33.9440 S.3   146  MET146     -0.1393
     86  CE       -61.1780   27.3710   32.5330 C.3   146  MET146      0.0692
     87  N        -72.4210   24.2520   37.6230 N.3   190  TRP190     -0.1241
     88  CA       -71.0760   23.8400   37.2350 C.3   190  TRP190      0.1605
     89  C        -70.6800   22.5030   37.8690 C.2   190  TRP190      0.2264
     90  O        -70.6060   22.3980   39.0870 O.2   190  TRP190     -0.2867
     91  CB       -70.0450   24.9140   37.6230 C.3   190  TRP190      0.0550
     92  CG       -68.7340   24.7230   36.8770 C.ar  190  TRP190      0.0003
     93  CD1      -68.2640   25.4500   35.7610 C.ar  190  TRP190      0.0946
     94  CD2      -67.7500   23.7370   37.1430 C.ar  190  TRP190      0.0152
     95  NE1      -67.0800   24.9640   35.3740 N.ar  190  TRP190     -0.2442
     96  CE2      -66.7240   23.9280   36.2020 C.ar  190  TRP190      0.0810
     97  CE3      -67.6260   22.7040   38.0790 C.ar  190  TRP190      0.0012
     98  CZ2      -65.6120   23.0900   36.1450 C.ar  190  TRP190      0.0191
     99  CZ3      -66.5010   21.9120   38.0420 C.ar  190  TRP190      0.0001
    100  CH2      -65.5000   22.1200   37.0940 C.ar  190  TRP190      0.0015
    101  N        -71.6850   33.0040   35.2160 N.3   201  GLU201     -0.1245
    102  CA       -70.8810   33.0730   34.0090 C.3   201  GLU201      0.1567
    103  C        -71.0160   34.4530   33.3800 C.2   201  GLU201      0.2260
    104  O        -72.0910   34.8270   32.9110 O.2   201  GLU201     -0.2867
    105  CB       -71.3040   31.9790   33.0290 C.3   201  GLU201      0.0388
    106  CG       -71.3420   30.5910   33.6520 C.3   201  GLU201      0.1160
    107  CD       -71.7970   29.5230   32.6800 C.2   201  GLU201      0.3649
    108  OE1      -72.4160   29.8740   31.6520 O.co2 201  GLU201     -0.2457
    109  OE2      -71.5370   28.3290   32.9470 O.co2 201  GLU201     -0.2457
    110  N        -69.2590   34.9550   26.4470 N.3   208  GLU208     -0.1231
    111  CA       -68.8900   34.4900   27.7780 C.3   208  GLU208      0.1699
    112  C        -67.4000   34.6730   27.9610 C.2   208  GLU208      0.2592
    113  O        -66.5890   34.0430   27.2810 O.2   208  GLU208     -0.2718
    114  CB       -69.2580   33.0280   28.0240 C.3   208  GLU208      0.0402
    115  CG       -68.7840   32.5730   29.4040 C.3   208  GLU208      0.1161
    116  CD       -68.9180   31.0840   29.6370 C.2   208  GLU208      0.3649
    117  OE1      -70.0540   30.5700   29.5840 O.co2 208  GLU208     -0.2457
    118  OE2      -67.8830   30.4300   29.8890 O.co2 208  GLU208     -0.2457
    119  N        -67.0570   35.5500   28.8910 N.am  209  VAL209     -0.1966
    120  CA       -65.6850   35.9580   29.1060 C.3   209  VAL209      0.1727
    121  C        -65.1400   35.2760   30.3580 C.2   209  VAL209      0.2616
    122  O        -63.9280   35.1200   30.5160 O.2   209  VAL209     -0.2715
    123  CB       -65.6020   37.5100   29.2060 C.3   209  VAL209      0.0290
    124  CG1      -64.9510   37.9720   30.5100 C.3   209  VAL209      0.0023
    125  CG2      -64.9030   38.0930   27.9840 C.3   209  VAL209      0.0023
    126  N        -66.0510   34.8270   31.2180 N.am  210  ALA210     -0.1963
    127  CA       -65.6790   34.3770   32.5560 C.3   210  ALA210      0.1728
    128  C        -66.6710   33.3960   33.1910 C.2   210  ALA210      0.2616
    129  O        -67.8180   33.2800   32.7590 O.2   210  ALA210     -0.2715
    130  CB       -65.5120   35.5830   33.4620 C.3   210  ALA210      0.0334
    131  N        -66.2070   32.7000   34.2280 N.am  211  THR211     -0.1951
    132  CA       -67.0440   31.8300   35.0530 C.3   211  THR211      0.1897
    133  C        -66.4570   31.7230   36.4620 C.2   211  THR211      0.2313
    134  O        -65.2670   31.4530   36.6220 O.2   211  THR211     -0.2863
    135  CB       -67.1800   30.4110   34.4520 C.3   211  THR211      0.1794
    136  OG1      -67.7780   30.4900   33.1520 O.3   211  THR211     -0.2208
    137  CG2      -68.0410   29.5270   35.3490 C.3   211  THR211      0.0378
    138  N        -67.1490   29.6540   40.0110 N.3   213  VAL213     -0.1245
    139  CA       -67.9000   28.5590   40.6130 C.3   213  VAL213      0.1561
    140  C        -67.7140   28.5180   42.1260 C.2   213  VAL213      0.2260
    141  O        -66.6100   28.7170   42.6280 O.2   213  VAL213     -0.2867
    142  CB       -67.4810   27.2070   40.0150 C.3   213  VAL213      0.0252
    143  CG1      -68.4300   26.1060   40.4660 C.3   213  VAL213      0.0019
    144  CG2      -67.4370   27.3060   38.5030 C.3   213  VAL213      0.0019
    145  N        -63.7490   28.9750   42.7900 N.3   241  ASP241     -0.1225
    146  CA       -63.0490   28.7560   41.5330 C.3   241  ASP241      0.1805
    147  C        -63.4130   29.8720   40.5660 C.2   241  ASP241      0.2598
    148  O        -64.5730   30.2680   40.4820 O.2   241  ASP241     -0.2718
    149  CB       -63.4080   27.3910   40.9460 C.3   241  ASP241      0.1424
    150  CG       -62.6780   27.0930   39.6470 C.2   241  ASP241      0.3668
    151  OD1      -61.9100   27.9470   39.1560 O.co2 241  ASP241     -0.2456
    152  OD2      -62.8890   25.9920   39.1050 O.co2 241  ASP241     -0.2456
    153  N        -62.4170   30.3700   39.8390 N.am  242  THR242     -0.1939
    154  CA       -62.6030   31.5050   38.9400 C.3   242  THR242      0.2028
    155  C        -61.9220   31.2960   37.5990 C.2   242  THR242      0.2642
    156  O        -60.7160   31.4380   37.5000 O.2   242  THR242     -0.2714
    157  CB       -62.0350   32.8060   39.5420 C.3   242  THR242      0.1808
    158  OG1      -60.6330   32.6410   39.7950 O.3   242  THR242     -0.2208
    159  CG2      -62.7460   33.1730   40.8290 C.3   242  THR242      0.0379
    160  N        -62.6860   30.9920   36.5580 N.am  243  GLY243     -0.1954
    161  CA       -62.0930   30.7880   35.2500 C.3   243  GLY243      0.1869
    162  C        -62.2000   31.9980   34.3410 C.2   243  GLY243      0.2309
    163  O        -63.2970   32.4820   34.0760 O.2   243  GLY243     -0.2863
    164  N        -61.0410   33.2420   30.5510 N.3   245  GLY245     -0.1225
    165  CA       -60.4380   32.9490   29.2640 C.3   245  GLY245      0.1811
    166  C        -59.6620   34.1110   28.6670 C.2   245  GLY245      0.2280
    167  O        -60.2490   35.0910   28.2010 O.2   245  GLY245     -0.2866
    168  N        -57.5680   34.1270   25.9330 N.3   247  GLU247     -0.1231
    169  CA       -57.6020   34.1790   24.4790 C.3   247  GLU247      0.1699
    170  C        -58.8280   34.9720   24.0540 C.2   247  GLU247      0.2592
    171  O        -58.8000   35.7400   23.0910 O.2   247  GLU247     -0.2718
    172  CB       -57.6250   32.7730   23.8770 C.3   247  GLU247      0.0402
    173  CG       -57.5070   31.6600   24.9060 C.3   247  GLU247      0.1161
    174  CD       -56.1460   31.6230   25.5600 C.2   247  GLU247      0.3649
    175  OE1      -56.0810   31.3790   26.7850 O.co2 247  GLU247     -0.2457
    176  OE2      -55.1410   31.8580   24.8510 O.co2 247  GLU247     -0.2457
    177  N        -59.9030   34.7910   24.8110 N.am  248  ARG248     -0.1980
    178  CA       -61.1250   35.5380   24.5930 C.3   248  ARG248      0.1597
    179  C        -60.9580   36.9530   25.1060 C.2   248  ARG248      0.2287
    180  O        -61.5150   37.9000   24.5500 O.2   248  ARG248     -0.2864
    181  CB       -62.2970   34.8680   25.2960 C.3   248  ARG248      0.0334
    182  CG       -62.3590   33.3710   25.1130 C.3   248  ARG248      0.0492
    183  CD       -63.5880   32.8250   25.7980 C.3   248  ARG248      0.2205
    184  NE       -64.1200   31.6590   25.1070 N.pl3 248  ARG248     -0.0865
    185  CZ       -65.1840   30.9780   25.5130 C.cat 248  ARG248      0.5346
    186  NH1      -65.8290   31.3480   26.6110 N.pl3 248  ARG248      0.1354
    187  NH2      -65.6020   29.9270   24.8230 N.pl3 248  ARG248      0.1354
    188  N        -61.2870   34.8440   17.6320 N.3   259  VAL259     -0.1245
    189  CA       -60.2730   34.7540   18.6790 C.3   259  VAL259      0.1561
    190  C        -58.9190   34.3440   18.0980 C.2   259  VAL259      0.2260
    191  O        -57.8740   34.8320   18.5310 O.2   259  VAL259     -0.2867
    192  CB       -60.6960   33.7560   19.7840 C.3   259  VAL259      0.0252
    193  CG1      -61.1140   32.4240   19.1780 C.3   259  VAL259      0.0019
    194  CG2      -59.5820   33.5690   20.8020 C.3   259  VAL259      0.0019
@<TRIPOS>BOND
     1   188   189    1
     2   190   191    2
     3   190   189    1
     4   189   192    1
     5    39    40    1
     6   193   192    1
     7    53    52    2
     8    34    33    2
     9   192   194    1
    10    67    65    1
    11    33    32    1
    12    40    41    1
    13    40    43    1
    14    50    51    1
    15    50    41   am
    16    52    51    1
    17    52    60   am
    18    54    51    1
    19    54    55    1
    20    41    42    2
    21    43    44    1
    22    61    60    1
    23    61    62    1
    24    61    64    1
    25    65    64    1
    26    65    66    1
    27    48    47    1
    28    56    55   ar
    29    56    58   ar
    30    44    45    1
    31    32    35    1
    32    32    31    1
    33    55    57   ar
    34    62    63    2
    35    35    36    1
    36    45    46    1
    37    47    46    2
    38    47    49    1
    39    58    59   ar
    40    57    59   ar
    41   171   170    2
    42    37    36   ar
    43    36    38   ar
    44    23    22    2
    45   172   169    1
    46   172   173    1
    47   170   169    1
    48   170   177   am
    49   169   168    1
    50   180   179    2
    51   178   177    1
    52   178   179    1
    53   178   181    1
    54    22    21    1
    55   187   185    1
    56   176   174   ar
    57   173   174    1
    58   184   185    2
    59   184   183    1
    60   182   181    1
    61   182   183    1
    62   185   186    1
    63    68    69    1
    64   174   175   ar
    65    69    72    1
    66    69    70    1
    67    72    73    1
    68    21    20    1
    69    21    24    1
    70   110   111    1
    71    24    25    1
    72    75    73   ar
    73    75    77   ar
    74    73    74   ar
    75   113   112    2
    76    70    71    2
    77    77    78   ar
    78   111   112    1
    79   111   114    1
    80    25    26    1
    81   112   119   am
    82   125   123    1
    83   114   115    1
    84   167   166    2
    85    74    76   ar
    86   166   165    1
    87    78    76   ar
    88    26    27    1
    89    30    28    1
    90   119   120    1
    91   120   123    1
    92   120   121    1
    93   123   124    1
    94   165   164    1
    95   115   116    1
    96   117   116   ar
    97   116   118   ar
    98    28    27    2
    99    28    29    1
   100   121   122    2
   101   121   126   am
   102    79    80    1
   103   126   127    1
   104   108   107   ar
   105    80    83    1
   106    80    81    1
   107    83    84    1
   108    86    85    1
   109   127   128    1
   110   127   130    1
   111   107   109   ar
   112   107   106    1
   113   129   128    2
   114   104   103    2
   115   105   106    1
   116   105   102    1
   117   136   135    1
   118   128   131   am
   119    81    82    2
   120   103   102    1
   121    84    85    1
   122     1     2    1
   123   102   101    1
   124   163   162    2
   125   131   132    1
   126   162   161    1
   127     2     5    1
   128     2     3    1
   129   135   132    1
   130   135   137    1
   131   132   133    1
   132   161   160    1
   133     3     4    2
   134     3     6   am
   135    95    93   ar
   136    95    96   ar
   137     6     7    1
   138    93    92   ar
   139    98    96   ar
   140    98   100   ar
   141    96    94   ar
   142   133   134    2
   143   160   155   am
   144     7    10    1
   145     7     8    1
   146    92    94   ar
   147    92    91    1
   148    10    11    1
   149   100    99   ar
   150    94    97   ar
   151    88    87    1
   152    88    91    1
   153    88    89    1
   154   156   155    2
   155   155   154    1
   156    89    90    2
   157     8    12   am
   158     8     9    2
   159    99    97   ar
   160    12    13    1
   161   144   142    1
   162   154   157    1
   163   154   153    1
   164    18    16    1
   165   152   150   ar
   166   151   150   ar
   167   157   158    1
   168   157   159    1
   169   150   149    1
   170    14    13    1
   171    14    15    2
   172    13    16    1
   173   153   147   am
   174    16    17    1
   175   138   139    1
   176   142   143    1
   177   142   139    1
   178   148   147    2
   179   147   146    1
   180   139   140    1
   181   149   146    1
   182    17    19    1
   183   146   145    1
   184   140   141    2
