@<TRIPOS>MOLECULE
tmp/3wr9A00.pdb
 96 93 0 0 0
SMALL
GASTEIGER

@<TRIPOS>ATOM
      1  N         45.8600  -49.4640  -11.3420 N.3    11  HIS11      -0.1226
      2  CA        46.7480  -48.3750  -11.8110 C.3    11  HIS11       0.1752
      3  C         47.7470  -47.8700  -10.7550 C.2    11  HIS11       0.2597
      4  O         48.2820  -46.7570  -10.8550 O.2    11  HIS11      -0.2718
      5  CB        45.9760  -47.2120  -12.4740 C.3    11  HIS11       0.0759
      6  CG        45.0370  -46.4650  -11.5650 C.ar   11  HIS11       0.0818
      7  ND1       43.7910  -46.0370  -11.9860 N.ar   11  HIS11      -0.2268
      8  CD2       45.1690  -46.0250  -10.2880 C.ar   11  HIS11       0.1154
      9  CE1       43.1980  -45.3710  -11.0080 C.ar   11  HIS11       0.1986
     10  NE2       44.0070  -45.3570   -9.9640 N.ar   11  HIS11      -0.2212
     11  N         47.9840  -48.6770   -9.7290 N.am   12  THR12      -0.1939
     12  CA        48.8970  -48.2840   -8.6590 C.3    12  THR12       0.2013
     13  C         50.2800  -47.9580   -9.2080 C.2    12  THR12       0.2484
     14  O         50.7580  -48.6380  -10.0980 O.2    12  THR12      -0.2729
     15  CB        49.0190  -49.3670   -7.5760 C.3    12  THR12       0.1807
     16  OG1       50.1480  -49.0700   -6.7430 O.3    12  THR12      -0.2208
     17  CG2       49.1380  -50.7980   -8.1810 C.3    12  THR12       0.0379
     18  N         50.9090  -46.8880   -8.6880 N.am   13  PRO13      -0.2715
     19  CA        52.2780  -46.4820   -9.0720 C.3    13  PRO13       0.1536
     20  C         53.3450  -47.5360   -8.7120 C.2    13  PRO13       0.2599
     21  O         54.5200  -47.3560   -9.0120 O.2    13  PRO13      -0.2715
     22  CB        52.4900  -45.1920   -8.2940 C.3    13  PRO13       0.0310
     23  CG        51.4700  -45.2690   -7.1480 C.3    13  PRO13       0.0237
     24  CD        50.2990  -45.9470   -7.7270 C.3    13  PRO13       0.0939
     25  N         52.9330  -48.6420   -8.1040 N.am   14  THR14      -0.1951
     26  CA        53.8000  -49.8120   -7.9590 C.3    14  THR14       0.1897
     27  C         54.1630  -50.3680   -9.3320 C.2    14  THR14       0.2313
     28  O         55.2380  -50.9620   -9.5130 O.2    14  THR14      -0.2863
     29  CB        53.0610  -50.9320   -7.2080 C.3    14  THR14       0.1794
     30  OG1       52.7020  -50.4570   -5.9080 O.3    14  THR14      -0.2208
     31  CG2       53.9310  -52.1810   -7.0690 C.3    14  THR14       0.0378
     32  N         44.7960  -38.2990   -9.8400 N.3    58  HIS58      -0.1241
     33  CA        44.9320  -38.3330   -8.3840 C.3    58  HIS58       0.1621
     34  C         45.3400  -36.9540   -7.8530 C.2    58  HIS58       0.2264
     35  O         46.4250  -36.7650   -7.3010 O.2    58  HIS58      -0.2867
     36  CB        45.8540  -39.4790   -7.9580 C.3    58  HIS58       0.0745
     37  CG        45.3370  -40.8260   -8.3600 C.ar   58  HIS58       0.0817
     38  ND1       45.3380  -41.2670   -9.6690 N.ar   58  HIS58      -0.2268
     39  CD2       44.7510  -41.8100   -7.6330 C.ar   58  HIS58       0.1154
     40  CE1       44.7800  -42.4620   -9.7290 C.ar   58  HIS58       0.1986
     41  NE2       44.4170  -42.8200   -8.5060 N.ar   58  HIS58      -0.2212
     42  N         49.7080  -41.0470  -12.9610 N.3   123  HIS123     -0.1241
     43  CA        49.8420  -42.4970  -12.8210 C.3   123  HIS123      0.1621
     44  C         48.5210  -43.2600  -13.0220 C.2   123  HIS123      0.2264
     45  O         48.5270  -44.4420  -13.3920 O.2   123  HIS123     -0.2867
     46  CB        50.5170  -42.8540  -11.4770 C.3   123  HIS123      0.0745
     47  CG        49.6140  -42.7810  -10.2730 C.ar  123  HIS123      0.0817
     48  ND1       49.6480  -41.7320   -9.3690 N.ar  123  HIS123     -0.2268
     49  CD2       48.6860  -43.6590   -9.8000 C.ar  123  HIS123      0.1154
     50  CE1       48.7810  -41.9710   -8.3990 C.ar  123  HIS123      0.1986
     51  NE2       48.1810  -43.1300   -8.6390 N.ar  123  HIS123     -0.2212
     52  N         41.6760  -49.8230   -8.5140 N.3   188  GLY188     -0.1225
     53  CA        41.4310  -51.0660   -7.7680 C.3   188  GLY188      0.1811
     54  C         42.6080  -52.0400   -7.6850 C.2   188  GLY188      0.2280
     55  O         43.7320  -51.6860   -8.0540 O.2   188  GLY188     -0.2866
     56  N         42.1530  -51.4920   -1.7040 N.3   191  HIS191     -0.1241
     57  CA        43.2440  -50.7910   -1.0550 C.3   191  HIS191      0.1621
     58  C         42.7310  -49.5830   -0.2550 C.2   191  HIS191      0.2264
     59  O         41.6820  -49.0000   -0.5780 O.2   191  HIS191     -0.2867
     60  CB        44.3260  -50.3690   -2.0640 C.3   191  HIS191      0.0745
     61  CG        43.8840  -49.3510   -3.0810 C.ar  191  HIS191      0.0817
     62  ND1       42.8830  -49.5900   -4.0020 N.ar  191  HIS191     -0.2268
     63  CD2       44.3680  -48.1140   -3.3700 C.ar  191  HIS191      0.1154
     64  CE1       42.7390  -48.5290   -4.7810 C.ar  191  HIS191      0.1986
     65  NE2       43.6350  -47.6250   -4.4270 N.ar  191  HIS191     -0.2212
     66  N         44.8110  -46.0610    1.2760 N.3   193  VAL193     -0.1245
     67  CA        46.1060  -45.4210    1.3180 C.3   193  VAL193      0.1561
     68  C         46.0800  -44.1650    2.1930 C.2   193  VAL193      0.2260
     69  O         47.0270  -43.3730    2.1820 O.2   193  VAL193     -0.2867
     70  CB        46.6410  -45.1060   -0.1260 C.3   193  VAL193      0.0252
     71  CG1       46.9970  -46.4030   -0.8670 C.3   193  VAL193      0.0019
     72  CG2       45.6360  -44.3200   -0.9570 C.3   193  VAL193      0.0019
     73  N         36.9470  -46.9480   -6.0990 N.3   238  GLU238     -0.1245
     74  CA        37.1470  -46.3920   -7.4500 C.3   238  GLU238      0.1567
     75  C         36.7740  -47.4090   -8.5420 C.2   238  GLU238      0.2260
     76  O         36.6950  -47.0720   -9.7270 O.2   238  GLU238     -0.2867
     77  CB        38.5920  -45.8800   -7.6310 C.3   238  GLU238      0.0388
     78  CG        39.6720  -46.9520   -7.8360 C.3   238  GLU238      0.1160
     79  CD        41.0960  -46.3850   -7.7980 C.2   238  GLU238      0.3649
     80  OE1       41.2680  -45.1550   -7.9050 O.co2 238  GLU238     -0.2457
     81  OE2       42.0660  -47.1590   -7.6590 O.co2 238  GLU238     -0.2457
     82  N         50.3450  -52.7090   -1.0110 N.3   265  MET265     -0.1230
     83  CA        49.1640  -51.9880   -0.5130 C.3   265  MET265      0.1702
     84  C         47.9070  -52.2750   -1.3100 C.2   265  MET265      0.2593
     85  O         46.7970  -52.3190   -0.7620 O.2   265  MET265     -0.2718
     86  CB        49.4240  -50.4820   -0.5210 C.3   265  MET265      0.0401
     87  CG        50.4700  -50.0570    0.4470 C.3   265  MET265      0.0596
     88  SD        49.9210  -50.0820    2.1800 S.3   265  MET265     -0.1393
     89  CE        48.6550  -48.8080    2.2310 C.3   265  MET265      0.0692
     90  N         48.0890  -52.4730   -2.6050 N.am  266  THR266     -0.1953
     91  CA        46.9720  -52.6440   -3.5210 C.3   266  THR266      0.1897
     92  C         46.8500  -54.0600   -4.0920 C.2   266  THR266      0.2313
     93  O         47.8580  -54.7100   -4.4100 O.2   266  THR266     -0.2863
     94  CB        47.0540  -51.6140   -4.6810 C.3   266  THR266      0.1794
     95  OG1       47.1960  -50.2840   -4.1400 O.3   266  THR266     -0.2208
     96  CG2       45.8010  -51.6790   -5.5300 C.3   266  THR266      0.0378
@<TRIPOS>BOND
     1    45    44    2
     2    44    43    1
     3    42    43    1
     4    43    46    1
     5     5     2    1
     6     5     6    1
     7     7     6   ar
     8     7     9   ar
     9     2     1    1
    10     2     3    1
    11     6     8   ar
    12    46    47    1
    13     9    10   ar
    14     4     3    2
    15     3    11   am
    16     8    10   ar
    17    47    49   ar
    18    47    48   ar
    19    14    13    2
    20    32    33    1
    21    49    51   ar
    22    40    38   ar
    23    40    41   ar
    24    11    12    1
    25    76    75    2
    26    38    37   ar
    27    28    27    2
    28    48    50   ar
    29    27    26    1
    30    13    18   am
    31    13    12    1
    32    19    20    1
    33    19    18    1
    34    19    22    1
    35    21    20    2
    36    20    25   am
    37    18    24    1
    38    12    15    1
    39    51    50   ar
    40    75    74    1
    41    52    53    1
    42    41    39   ar
    43    33    36    1
    44    33    34    1
    45    37    36    1
    46    37    39   ar
    47    22    23    1
    48    17    15    1
    49    25    26    1
    50    55    54    2
    51    26    29    1
    52    80    79   ar
    53    34    35    2
    54    78    79    1
    55    78    77    1
    56    79    81   ar
    57    53    54    1
    58    24    23    1
    59    77    74    1
    60    15    16    1
    61    74    73    1
    62    29    31    1
    63    29    30    1
    64    96    94    1
    65    64    65   ar
    66    64    62   ar
    67    94    95    1
    68    94    91    1
    69    65    63   ar
    70    93    92    2
    71    92    91    1
    72    62    61   ar
    73    91    90    1
    74    63    61   ar
    75    61    60    1
    76    90    84   am
    77    60    57    1
    78    56    57    1
    79    84    85    2
    80    84    83    1
    81    57    58    1
    82    82    83    1
    83    72    70    1
    84    71    70    1
    85    59    58    2
    86    86    83    1
    87    86    87    1
    88    70    67    1
    89    87    88    1
    90    66    67    1
    91    67    68    1
    92    88    89    1
    93    69    68    2
