@<TRIPOS>MOLECULE
tmp/3wrxC01.pdb
 123 115 0 0 0
SMALL
GASTEIGER

@<TRIPOS>ATOM
      1  N         -1.1670  -13.7750   49.1850 N.3   156  PRO156     -0.2102
      2  CA        -1.1190  -15.0450   49.9140 C.3   156  PRO156      0.1504
      3  C         -0.3900  -14.9630   51.2530 C.2   156  PRO156      0.2576
      4  O          0.7690  -14.5420   51.3150 O.2   156  PRO156     -0.2718
      5  CB        -0.4110  -15.9710   48.9310 C.3   156  PRO156      0.0282
      6  CG        -0.9280  -15.4850   47.6270 C.3   156  PRO156      0.0208
      7  CD        -0.8270  -13.9840   47.7650 C.3   156  PRO156      0.0893
      8  N         -1.0900  -15.3580   52.3140 N.am  157  GLY157     -0.1943
      9  CA        -0.5220  -15.3710   53.6510 C.3   157  GLY157      0.2014
     10  C         -0.2570  -14.0420   54.3310 C.2   157  GLY157      0.2639
     11  O          0.4550  -13.9980   55.3310 O.2   157  GLY157     -0.2714
     12  N         -0.8260  -12.9580   53.8170 N.am  158  CYS158     -0.1953
     13  CA        -0.6030  -11.6450   54.4120 C.3   158  CYS158      0.1843
     14  C         -1.4950  -11.4080   55.6320 C.2   158  CYS158      0.2626
     15  O         -1.3220  -10.4240   56.3480 O.2   158  CYS158     -0.2714
     16  CB        -0.8550  -10.5460   53.3790 C.3   158  CYS158      0.0997
     17  SG        -2.5970  -10.2390   53.0750 S.3   158  CYS158     -0.0797
     18  N         -2.4580  -12.2980   55.8570 N.am  159  GLY159     -0.1940
     19  CA        -3.3350  -12.1570   57.0050 C.3   159  GLY159      0.2014
     20  C         -4.7710  -11.7630   56.7230 C.2   159  GLY159      0.2639
     21  O         -5.4300  -11.1880   57.5940 O.2   159  GLY159     -0.2714
     22  N         -5.2690  -12.0740   55.5270 N.am  160  LYS160     -0.1963
     23  CA        -6.6470  -11.7380   55.1620 C.3   160  LYS160      0.1728
     24  C         -7.6710  -12.4120   56.0660 C.2   160  LYS160      0.2617
     25  O         -8.5380  -11.7490   56.6350 O.2   160  LYS160     -0.2715
     26  CB        -6.9250  -12.1230   53.7080 C.3   160  LYS160      0.0311
     27  CG        -6.1600  -11.2940   52.6840 C.3   160  LYS160      0.0038
     28  CD        -6.2370  -11.9140   51.2840 C.3   160  LYS160      0.0206
     29  CE        -5.5220  -13.2660   51.2360 C.3   160  LYS160      0.1093
     30  NZ        -5.6960  -13.9670   49.9360 N.3   160  LYS160     -0.1314
     31  N         -7.5750  -13.7310   56.1860 N.am  161  THR161     -0.1937
     32  CA        -8.4890  -14.4950   57.0200 C.3   161  THR161      0.2028
     33  C         -8.1660  -14.2490   58.4860 C.2   161  THR161      0.2642
     34  O         -9.0550  -14.1510   59.3280 O.2   161  THR161     -0.2714
     35  CB        -8.3640  -15.9940   56.7160 C.3   161  THR161      0.1808
     36  OG1       -8.5310  -16.1990   55.3090 O.3   161  THR161     -0.2208
     37  CG2       -9.4300  -16.7920   57.4570 C.3   161  THR161      0.0379
     38  N         -6.8770  -14.1430   58.7800 N.am  162  LYS162     -0.1977
     39  CA        -6.4040  -13.8970   60.1300 C.3   162  LYS162      0.1596
     40  C         -6.9960  -12.6120   60.6990 C.2   162  LYS162      0.2287
     41  O         -7.5170  -12.6040   61.8140 O.2   162  LYS162     -0.2864
     42  CB        -4.8830  -13.7990   60.1350 C.3   162  LYS162      0.0298
     43  CG        -4.3170  -13.3280   61.4500 C.3   162  LYS162      0.0038
     44  CD        -2.8890  -12.8600   61.2860 C.3   162  LYS162      0.0206
     45  CE        -2.3340  -12.3380   62.6060 C.3   162  LYS162      0.1093
     46  NZ        -0.9480  -11.8060   62.4750 N.3   162  LYS162     -0.1314
     47  N        -11.6600  -22.5260   62.2810 N.3   189  ARG189     -0.1245
     48  CA       -10.5440  -21.7930   62.8650 C.3   189  ARG189      0.1563
     49  C        -10.9980  -20.8370   63.9660 C.2   189  ARG189      0.2260
     50  O        -10.2440  -20.5350   64.8880 O.2   189  ARG189     -0.2867
     51  CB        -9.7730  -21.0540   61.7600 C.3   189  ARG189      0.0307
     52  CG        -9.0090  -22.0040   60.8180 C.3   189  ARG189      0.0489
     53  CD        -8.5420  -21.3200   59.5330 C.3   189  ARG189      0.2205
     54  NE        -7.6530  -20.1870   59.7890 N.pl3 189  ARG189     -0.0865
     55  CZ        -7.1110  -19.4310   58.8360 C.cat 189  ARG189      0.5346
     56  NH1       -7.3630  -19.6850   57.5560 N.pl3 189  ARG189      0.1354
     57  NH2       -6.3210  -18.4180   59.1590 N.pl3 189  ARG189      0.1354
     58  N        -12.1100  -12.7630   50.5080 N.3   228  GLU228     -0.1245
     59  CA       -11.9310  -13.0730   49.0970 C.3   228  GLU228      0.1567
     60  C        -13.0610  -12.4930   48.2330 C.2   228  GLU228      0.2260
     61  O        -13.6600  -13.1900   47.4110 O.2   228  GLU228     -0.2867
     62  CB       -11.8370  -14.5940   48.9280 C.3   228  GLU228      0.0388
     63  CG       -10.6290  -15.0500   48.1430 C.3   228  GLU228      0.1160
     64  CD        -9.3130  -14.5390   48.7200 C.2   228  GLU228      0.3649
     65  OE1       -8.7580  -15.1700   49.6450 O.co2 228  GLU228     -0.2457
     66  OE2       -8.8420  -13.4910   48.2430 O.co2 228  GLU228     -0.2457
     67  N         -6.0040  -14.4720   42.9380 N.3   257  GLN257     -0.1245
     68  CA        -6.7840  -15.6640   43.2660 C.3   257  GLN257      0.1566
     69  C         -7.7700  -15.7870   42.1110 C.2   257  GLN257      0.2260
     70  O         -7.9500  -14.8410   41.3380 O.2   257  GLN257     -0.2867
     71  CB        -7.5880  -15.4730   44.5560 C.3   257  GLN257      0.0367
     72  CG        -6.7720  -15.2790   45.8120 C.3   257  GLN257      0.0905
     73  CD        -5.9680  -16.5010   46.1720 C.2   257  GLN257      0.2608
     74  OE1       -6.4970  -17.6110   46.2240 O.2   257  GLN257     -0.2717
     75  NE2       -4.6830  -16.3050   46.4340 N.am  257  GLN257     -0.0878
     76  N          3.1460  -13.2450   55.7250 N.3   288  LEU288     -0.1231
     77  CA         3.6270  -13.7330   57.0120 C.3   288  LEU288      0.1693
     78  C          3.8630  -15.2380   56.9810 C.2   288  LEU288      0.2591
     79  O          4.3610  -15.8100   57.9490 O.2   288  LEU288     -0.2718
     80  CB         2.5970  -13.4170   58.0940 C.3   288  LEU288      0.0284
     81  CG         2.1520  -11.9580   58.1500 C.3   288  LEU288      0.0019
     82  CD1        0.8950  -11.8100   59.0150 C.3   288  LEU288      0.0001
     83  CD2        3.3060  -11.1250   58.6700 C.3   288  LEU288      0.0001
     84  N          3.5080  -15.8780   55.8710 N.am  289  ARG289     -0.1980
     85  CA         3.6560  -17.3220   55.7510 C.3   289  ARG289      0.1597
     86  C          4.7710  -17.8110   54.8460 C.2   289  ARG289      0.2287
     87  O          5.6350  -18.5720   55.2630 O.2   289  ARG289     -0.2864
     88  CB         2.3580  -17.9370   55.2360 C.3   289  ARG289      0.0334
     89  CG         2.4880  -19.4030   54.8510 C.3   289  ARG289      0.0492
     90  CD         1.3420  -19.8260   53.9510 C.3   289  ARG289      0.2205
     91  NE         0.0390  -19.5750   54.5610 N.pl3 289  ARG289     -0.0865
     92  CZ        -1.0310  -19.1630   53.8900 C.cat 289  ARG289      0.5346
     93  NH1       -0.9660  -18.9510   52.5790 N.pl3 289  ARG289      0.1354
     94  NH2       -2.1660  -18.9480   54.5370 N.pl3 289  ARG289      0.1354
     95  N         -6.7400  -21.1750   51.1950 N.3   365  GLY365     -0.1225
     96  CA        -6.7400  -20.5180   52.4900 C.3   365  GLY365      0.1811
     97  C         -6.0460  -21.2930   53.6030 C.2   365  GLY365      0.2280
     98  O         -5.7730  -20.7420   54.6660 O.2   365  GLY365     -0.2866
     99  N         -3.0060  -23.5380   55.6230 N.3   367  THR367     -0.1218
    100  CA        -1.5650  -23.4640   55.8240 C.3   367  THR367      0.1862
    101  C         -1.0380  -24.8320   56.2290 C.2   367  THR367      0.2287
    102  O         -1.7240  -25.6100   56.8950 O.2   367  THR367     -0.2866
    103  CB        -1.1710  -22.4650   56.9390 C.3   367  THR367      0.1770
    104  OG1       -1.5220  -21.1320   56.5450 O.3   367  THR367     -0.2211
    105  CG2        0.3280  -22.5190   57.1850 C.3   367  THR367      0.0375
    106  N          1.1130  -22.4890   50.2170 N.3   397  ARG397     -0.1245
    107  CA         0.4670  -23.0950   51.3700 C.3   397  ARG397      0.1563
    108  C          1.4670  -23.3880   52.4940 C.2   397  ARG397      0.2260
    109  O          1.1150  -23.3240   53.6710 O.2   397  ARG397     -0.2867
    110  CB        -0.2200  -24.4140   50.9710 C.3   397  ARG397      0.0307
    111  CG        -1.2670  -24.3210   49.8630 C.3   397  ARG397      0.0489
    112  CD        -2.3610  -23.3060   50.1770 C.3   397  ARG397      0.2205
    113  NE        -2.0620  -21.9920   49.6140 N.pl3 397  ARG397     -0.0865
    114  CZ        -2.6500  -20.8590   49.9890 C.cat 397  ARG397      0.5346
    115  NH1       -3.5770  -20.8600   50.9440 N.pl3 397  ARG397      0.1354
    116  NH2       -2.3170  -19.7210   49.3960 N.pl3 397  ARG397      0.1354
    117  N          5.0200  -23.2710   54.9730 N.3   399  THR399     -0.1218
    118  CA         5.8730  -22.3580   55.7140 C.3   399  THR399      0.1862
    119  C          7.2890  -22.9110   55.6970 C.2   399  THR399      0.2287
    120  O          8.2600  -22.1550   55.7910 O.2   399  THR399     -0.2866
    121  CB         5.4490  -22.2480   57.1790 C.3   399  THR399      0.1770
    122  OG1        5.5250  -23.5460   57.7870 O.3   399  THR399     -0.2211
    123  CG2        4.0480  -21.7120   57.2870 C.3   399  THR399      0.0375
@<TRIPOS>BOND
     1    70    69    2
     2    69    68    1
     3    67    68    1
     4    68    71    1
     5    71    72    1
     6    72    73    1
     7    73    74    2
     8    73    75   am
     9    61    60    2
    10     6     7    1
    11     6     5    1
    12     7     1    1
    13    63    64    1
    14    63    62    1
    15    60    59    1
    16    66    64   ar
    17    64    65   ar
    18    62    59    1
    19     5     2    1
    20    59    58    1
    21     1     2    1
    22   116   114    1
    23   113   114    2
    24   113   112    1
    25   111   112    1
    26   111   110    1
    27     2     3    1
    28    30    29    1
    29   114   115    1
    30   106   107    1
    31   110   107    1
    32    95    96    1
    33    29    28    1
    34     3     4    2
    35     3     8   am
    36    28    27    1
    37   107   108    1
    38     8     9    1
    39    96    97    1
    40   108   109    2
    41    93    92    1
    42    27    26    1
    43    17    16    1
    44    16    13    1
    45    97    98    2
    46     9    10    1
    47    26    23    1
    48    12    10   am
    49    12    13    1
    50    92    94    1
    51    92    91    2
    52    90    91    1
    53    90    89    1
    54    10    11    2
    55    13    14    1
    56    86    87    2
    57    86    85    1
    58    89    88    1
    59   117   118    1
    60    23    22    1
    61    23    24    1
    62    88    85    1
    63    36    35    1
    64    22    20   am
    65    99   100    1
    66    14    18   am
    67    14    15    2
    68   119   118    1
    69   119   120    2
    70   118   121    1
    71    76    77    1
    72    85    84    1
    73   100   101    1
    74   100   103    1
    75    18    19    1
    76    84    78   am
    77    24    31   am
    78    24    25    2
    79    31    32    1
    80   101   102    2
    81   104   103    1
    82    35    32    1
    83    35    37    1
    84    20    19    1
    85    20    21    2
    86   103   105    1
    87    78    77    1
    88    78    79    2
    89    77    80    1
    90    32    33    1
    91   121   123    1
    92   121   122    1
    93    56    55    1
    94    80    81    1
    95    81    83    1
    96    81    82    1
    97    33    38   am
    98    33    34    2
    99    38    39    1
   100    55    57    1
   101    55    54    2
   102    53    54    1
   103    53    52    1
   104    39    42    1
   105    39    40    1
   106    42    43    1
   107    40    41    2
   108    52    51    1
   109    44    43    1
   110    44    45    1
   111    51    48    1
   112    47    48    1
   113    46    45    1
   114    48    49    1
   115    49    50    2
