@<TRIPOS>MOLECULE
tmp/3wryB00.pdb
 114 106 0 0 0
SMALL
GASTEIGER

@<TRIPOS>ATOM
      1  N         27.2510  -13.0870   -3.3560 N.3    10  THR10      -0.1218
      2  CA        26.7310  -13.9230   -2.2990 C.3    10  THR10       0.1862
      3  C         27.1240  -15.3750   -2.5790 C.2    10  THR10       0.2287
      4  O         26.4190  -16.1160   -3.2820 O.2    10  THR10      -0.2866
      5  CB        25.2010  -13.7690   -2.1810 C.3    10  THR10       0.1770
      6  OG1       24.5830  -14.0740   -3.4320 O.3    10  THR10      -0.2211
      7  CG2       24.8490  -12.3400   -1.8090 C.3    10  THR10       0.0375
      8  N         27.0000  -17.9980   -0.8110 N.3    12  ASP12      -0.1225
      9  CA        26.0810  -19.0470   -0.4050 C.3    12  ASP12       0.1805
     10  C         25.1010  -19.4370   -1.5120 C.2    12  ASP12       0.2598
     11  O         24.5330  -20.5250   -1.4710 O.2    12  ASP12      -0.2718
     12  CB        25.3380  -18.6730    0.8930 C.3    12  ASP12       0.1424
     13  CG        24.4840  -17.4170    0.7600 C.2    12  ASP12       0.3668
     14  OD1       24.5390  -16.7460   -0.2960 O.co2  12  ASP12      -0.2456
     15  OD2       23.7630  -17.1000    1.7330 O.co2  12  ASP12      -0.2456
     16  N         24.9070  -18.5750   -2.5080 N.am   13  THR13      -0.1939
     17  CA        23.9940  -18.9210   -3.6050 C.3    13  THR13       0.2028
     18  C         24.6520  -18.9310   -4.9770 C.2    13  THR13       0.2642
     19  O         24.1550  -19.5680   -5.8980 O.2    13  THR13      -0.2714
     20  CB        22.7800  -17.9590   -3.7080 C.3    13  THR13       0.1808
     21  OG1       23.2440  -16.6030   -3.8000 O.3    13  THR13      -0.2208
     22  CG2       21.8510  -18.1340   -2.5190 C.3    13  THR13       0.0379
     23  N         25.7700  -18.2320   -5.1180 N.am   14  LYS14      -0.1977
     24  CA        26.4410  -18.1640   -6.4100 C.3    14  LYS14       0.1596
     25  C         27.9480  -18.3630   -6.2960 C.2    14  LYS14       0.2287
     26  O         28.7250  -17.6520   -6.9360 O.2    14  LYS14      -0.2864
     27  CB        26.1400  -16.8120   -7.0650 C.3    14  LYS14       0.0298
     28  CG        24.6730  -16.3880   -6.9630 C.3    14  LYS14       0.0038
     29  CD        24.3870  -15.1530   -7.7850 C.3    14  LYS14       0.0206
     30  CE        23.0860  -14.4830   -7.3580 C.3    14  LYS14       0.1093
     31  NZ        21.9450  -15.4220   -7.2340 N.3    14  LYS14      -0.1314
     32  N         27.2230  -13.0460    1.6130 N.3    48  SER48      -0.1202
     33  CA        26.0750  -13.9080    1.8770 C.3    48  SER48       0.2020
     34  C         25.4020  -13.4030    3.1450 C.2    48  SER48       0.2619
     35  O         26.0790  -12.9240    4.0560 O.2    48  SER48      -0.2717
     36  CB        26.5340  -15.3530    2.1030 C.3    48  SER48       0.2103
     37  OG        27.1060  -15.8970    0.9300 O.3    48  SER48      -0.2182
     38  N         24.0800  -13.5110    3.2170 N.am   49  THR49      -0.1938
     39  CA        23.3800  -13.0510    4.4090 C.3    49  THR49       0.2028
     40  C         22.6510  -14.1500    5.1830 C.2    49  THR49       0.2642
     41  O         22.0070  -13.8700    6.1900 O.2    49  THR49      -0.2714
     42  CB        22.3920  -11.9040    4.0770 C.3    49  THR49       0.1808
     43  OG1       21.4330  -12.3440    3.1120 O.3    49  THR49      -0.2208
     44  CG2       23.1490  -10.7110    3.5200 C.3    49  THR49       0.0379
     45  N         22.7500  -15.3960    4.7230 N.am   50  SER50      -0.1949
     46  CA        22.1170  -16.5100    5.4310 C.3    50  SER50       0.1924
     47  C         23.1910  -17.0170    6.3850 C.2    50  SER50       0.2314
     48  O         24.2550  -16.4120    6.4710 O.2    50  SER50      -0.2863
     49  CB        21.7220  -17.6290    4.4640 C.3    50  SER50       0.2116
     50  OG        22.8530  -18.3890    4.0750 O.3    50  SER50      -0.2180
     51  N         12.2960  -10.6740    5.6170 N.3    85  THR85      -0.1203
     52  CA        13.5680  -10.8810    6.2980 C.3    85  THR85       0.1994
     53  C         14.7840  -10.6980    5.3940 C.2    85  THR85       0.2617
     54  O         15.7680  -10.0630    5.7810 O.2    85  THR85      -0.2717
     55  CB        13.6120  -12.2830    6.9410 C.3    85  THR85       0.1784
     56  OG1       12.7900  -12.2810    8.1100 O.3    85  THR85      -0.2211
     57  CG2       15.0390  -12.6790    7.3180 C.3    85  THR85       0.0376
     58  N         14.7070  -11.2540    4.1930 N.am   86  ARG86      -0.1979
     59  CA        15.8040  -11.1690    3.2460 C.3    86  ARG86       0.1597
     60  C         16.1110   -9.7240    2.8740 C.2    86  ARG86       0.2287
     61  O         17.2760   -9.3210    2.8070 O.2    86  ARG86      -0.2864
     62  CB        15.4610  -11.9740    1.9950 C.3    86  ARG86       0.0334
     63  CG        16.6270  -12.1870    1.0560 C.3    86  ARG86       0.0492
     64  CD        16.3220  -11.5520   -0.2730 C.3    86  ARG86       0.2205
     65  NE        16.3450  -12.5280   -1.3420 N.pl3  86  ARG86      -0.0865
     66  CZ        16.0770  -12.2510   -2.6100 C.cat  86  ARG86       0.5346
     67  NH1       15.7520  -11.0170   -2.9710 N.pl3  86  ARG86       0.1354
     68  NH2       16.1620  -13.2100   -3.5220 N.pl3  86  ARG86       0.1354
     69  N         17.8980   -7.9890    5.7180 N.3    89  ALA89      -0.1231
     70  CA        19.2160   -8.6030    5.8370 C.3    89  ALA89       0.1694
     71  C         20.1660   -8.0580    4.7670 C.2    89  ALA89       0.2591
     72  O         21.3230   -7.7460    5.0500 O.2    89  ALA89      -0.2718
     73  CB        19.1000  -10.1110    5.7160 C.3    89  ALA89       0.0304
     74  N         19.6670   -7.9420    3.5390 N.am   90  ILE90      -0.1980
     75  CA        20.4600   -7.4410    2.4220 C.3    90  ILE90       0.1595
     76  C         20.7930   -5.9620    2.5780 C.2    90  ILE90       0.2287
     77  O         21.9040   -5.5350    2.2720 O.2    90  ILE90      -0.2864
     78  CB        19.7170   -7.6570    1.0770 C.3    90  ILE90       0.0276
     79  CG1       19.8030   -9.1350    0.6730 C.3    90  ILE90       0.0022
     80  CG2       20.3010   -6.7430   -0.0040 C.3    90  ILE90       0.0022
     81  CD1       18.9730   -9.4910   -0.5570 C.3    90  ILE90       0.0001
     82  N         21.4130  -11.2750   -8.6490 N.3   118  GLY118     -0.1210
     83  CA        20.0850  -11.1420   -9.1880 C.3   118  GLY118      0.1956
     84  C         19.5710   -9.8180   -8.6540 C.2   118  GLY118      0.2613
     85  O         20.3570   -8.9300   -8.3180 O.2   118  GLY118     -0.2717
     86  N         18.2560   -9.6820   -8.5570 N.am  119  SER119     -0.1938
     87  CA        17.6580   -8.4490   -8.0700 C.3   119  SER119      0.2055
     88  C         18.1600   -8.0880   -6.6710 C.2   119  SER119      0.2644
     89  O         18.4430   -6.9270   -6.3830 O.2   119  SER119     -0.2714
     90  CB        16.1370   -8.5900   -8.0500 C.3   119  SER119      0.2130
     91  OG        15.5270   -7.3450   -7.7810 O.3   119  SER119     -0.2179
     92  N         18.2700   -9.0880   -5.8060 N.am  120  GLY120     -0.1939
     93  CA        18.7290   -8.8380   -4.4530 C.3   120  GLY120      0.2014
     94  C         20.2050   -8.4980   -4.4000 C.2   120  GLY120      0.2639
     95  O         20.6080   -7.5220   -3.7580 O.2   120  GLY120     -0.2714
     96  N         21.0170   -9.3090   -5.0730 N.am  121  GLY121     -0.1954
     97  CA        22.4460   -9.0630   -5.0920 C.3   121  GLY121      0.1869
     98  C         22.7860   -7.7270   -5.7280 C.2   121  GLY121      0.2309
     99  O         23.6860   -7.0260   -5.2620 O.2   121  GLY121     -0.2863
    100  N         20.9450   -9.2840  -13.3550 N.3   143  THR143     -0.1218
    101  CA        19.7620   -9.8110  -14.0230 C.3   143  THR143      0.1862
    102  C         18.7110   -8.7170  -14.1690 C.2   143  THR143      0.2287
    103  O         17.6540   -8.9550  -14.7430 O.2   143  THR143     -0.2866
    104  CB        19.1120  -10.9580  -13.2300 C.3   143  THR143      0.1770
    105  OG1       18.7820  -10.4980  -11.9110 O.3   143  THR143     -0.2211
    106  CG2       20.0580  -12.1500  -13.1370 C.3   143  THR143      0.0375
    107  N         19.2450  -15.8290  -16.1780 N.3   166  ASP166     -0.1239
    108  CA        19.3590  -15.7310  -14.7310 C.3   166  ASP166      0.1674
    109  C         20.7490  -16.2090  -14.3510 C.2   166  ASP166      0.2266
    110  O         21.3270  -17.0460  -15.0420 O.2   166  ASP166     -0.2867
    111  CB        18.3130  -16.6120  -14.0510 C.3   166  ASP166      0.1410
    112  CG        18.2800  -16.4220  -12.5390 C.2   166  ASP166      0.3668
    113  OD1       17.9330  -17.3920  -11.8340 O.co2 166  ASP166     -0.2456
    114  OD2       18.5880  -15.3120  -12.0510 O.co2 166  ASP166     -0.2456
@<TRIPOS>BOND
     1   107   108    1
     2   110   109    2
     3   103   102    2
     4   108   109    1
     5   108   111    1
     6   102   101    1
     7   111   112    1
     8   101   100    1
     9   101   104    1
    10   104   106    1
    11   104   105    1
    12   112   114   ar
    13   112   113   ar
    14    83    84    1
    15    83    82    1
    16    84    86   am
    17    84    85    2
    18    86    87    1
    19    87    90    1
    20    87    88    1
    21    90    91    1
    22    29    30    1
    23    29    28    1
    24    30    31    1
    25    27    28    1
    26    27    24    1
    27    26    25    2
    28    88    89    2
    29    88    92   am
    30    24    25    1
    31    24    23    1
    32    19    18    2
    33    92    93    1
    34    98    99    2
    35    98    97    1
    36    23    18   am
    37    97    96    1
    38    96    94   am
    39    18    17    1
    40    93    94    1
    41    94    95    2
    42    21    20    1
    43    20    17    1
    44    20    22    1
    45    17    16    1
    46    68    66    1
    47     6     5    1
    48     1     2    1
    49     4     3    2
    50    67    66    1
    51    66    65    2
    52     3     2    1
    53    16    10   am
    54     2     5    1
    55     5     7    1
    56    10    11    2
    57    10     9    1
    58    65    64    1
    59     8     9    1
    60    81    79    1
    61     9    12    1
    62    14    13   ar
    63    64    63    1
    64    80    78    1
    65    79    78    1
    66    13    12    1
    67    13    15   ar
    68    37    36    1
    69    63    62    1
    70    78    75    1
    71    32    33    1
    72    33    36    1
    73    33    34    1
    74    62    59    1
    75    77    76    2
    76    75    76    1
    77    75    74    1
    78    61    60    2
    79    60    59    1
    80    43    42    1
    81    34    38   am
    82    34    35    2
    83    38    39    1
    84    59    58    1
    85    44    42    1
    86    74    71   am
    87    50    49    1
    88    42    39    1
    89    58    53   am
    90    39    40    1
    91    49    46    1
    92    45    40   am
    93    45    46    1
    94    71    72    2
    95    71    70    1
    96    40    41    2
    97    53    54    2
    98    53    52    1
    99    46    47    1
   100    51    52    1
   101    73    70    1
   102    69    70    1
   103    52    55    1
   104    47    48    2
   105    55    57    1
   106    55    56    1
