@<TRIPOS>MOLECULE
tmp/3ws8A00.pdb
 193 186 0 0 0
SMALL
GASTEIGER

@<TRIPOS>ATOM
      1  N         20.0360   -7.6600   65.0440 N.3    78  TYR78      -0.1227
      2  CA        19.0280   -6.6020   65.3190 C.3    78  TYR78       0.1736
      3  C         17.5440   -7.0370   65.3960 C.2    78  TYR78       0.2595
      4  O         16.9660   -6.9350   66.4540 O.2    78  TYR78      -0.2718
      5  CB        19.2280   -5.3660   64.4160 C.3    78  TYR78       0.0548
      6  CG        18.3300   -4.1930   64.7500 C.ar   78  TYR78      -0.0200
      7  CD1       18.5380   -3.4440   65.9000 C.ar   78  TYR78      -0.0009
      8  CD2       17.2730   -3.8160   63.9060 C.ar   78  TYR78      -0.0009
      9  CE1       17.7060   -2.3670   66.2230 C.ar   78  TYR78       0.0417
     10  CE2       16.4360   -2.7350   64.2210 C.ar   78  TYR78       0.0417
     11  CZ        16.6600   -2.0140   65.3840 C.ar   78  TYR78       0.1957
     12  OH        15.8730   -0.9340   65.7320 O.3    78  TYR78      -0.2866
     13  N         16.9360   -7.5260   64.3180 N.am   79  HIS79      -0.1975
     14  CA        15.4750   -7.8710   64.3200 C.3    79  HIS79       0.1656
     15  C         15.1030   -9.2300   65.0160 C.2    79  HIS79       0.2291
     16  O         14.4810  -10.1480   64.4210 O.2    79  HIS79      -0.2864
     17  CB        14.8820   -7.7770   62.8980 C.3    79  HIS79       0.0771
     18  CG        15.0910   -6.4480   62.2300 C.ar   79  HIS79       0.0820
     19  ND1       16.1540   -6.1970   61.3830 N.ar   79  HIS79      -0.2267
     20  CD2       14.3750   -5.2960   62.2860 C.ar   79  HIS79       0.1154
     21  CE1       16.0890   -4.9480   60.9550 C.ar   79  HIS79       0.1986
     22  NE2       15.0160   -4.3820   61.4810 N.ar   79  HIS79      -0.2212
     23  N          8.7610    0.6220   56.8020 N.3   189  LEU189     -0.1245
     24  CA         9.1240    2.0390   56.8470 C.3   189  LEU189      0.1561
     25  C          8.6820    2.7530   55.5670 C.2   189  LEU189      0.2260
     26  O          8.0680    3.7980   55.6360 O.2   189  LEU189     -0.2867
     27  CB        10.6070    2.2720   57.1490 C.3   189  LEU189      0.0270
     28  CG        10.8250    3.6280   57.8380 C.3   189  LEU189      0.0019
     29  CD1       10.6650    3.5270   59.3550 C.3   189  LEU189      0.0001
     30  CD2       12.1780    4.2480   57.5010 C.3   189  LEU189      0.0001
     31  N          6.4440    7.2270   55.4940 N.3   193  PHE193     -0.1241
     32  CA         6.6340    8.5910   54.9620 C.3   193  PHE193      0.1605
     33  C          5.3510    9.1660   54.3880 C.2   193  PHE193      0.2264
     34  O          5.1150   10.3660   54.4910 O.2   193  PHE193     -0.2867
     35  CB         7.7240    8.6330   53.8820 C.3   193  PHE193      0.0534
     36  CG         9.0740    8.1890   54.3590 C.ar  193  PHE193     -0.0203
     37  CD1        9.5710    6.9140   54.0160 C.ar  193  PHE193     -0.0042
     38  CD2        9.8750    9.0430   55.1290 C.ar  193  PHE193     -0.0042
     39  CE1       10.8280    6.4940   54.4570 C.ar  193  PHE193     -0.0003
     40  CE2       11.1300    8.6250   55.5730 C.ar  193  PHE193     -0.0003
     41  CZ        11.6000    7.3430   55.2460 C.ar  193  PHE193     -0.0000
     42  N         11.5590    2.4690   66.1540 N.3   229  LEU229     -0.1245
     43  CA        12.8090    3.1990   66.0580 C.3   229  LEU229      0.1561
     44  C         13.2260    3.8070   67.4050 C.2   229  LEU229      0.2260
     45  O         14.1040    4.6760   67.4100 O.2   229  LEU229     -0.2867
     46  CB        12.6530    4.3690   65.0850 C.3   229  LEU229      0.0270
     47  CG        11.7410    4.2900   63.8550 C.3   229  LEU229      0.0019
     48  CD1       11.8390    5.5920   63.0810 C.3   229  LEU229      0.0001
     49  CD2       12.1110    3.1210   62.9750 C.3   229  LEU229      0.0001
     50  N         14.8600    2.9130   69.7270 N.3   231  SER231     -0.1202
     51  CA        16.3040    2.8130   69.8690 C.3   231  SER231      0.2020
     52  C         16.8550    4.2290   70.0060 C.2   231  SER231      0.2618
     53  O         17.6350    4.5400   70.9170 O.2   231  SER231     -0.2717
     54  CB        16.8660    2.0770   68.6380 C.3   231  SER231      0.2103
     55  OG        17.9180    2.7870   67.9840 O.3   231  SER231     -0.2182
     56  N         16.3910    5.0990   69.1260 N.am  232  VAL232     -0.1979
     57  CA        16.8720    6.4590   69.0670 C.3   232  VAL232      0.1595
     58  C         16.2660    7.3320   70.1470 C.2   232  VAL232      0.2287
     59  O         16.3510    8.5430   70.0580 O.2   232  VAL232     -0.2864
     60  CB        16.5300    7.1180   67.7100 C.3   232  VAL232      0.0276
     61  CG1       17.1510    6.3650   66.5470 C.3   232  VAL232      0.0022
     62  CG2       15.0120    7.2190   67.5380 C.3   232  VAL232      0.0022
     63  N         22.7080   -0.1640   70.5870 N.3   242  THR242     -0.1203
     64  CA        21.6030   -0.6190   69.7230 C.3   242  THR242      0.1994
     65  C         21.8040   -0.2340   68.2750 C.2   242  THR242      0.2617
     66  O         21.2140   -0.8280   67.4020 O.2   242  THR242     -0.2717
     67  CB        20.2480   -0.1300   70.2380 C.3   242  THR242      0.1784
     68  OG1       20.1600   -0.4880   71.6190 O.3   242  THR242     -0.2211
     69  CG2       19.0960   -0.7860   69.4970 C.3   242  THR242      0.0376
     70  N         22.6650    0.7390   68.0190 N.am  243  ALA243     -0.1979
     71  CA        23.0680    1.0020   66.6460 C.3   243  ALA243      0.1597
     72  C         24.0510   -0.0780   66.1230 C.2   243  ALA243      0.2287
     73  O         23.9320   -0.5640   64.9880 O.2   243  ALA243     -0.2864
     74  CB        23.6580    2.4010   66.5140 C.3   243  ALA243      0.0319
     75  N         22.2980   -2.7680   64.8330 N.3   246  ILE246     -0.1231
     76  CA        21.6530   -2.5580   63.5520 C.3   246  ILE246      0.1692
     77  C         22.6200   -2.7020   62.3490 C.2   246  ILE246      0.2592
     78  O         22.2440   -3.3170   61.3360 O.2   246  ILE246     -0.2718
     79  CB        20.7970   -1.2720   63.4960 C.3   246  ILE246      0.0266
     80  CG1       19.9400   -1.2740   62.2250 C.3   246  ILE246      0.0019
     81  CG2       21.6680   -0.0440   63.4880 C.3   246  ILE246      0.0020
     82  CD1       18.9580   -0.1340   62.1460 C.3   246  ILE246      0.0001
     83  N         23.8400   -2.1620   62.4490 N.am  247  TYR247     -0.1976
     84  CA        24.7610   -2.2350   61.3140 C.3   247  TYR247      0.1639
     85  C         25.3050   -3.6340   61.0640 C.2   247  TYR247      0.2290
     86  O         25.4290   -4.0390   59.9070 O.2   247  TYR247     -0.2864
     87  CB        25.8570   -1.1740   61.3820 C.3   247  TYR247      0.0560
     88  CG        25.3100    0.2370   61.2430 C.ar  247  TYR247     -0.0198
     89  CD1       25.2340    1.0940   62.3590 C.ar  247  TYR247     -0.0009
     90  CD2       24.8410    0.7120   60.0030 C.ar  247  TYR247     -0.0009
     91  CE1       24.7110    2.3820   62.2490 C.ar  247  TYR247      0.0417
     92  CE2       24.3210    2.0010   59.8750 C.ar  247  TYR247      0.0417
     93  CZ        24.2480    2.8300   61.0010 C.ar  247  TYR247      0.1957
     94  OH        23.7350    4.1060   60.8830 O.3   247  TYR247     -0.2866
     95  N         22.7570   -4.9410   58.6550 N.3   250  PHE250     -0.1241
     96  CA        22.8160   -4.3250   57.3520 C.3   250  PHE250      0.1605
     97  C         24.0630   -4.7450   56.5900 C.2   250  PHE250      0.2264
     98  O         23.9770   -5.2850   55.4700 O.2   250  PHE250     -0.2867
     99  CB        22.7960   -2.8200   57.4940 C.3   250  PHE250      0.0534
    100  CG        21.4920   -2.2710   57.9800 C.ar  250  PHE250     -0.0203
    101  CD1       20.3120   -3.0180   57.8710 C.ar  250  PHE250     -0.0042
    102  CD2       21.4310   -0.9920   58.5050 C.ar  250  PHE250     -0.0042
    103  CE1       19.1000   -2.5030   58.3210 C.ar  250  PHE250     -0.0003
    104  CE2       20.2200   -0.4660   58.9350 C.ar  250  PHE250     -0.0003
    105  CZ        19.0510   -1.2200   58.8530 C.ar  250  PHE250     -0.0000
    106  N         24.0290   -0.4830   49.0780 N.3   265  ILE265     -0.1231
    107  CA        23.8510    0.9360   49.4070 C.3   265  ILE265      0.1678
    108  C         24.6840    1.2430   50.6760 C.2   265  ILE265      0.2434
    109  O         25.0160    0.3130   51.4140 O.2   265  ILE265     -0.2733
    110  CB        22.3400    1.3470   49.4410 C.3   265  ILE265      0.0265
    111  CG1       21.6760    1.1670   50.8330 C.3   265  ILE265      0.0019
    112  CG2       21.5750    0.6850   48.2910 C.3   265  ILE265      0.0020
    113  CD1       21.3550    2.5020   51.5120 C.3   265  ILE265      0.0001
    114  N         25.0810    2.5170   50.9080 N.am  266  PRO266     -0.2718
    115  CA        26.2090    2.6220   51.8580 C.3   266  PRO266      0.1536
    116  C         25.8610    2.2750   53.3600 C.2   266  PRO266      0.2601
    117  O         26.7170    1.7770   54.1130 O.2   266  PRO266     -0.2715
    118  CB        26.7250    4.0820   51.6400 C.3   266  PRO266      0.0310
    119  CG        25.8540    4.7010   50.5640 C.3   266  PRO266      0.0237
    120  CD        24.5870    3.8590   50.5270 C.3   266  PRO266      0.0939
    121  N         24.6080    2.4980   53.7540 N.am  267  MET267     -0.1932
    122  CA        24.0730    2.0590   55.0540 C.3   267  MET267      0.1821
    123  C         24.3530    0.5770   55.4010 C.2   267  MET267      0.2332
    124  O         24.3290    0.1940   56.5840 O.2   267  MET267     -0.2860
    125  CB        22.5590    2.3630   55.1000 C.2   267  MET267      0.0096
    126  CG        21.8240    1.9260   56.3470 C.2   267  MET267      0.0285
    127  SD        20.0220    1.9160   56.2670 S.3   267  MET267     -0.1125
    128  CE        19.6780    0.6710   55.0290 C.3   267  MET267      0.0742
    129  N         32.2390    1.4850   55.0210 N.3   272  LYS272     -0.1245
    130  CA        31.8560    2.8530   55.3920 C.3   272  LYS272      0.1561
    131  C         31.5100    3.0000   56.8930 C.2   272  LYS272      0.2260
    132  O         30.5130    3.6120   57.2360 O.2   272  LYS272     -0.2867
    133  CB        30.6890    3.3130   54.5180 C.3   272  LYS272      0.0271
    134  CG        31.0380    3.5050   53.0460 C.3   272  LYS272      0.0035
    135  CD        30.0690    2.7660   52.1290 C.3   272  LYS272      0.0206
    136  CE        30.0610    3.2860   50.6890 C.3   272  LYS272      0.1093
    137  NZ        31.3530    3.1630   49.9380 N.3   272  LYS272     -0.1314
    138  N         31.4370    6.6990   57.6460 N.3   275  GLU275     -0.1231
    139  CA        30.3230    7.4430   57.0770 C.3   275  GLU275      0.1699
    140  C         29.0400    7.3630   57.9370 C.2   275  GLU275      0.2592
    141  O         28.1610    8.2150   57.8310 O.2   275  GLU275     -0.2718
    142  CB        30.1220    7.0780   55.6030 C.3   275  GLU275      0.0402
    143  CG        31.1080    7.8440   54.7220 C.3   275  GLU275      0.1161
    144  CD        31.9100    6.9490   53.7850 C.2   275  GLU275      0.3649
    145  OE1       31.4310    6.7360   52.6430 O.co2 275  GLU275     -0.2457
    146  OE2       33.0110    6.4580   54.1770 O.co2 275  GLU275     -0.2457
    147  N         28.9950    6.3710   58.8260 N.am  276  VAL276     -0.1980
    148  CA        27.8490    6.0990   59.7210 C.3   276  VAL276      0.1595
    149  C         27.3380    7.2990   60.5320 C.2   276  VAL276      0.2287
    150  O         26.1520    7.6330   60.4580 O.2   276  VAL276     -0.2864
    151  CB        28.1300    4.8990   60.6790 C.3   276  VAL276      0.0276
    152  CG1       26.9730    4.6910   61.6470 C.3   276  VAL276      0.0022
    153  CG2       28.3850    3.6260   59.8800 C.3   276  VAL276      0.0022
    154  N         25.4010    9.4800   58.5400 N.3   279  GLY279     -0.1210
    155  CA        24.2150    8.8000   58.0320 C.3   279  GLY279      0.1956
    156  C         23.1210    8.7420   59.0750 C.2   279  GLY279      0.2611
    157  O         21.9380    8.9160   58.7730 O.2   279  GLY279     -0.2717
    158  N         23.5390    8.4860   60.3090 N.am  280  GLN280     -0.1979
    159  CA        22.6830    8.5820   61.4710 C.3   280  GLN280      0.1601
    160  C         22.0690    9.9940   61.6260 C.2   280  GLN280      0.2287
    161  O         20.8750   10.1490   61.9030 O.2   280  GLN280     -0.2864
    162  CB        23.4960    8.2110   62.7020 C.3   280  GLN280      0.0394
    163  CG        23.7430    6.7210   62.8280 C.3   280  GLN280      0.0908
    164  CD        22.5570    6.0370   63.4750 C.2   280  GLN280      0.2608
    165  OE1       22.0730    6.4900   64.5040 O.2   280  GLN280     -0.2717
    166  NE2       22.0710    4.9550   62.8670 N.am  280  GLN280     -0.0878
    167  N         21.4830   12.1010   59.3030 N.3   282  GLY282     -0.1210
    168  CA        20.5570   12.1910   58.2080 C.3   282  GLY282      0.1956
    169  C         19.2420   11.5160   58.5050 C.2   282  GLY282      0.2611
    170  O         18.1820   12.0810   58.2260 O.2   282  GLY282     -0.2717
    171  N         19.3350   10.3190   59.0840 N.am  283  PHE283     -0.1976
    172  CA        18.2130    9.5080   59.5140 C.3   283  PHE283      0.1639
    173  C         17.3780   10.2130   60.5860 C.2   283  PHE283      0.2290
    174  O         16.1310   10.1810   60.5520 O.2   283  PHE283     -0.2864
    175  CB        18.7290    8.1530   60.0460 C.3   283  PHE283      0.0560
    176  CG        17.6270    7.1670   60.4090 C.ar  283  PHE283     -0.0200
    177  CD1       17.1170    6.2830   59.4540 C.ar  283  PHE283     -0.0042
    178  CD2       17.0920    7.1290   61.7170 C.ar  283  PHE283     -0.0042
    179  CE1       16.1060    5.3840   59.8030 C.ar  283  PHE283     -0.0003
    180  CE2       16.0790    6.2380   62.0610 C.ar  283  PHE283     -0.0003
    181  CZ        15.5860    5.3630   61.1110 C.ar  283  PHE283     -0.0000
    182  N         15.6850   13.0360   58.6120 N.3   286  ALA286     -0.1231
    183  CA        14.8000   12.7530   57.4830 C.3   286  ALA286      0.1694
    184  C         13.6350   11.8630   57.9000 C.2   286  ALA286      0.2591
    185  O         12.5490   11.9650   57.3350 O.2   286  ALA286     -0.2718
    186  CB        15.5690   12.1710   56.2890 C.3   286  ALA286      0.0304
    187  N         13.8810   11.0140   58.9060 N.am  287  VAL287     -0.1980
    188  CA        12.9200   10.0160   59.3940 C.3   287  VAL287      0.1595
    189  C         12.5110   10.1470   60.8890 C.2   287  VAL287      0.2287
    190  O         11.3240   10.0570   61.2340 O.2   287  VAL287     -0.2864
    191  CB        13.5050    8.6230   59.2010 C.3   287  VAL287      0.0276
    192  CG1       12.4520    7.5620   59.5150 C.3   287  VAL287      0.0022
    193  CG2       14.1310    8.4870   57.7950 C.3   287  VAL287      0.0022
@<TRIPOS>BOND
     1   112   110    1
     2   106   107    1
     3   107   110    1
     4   107   108    1
     5   110   111    1
     6   137   136    1
     7   120   119    1
     8   120   114    1
     9   119   118    1
    10   108   114   am
    11   108   109    2
    12   136   135    1
    13   111   113    1
    14   114   115    1
    15   118   115    1
    16   115   116    1
    17   135   134    1
    18   145   144   ar
    19   134   133    1
    20   116   121   am
    21   116   117    2
    22   121   122    1
    23   144   146   ar
    24   144   143    1
    25    35    36    1
    26    35    32    1
    27    37    36   ar
    28    37    39   ar
    29    36    38   ar
    30    33    34    2
    31    33    32    1
    32    39    41   ar
    33   133   130    1
    34   143   142    1
    35    32    31    1
    36   129   130    1
    37   128   127    1
    38   122   125    1
    39   122   123    1
    40   125   126    2
    41    38    40   ar
    42    41    40   ar
    43   130   131    1
    44   123   124    2
    45    98    97    2
    46    25    26    2
    47    25    24    1
    48   142   139    1
    49   127   126    1
    50   186   183    1
    51    97    96    1
    52    23    24    1
    53    24    27    1
    54   131   132    2
    55   139   138    1
    56   139   140    1
    57    27    28    1
    58   185   184    2
    59    96    99    1
    60    96    95    1
    61   183   184    1
    62   183   182    1
    63    99   100    1
    64    30    28    1
    65   193   191    1
    66   141   140    2
    67    28    29    1
    68   101   100   ar
    69   101   103   ar
    70   184   187   am
    71   140   147   am
    72   100   102   ar
    73   155   154    1
    74   155   156    1
    75   168   169    1
    76   168   167    1
    77   170   169    2
    78   103   105   ar
    79   102   104   ar
    80   169   171   am
    81   157   156    2
    82   147   148    1
    83   105   104   ar
    84   187   188    1
    85   156   158   am
    86   171   172    1
    87   191   188    1
    88   191   192    1
    89   188   189    1
    90   177   179   ar
    91   177   176   ar
    92   172   175    1
    93   172   173    1
    94   148   149    1
    95   148   151    1
    96   179   181   ar
    97    92    90   ar
    98    92    93   ar
    99   153   151    1
   100    86    85    2
   101    90    88   ar
   102   175   176    1
   103   158   159    1
   104   176   178   ar
   105   150   149    2
   106   174   173    2
   107   151   152    1
   108    94    93    1
   109   189   190    2
   110    21    19   ar
   111    21    22   ar
   112    93    91   ar
   113    85    84    1
   114   181   180   ar
   115    88    87    1
   116    88    89   ar
   117    84    87    1
   118    84    83    1
   119    78    77    2
   120    19    18   ar
   121   159   160    1
   122   159   162    1
   123    22    20   ar
   124   160   161    2
   125   178   180   ar
   126    82    80    1
   127    80    79    1
   128    18    20   ar
   129    18    17    1
   130    91    89   ar
   131    77    83   am
   132    77    76    1
   133   162   163    1
   134   163   164    1
   135   166   164   am
   136    17    14    1
   137    49    47    1
   138    48    47    1
   139   164   165    2
   140    81    79    1
   141    79    76    1
   142    76    75    1
   143    47    46    1
   144     8    10   ar
   145     8     6   ar
   146    10    11   ar
   147    13    14    1
   148    13     3   am
   149    14    15    1
   150     5     6    1
   151     5     2    1
   152    16    15    2
   153     6     7   ar
   154    73    72    2
   155     1     2    1
   156    46    43    1
   157     2     3    1
   158    11    12    1
   159    11     9   ar
   160     3     4    2
   161     7     9   ar
   162    43    42    1
   163    43    44    1
   164    72    71    1
   165    74    71    1
   166    61    60    1
   167    71    70    1
   168    66    65    2
   169    44    45    2
   170    62    60    1
   171    60    57    1
   172    55    54    1
   173    70    65   am
   174    65    64    1
   175    54    51    1
   176    57    56    1
   177    57    58    1
   178    56    52   am
   179    69    67    1
   180    64    67    1
   181    64    63    1
   182    50    51    1
   183    51    52    1
   184    52    53    2
   185    59    58    2
   186    67    68    1
