@<TRIPOS>MOLECULE
tmp/3ws9A00.pdb
 172 164 0 0 0
SMALL
GASTEIGER

@<TRIPOS>ATOM
      1  N         19.9480   -7.6800   65.3810 N.3    78  TYR78      -0.1241
      2  CA        18.9600   -6.6430   65.7610 C.3    78  TYR78       0.1605
      3  C         17.4280   -7.0090   65.7410 C.2    78  TYR78       0.2264
      4  O         16.7390   -6.8410   66.7570 O.2    78  TYR78      -0.2867
      5  CB        19.2550   -5.3470   65.0160 C.3    78  TYR78       0.0534
      6  CG        18.2980   -4.2340   65.3090 C.ar   78  TYR78      -0.0201
      7  CD1       18.5590   -3.3290   66.3330 C.ar   78  TYR78      -0.0009
      8  CD2       17.1350   -4.0630   64.5490 C.ar   78  TYR78      -0.0009
      9  CE1       17.6970   -2.2780   66.5980 C.ar   78  TYR78       0.0417
     10  CE2       16.2550   -3.0200   64.8150 C.ar   78  TYR78       0.0417
     11  CZ        16.5440   -2.1300   65.8390 C.ar   78  TYR78       0.1957
     12  OH        15.6790   -1.0900   66.1180 O.3    78  TYR78      -0.2866
     13  N          8.6470    0.5670   57.1070 N.3   189  LEU189     -0.1245
     14  CA         9.0520    1.9720   57.1480 C.3   189  LEU189      0.1561
     15  C          8.6020    2.7760   55.9110 C.2   189  LEU189      0.2260
     16  O          8.1790    3.9270   56.0480 O.2   189  LEU189     -0.2867
     17  CB        10.5250    2.1630   57.4570 C.3   189  LEU189      0.0270
     18  CG        10.7020    3.6310   57.8380 C.3   189  LEU189      0.0019
     19  CD1       10.0730    3.9670   59.1850 C.3   189  LEU189      0.0001
     20  CD2       12.1870    3.9330   57.8440 C.3   189  LEU189      0.0001
     21  N         11.3430    2.5070   66.2940 N.3   229  LEU229     -0.1245
     22  CA        12.6840    3.1020   66.1760 C.3   229  LEU229      0.1561
     23  C         13.2170    3.6350   67.4840 C.2   229  LEU229      0.2260
     24  O         14.1250    4.4790   67.4910 O.2   229  LEU229     -0.2867
     25  CB        12.6490    4.2560   65.1930 C.3   229  LEU229      0.0270
     26  CG        11.7890    4.0510   63.9690 C.3   229  LEU229      0.0019
     27  CD1       11.3450    5.4140   63.4500 C.3   229  LEU229      0.0001
     28  CD2       12.6400    3.3000   62.9660 C.3   229  LEU229      0.0001
     29  N         14.9000    2.8480   69.9320 N.3   231  SER231     -0.1202
     30  CA        16.3450    2.7650   70.2140 C.3   231  SER231      0.2020
     31  C         16.8790    4.1770   70.3580 C.2   231  SER231      0.2618
     32  O         17.7180    4.4550   71.2160 O.2   231  SER231     -0.2717
     33  CB        17.1160    2.0810   69.0770 C.3   231  SER231      0.2103
     34  OG        16.2460    1.4160   68.1690 O.3   231  SER231     -0.2182
     35  N         16.3730    5.0820   69.5280 N.am  232  VAL232     -0.1979
     36  CA        16.9020    6.4240   69.4860 C.3   232  VAL232      0.1595
     37  C         16.5530    7.2040   70.7220 C.2   232  VAL232      0.2287
     38  O         17.1440    8.2400   70.9590 O.2   232  VAL232     -0.2864
     39  CB        16.3590    7.1990   68.2910 C.3   232  VAL232      0.0276
     40  CG1       16.8290    6.5450   66.9770 C.3   232  VAL232      0.0022
     41  CG2       14.8440    7.2910   68.4090 C.3   232  VAL232      0.0022
     42  N         23.0360   -0.0520   70.9710 N.3   242  THR242     -0.1203
     43  CA        21.9850   -0.5310   70.0670 C.3   242  THR242      0.1994
     44  C         22.3590   -0.2610   68.6170 C.2   242  THR242      0.2617
     45  O         22.0110   -1.0310   67.7370 O.2   242  THR242     -0.2717
     46  CB        20.5830    0.0460   70.3530 C.3   242  THR242      0.1784
     47  OG1       20.1460   -0.3920   71.6320 O.3   242  THR242     -0.2211
     48  CG2       19.5960   -0.4940   69.3540 C.3   242  THR242      0.0376
     49  N         23.0680    0.8300   68.3580 N.am  243  ALA243     -0.1979
     50  CA        23.4230    1.1280   66.9770 C.3   243  ALA243      0.1597
     51  C         24.3760    0.0320   66.4830 C.2   243  ALA243      0.2287
     52  O         24.1430   -0.5720   65.4160 O.2   243  ALA243     -0.2864
     53  CB        24.0130    2.5150   66.8350 C.3   243  ALA243      0.0319
     54  N         22.4260   -2.6300   65.2290 N.3   246  ILE246     -0.1231
     55  CA        21.8150   -2.4950   63.9150 C.3   246  ILE246      0.1692
     56  C         22.7830   -2.7480   62.7320 C.2   246  ILE246      0.2592
     57  O         22.5260   -3.6120   61.8990 O.2   246  ILE246     -0.2718
     58  CB        21.0200   -1.1870   63.7710 C.3   246  ILE246      0.0266
     59  CG1       20.2680   -1.1420   62.4360 C.3   246  ILE246      0.0019
     60  CG2       21.9360    0.0120   63.8600 C.3   246  ILE246      0.0020
     61  CD1       19.1790   -2.1870   62.2880 C.3   246  ILE246      0.0001
     62  N         23.8940   -2.0160   62.6710 N.am  247  TYR247     -0.1976
     63  CA        24.8500   -2.2040   61.5670 C.3   247  TYR247      0.1639
     64  C         25.3520   -3.6240   61.4620 C.2   247  TYR247      0.2290
     65  O         25.6340   -4.0990   60.3770 O.2   247  TYR247     -0.2864
     66  CB        25.9900   -1.1630   61.5640 C.3   247  TYR247      0.0560
     67  CG        25.4270    0.2500   61.5130 C.ar  247  TYR247     -0.0198
     68  CD1       25.5480    1.1080   62.6110 C.ar  247  TYR247     -0.0009
     69  CD2       24.6840    0.7100   60.3870 C.ar  247  TYR247     -0.0009
     70  CE1       24.9900    2.3750   62.5860 C.ar  247  TYR247      0.0417
     71  CE2       24.1230    1.9760   60.3680 C.ar  247  TYR247      0.0417
     72  CZ        24.2880    2.7930   61.4740 C.ar  247  TYR247      0.1957
     73  OH        23.7710    4.0540   61.4910 O.3   247  TYR247     -0.2866
     74  N         22.7400   -4.9360   59.1020 N.3   250  PHE250     -0.1241
     75  CA        22.9610   -4.2920   57.7960 C.3   250  PHE250      0.1605
     76  C         24.2320   -4.7760   57.0990 C.2   250  PHE250      0.2264
     77  O         24.1500   -5.2470   55.9670 O.2   250  PHE250     -0.2867
     78  CB        23.0190   -2.7650   57.9110 C.3   250  PHE250      0.0534
     79  CG        21.7040   -2.1150   58.1780 C.ar  250  PHE250     -0.0203
     80  CD1       20.5170   -2.7080   57.7760 C.ar  250  PHE250     -0.0042
     81  CD2       21.6570   -0.8790   58.7920 C.ar  250  PHE250     -0.0042
     82  CE1       19.2870   -2.0990   58.0300 C.ar  250  PHE250     -0.0003
     83  CE2       20.4420   -0.2580   59.0300 C.ar  250  PHE250     -0.0003
     84  CZ        19.2520   -0.8710   58.6570 C.ar  250  PHE250     -0.0000
     85  N         24.7070   -0.6000   49.5500 N.3   265  ILE265     -0.1231
     86  CA        24.5730    0.8410   49.7820 C.3   265  ILE265      0.1678
     87  C         25.4670    1.3090   50.9480 C.2   265  ILE265      0.2434
     88  O         26.0570    0.4780   51.6540 O.2   265  ILE265     -0.2733
     89  CB        23.0970    1.3210   49.9350 C.3   265  ILE265      0.0265
     90  CG1       22.5100    0.8930   51.2800 C.3   265  ILE265      0.0019
     91  CG2       22.2480    0.9150   48.7300 C.3   265  ILE265      0.0020
     92  CD1       21.8630    2.0460   52.0040 C.3   265  ILE265      0.0001
     93  N         25.5720    2.6380   51.1650 N.am  266  PRO266     -0.2718
     94  CA        26.6400    2.9600   52.1090 C.3   266  PRO266      0.1536
     95  C         26.3500    2.4130   53.5330 C.2   266  PRO266      0.2601
     96  O         27.2590    1.9680   54.2280 O.2   266  PRO266     -0.2715
     97  CB        26.7070    4.5080   52.0540 C.3   266  PRO266      0.0310
     98  CG        25.5450    4.9820   51.1960 C.3   266  PRO266      0.0237
     99  CD        24.6750    3.7970   50.9250 C.3   266  PRO266      0.0939
    100  N         25.0740    2.4050   53.9090 N.am  267  MET267     -0.1932
    101  CA        24.5840    1.9280   55.2140 C.3   267  MET267      0.1821
    102  C         24.9700    0.4880   55.5260 C.2   267  MET267      0.2332
    103  O         25.4640    0.2080   56.6060 O.2   267  MET267     -0.2860
    104  CB        23.0670    2.1310   55.2840 C.2   267  MET267      0.0096
    105  CG        22.4510    1.9750   56.6540 C.2   267  MET267      0.0285
    106  SD        20.6590    2.1770   56.7260 S.3   267  MET267     -0.1125
    107  CE        20.1450    1.5090   55.1470 C.3   267  MET267      0.0742
    108  N         32.7190    1.0080   55.2790 N.3   272  LYS272     -0.1245
    109  CA        32.3240    2.3990   55.4720 C.3   272  LYS272      0.1561
    110  C         31.9840    2.7040   56.9260 C.2   272  LYS272      0.2260
    111  O         31.3730    3.7210   57.2140 O.2   272  LYS272     -0.2867
    112  CB        31.1790    2.7740   54.5290 C.3   272  LYS272      0.0271
    113  CG        31.5990    2.8860   53.0620 C.3   272  LYS272      0.0035
    114  CD        30.3830    3.0340   52.1470 C.3   272  LYS272      0.0206
    115  CE        30.7550    3.3790   50.7110 C.3   272  LYS272      0.1093
    116  NZ        31.3720    2.2290   49.9830 N.3   272  LYS272     -0.1314
    117  N         31.4860    6.3790   58.0350 N.3   275  GLU275     -0.1231
    118  CA        30.3860    7.1990   57.5270 C.3   275  GLU275      0.1699
    119  C         29.1540    7.1590   58.4700 C.2   275  GLU275      0.2592
    120  O         28.3080    8.0600   58.4670 O.2   275  GLU275     -0.2718
    121  CB        30.0030    6.7820   56.1060 C.3   275  GLU275      0.0402
    122  CG        30.9130    7.4040   55.0620 C.3   275  GLU275      0.1161
    123  CD        30.5980    6.9860   53.6180 C.2   275  GLU275      0.3649
    124  OE1       29.5930    7.4630   53.0280 O.co2 275  GLU275     -0.2457
    125  OE2       31.3880    6.2020   53.0370 O.co2 275  GLU275     -0.2457
    126  N         29.0670    6.1140   59.2900 N.am  276  VAL276     -0.1980
    127  CA        27.9320    5.9170   60.1920 C.3   276  VAL276      0.1595
    128  C         27.4580    7.1770   60.9320 C.2   276  VAL276      0.2287
    129  O         26.2920    7.5430   60.8260 O.2   276  VAL276     -0.2864
    130  CB        28.1890    4.7640   61.1980 C.3   276  VAL276      0.0276
    131  CG1       27.1780    4.8030   62.3260 C.3   276  VAL276      0.0022
    132  CG2       28.1190    3.4140   60.5060 C.3   276  VAL276      0.0022
    133  N         25.5430    9.1770   58.8510 N.3   279  GLY279     -0.1210
    134  CA        24.4160    8.3330   58.4530 C.3   279  GLY279      0.1956
    135  C         23.3210    8.5760   59.4460 C.2   279  GLY279      0.2611
    136  O         22.2390    9.0150   59.0800 O.2   279  GLY279     -0.2717
    137  N         23.6450    8.3440   60.7190 N.am  280  GLN280     -0.1979
    138  CA        22.7300    8.5340   61.8700 C.3   280  GLN280      0.1601
    139  C         22.1150    9.9540   61.8990 C.2   280  GLN280      0.2287
    140  O         20.8970   10.1340   61.8150 O.2   280  GLN280     -0.2864
    141  CB        23.4650    8.2050   63.1850 C.3   280  GLN280      0.0394
    142  CG        23.6530    6.7180   63.4780 C.3   280  GLN280      0.0908
    143  CD        22.3350    6.0300   63.8480 C.2   280  GLN280      0.2608
    144  OE1       21.7750    6.2810   64.9230 O.2   280  GLN280     -0.2717
    145  NE2       21.8360    5.1500   62.9690 N.am  280  GLN280     -0.0878
    146  N         21.7390   11.8490   59.6030 N.3   282  GLY282     -0.1210
    147  CA        20.8150   11.8660   58.4740 C.3   282  GLY282      0.1956
    148  C         19.4430   11.2830   58.8300 C.2   282  GLY282      0.2611
    149  O         18.3580   11.8990   58.5740 O.2   282  GLY282     -0.2717
    150  N         19.5280   10.0930   59.4380 N.am  283  PHE283     -0.1976
    151  CA        18.3940    9.2960   59.8050 C.3   283  PHE283      0.1639
    152  C         17.6020   10.1180   60.7500 C.2   283  PHE283      0.2290
    153  O         16.4910   10.5250   60.4370 O.2   283  PHE283     -0.2864
    154  CB        18.8290    7.9840   60.4830 C.3   283  PHE283      0.0560
    155  CG        17.6760    7.0270   60.7540 C.ar  283  PHE283     -0.0200
    156  CD1       17.0150    6.3640   59.6840 C.ar  283  PHE283     -0.0042
    157  CD2       17.2240    6.8130   62.0730 C.ar  283  PHE283     -0.0042
    158  CE1       15.9420    5.5050   59.9390 C.ar  283  PHE283     -0.0003
    159  CE2       16.1430    5.9660   62.3230 C.ar  283  PHE283     -0.0003
    160  CZ        15.5090    5.3030   61.2600 C.ar  283  PHE283     -0.0000
    161  N         15.8550   13.2130   58.8820 N.3   286  ALA286     -0.1231
    162  CA        14.7410   12.9490   57.9610 C.3   286  ALA286      0.1694
    163  C         13.7630   11.8980   58.4690 C.2   286  ALA286      0.2591
    164  O         12.6440   11.7880   57.9470 O.2   286  ALA286     -0.2718
    165  CB        15.2420   12.5740   56.5660 C.3   286  ALA286      0.0304
    166  N         14.1540   11.1110   59.4550 N.am  287  VAL287     -0.1980
    167  CA        13.2280   10.1050   59.9270 C.3   287  VAL287      0.1595
    168  C         12.7590   10.3130   61.3710 C.2   287  VAL287      0.2287
    169  O         11.6080   10.7180   61.5870 O.2   287  VAL287     -0.2864
    170  CB        13.7870    8.7030   59.7650 C.3   287  VAL287      0.0276
    171  CG1       12.6600    7.7070   59.9750 C.3   287  VAL287      0.0022
    172  CG2       14.4270    8.5580   58.3910 C.3   287  VAL287      0.0022
@<TRIPOS>BOND
     1    91    89    1
     2    85    86    1
     3    86    89    1
     4    86    87    1
     5    89    90    1
     6   116   115    1
     7   115   114    1
     8    99    93    1
     9    99    98    1
    10    87    93   am
    11    87    88    2
    12    93    94    1
    13    98    97    1
    14    90    92    1
    15    97    94    1
    16    94    95    1
    17   114   113    1
    18   124   123   ar
    19   125   123   ar
    20   113   112    1
    21    95   100   am
    22    95    96    2
    23   123   122    1
    24   100   101    1
    25   112   109    1
    26   122   121    1
    27   107   106    1
    28   101   104    1
    29   101   102    1
    30   108   109    1
    31   104   105    2
    32   109   110    1
    33   102   103    2
    34    15    16    2
    35    15    14    1
    36    77    76    2
    37   121   118    1
    38   165   162    1
    39   105   106    1
    40   110   111    2
    41    76    75    1
    42    13    14    1
    43    14    17    1
    44    17    18    1
    45   118   117    1
    46   118   119    1
    47    80    82   ar
    48    80    79   ar
    49    75    78    1
    50    75    74    1
    51    18    20    1
    52    18    19    1
    53    78    79    1
    54   164   163    2
    55   162   163    1
    56   162   161    1
    57    82    84   ar
    58    79    81   ar
    59   172   170    1
    60   134   133    1
    61   134   135    1
    62   120   119    2
    63   163   166   am
    64   119   126   am
    65   147   148    1
    66   147   146    1
    67   149   148    2
    68    84    83   ar
    69    81    83   ar
    70   148   150   am
    71   136   135    2
    72   126   127    1
    73   150   151    1
    74   135   137   am
    75   166   167    1
    76   156   158   ar
    77   156   155   ar
    78   170   167    1
    79   170   171    1
    80   151   154    1
    81   151   152    1
    82   167   168    1
    83   158   160   ar
    84   127   128    1
    85   127   130    1
    86    71    69   ar
    87    71    72   ar
    88    65    64    2
    89    69    67   ar
    90   153   152    2
    91   154   155    1
    92   132   130    1
    93   137   138    1
    94   155   157   ar
    95   129   128    2
    96   130   131    1
    97   160   159   ar
    98   168   169    2
    99    64    63    1
   100    72    73    1
   101    72    70   ar
   102    67    66    1
   103    67    68   ar
   104    66    63    1
   105    63    62    1
   106   140   139    2
   107   138   139    1
   108   138   141    1
   109    57    56    2
   110   157   159   ar
   111    61    59    1
   112    59    58    1
   113    70    68   ar
   114    62    56   am
   115    56    55    1
   116    28    26    1
   117   145   143   am
   118   141   142    1
   119    27    26    1
   120   142   143    1
   121    58    60    1
   122    58    55    1
   123   143   144    2
   124    55    54    1
   125    26    25    1
   126     8    10   ar
   127     8     6   ar
   128    10    11   ar
   129     5     6    1
   130     5     2    1
   131    25    22    1
   132     6     7   ar
   133     1     2    1
   134    52    51    2
   135     3     2    1
   136     3     4    2
   137    11    12    1
   138    11     9   ar
   139    22    21    1
   140    22    23    1
   141     7     9   ar
   142    51    50    1
   143    53    50    1
   144    50    49    1
   145    40    39    1
   146    23    24    2
   147    45    44    2
   148    34    33    1
   149    39    41    1
   150    39    36    1
   151    49    44   am
   152    44    43    1
   153    33    30    1
   154    48    46    1
   155    36    35    1
   156    36    37    1
   157    35    31   am
   158    29    30    1
   159    43    46    1
   160    43    42    1
   161    30    31    1
   162    46    47    1
   163    31    32    2
   164    37    38    2
