@<TRIPOS>MOLECULE
tmp/3wsaB00.pdb
 204 193 0 0 0
SMALL
GASTEIGER

@<TRIPOS>ATOM
      1  N         12.4580  -65.2820    4.8040 N.3    19  ARG19      -0.1245
      2  CA        12.8570  -64.0600    5.4860 C.3    19  ARG19       0.1563
      3  C         14.0420  -63.3440    4.8370 C.2    19  ARG19       0.2260
      4  O         14.1160  -62.1160    4.8670 O.2    19  ARG19      -0.2867
      5  CB        13.1860  -64.3570    6.9550 C.3    19  ARG19       0.0307
      6  CG        14.4740  -65.1480    7.1920 C.3    19  ARG19       0.0489
      7  CD        14.2500  -66.6580    7.2730 C.3    19  ARG19       0.2205
      8  NE        13.9840  -67.2760    5.9770 N.pl3  19  ARG19      -0.0865
      9  CZ        13.8150  -68.5820    5.7940 C.cat  19  ARG19       0.5346
     10  NH1       13.5790  -69.0590    4.5800 N.pl3  19  ARG19       0.1354
     11  NH2       13.8820  -69.4130    6.8250 N.pl3  19  ARG19       0.1354
     12  N         15.0790  -63.5680    1.4350 N.3    21  PHE21      -0.1241
     13  CA        15.0220  -63.6870   -0.0190 C.3    21  PHE21       0.1605
     14  C         14.0190  -62.6800   -0.5710 C.2    21  PHE21       0.2264
     15  O         14.2860  -62.0010   -1.5610 O.2    21  PHE21      -0.2867
     16  CB        14.5940  -65.1000   -0.4390 C.3    21  PHE21       0.0534
     17  CG        15.7410  -66.0430   -0.7170 C.ar   21  PHE21      -0.0203
     18  CD1       16.5920  -66.4650    0.3020 C.ar   21  PHE21      -0.0042
     19  CD2       15.9480  -66.5340   -2.0050 C.ar   21  PHE21      -0.0042
     20  CE1       17.6320  -67.3650    0.0390 C.ar   21  PHE21      -0.0003
     21  CE2       16.9830  -67.4320   -2.2790 C.ar   21  PHE21      -0.0003
     22  CZ        17.8260  -67.8490   -1.2560 C.ar   21  PHE21      -0.0000
     23  N          8.8060  -69.6150   -6.2100 N.3    40  TYR40      -0.1241
     24  CA         9.3570  -69.9210   -4.9000 C.3    40  TYR40       0.1605
     25  C          8.2870  -70.4820   -3.9690 C.2    40  TYR40       0.2264
     26  O          8.5720  -71.3370   -3.1320 O.2    40  TYR40      -0.2867
     27  CB         9.9810  -68.6670   -4.2800 C.3    40  TYR40       0.0534
     28  CG        10.3200  -68.8190   -2.8150 C.ar   40  TYR40      -0.0201
     29  CD1        9.3340  -68.6950   -1.8330 C.ar   40  TYR40      -0.0009
     30  CD2       11.6170  -69.1320   -2.4100 C.ar   40  TYR40      -0.0009
     31  CE1        9.6300  -68.8830   -0.4870 C.ar   40  TYR40       0.0417
     32  CE2       11.9230  -69.3230   -1.0660 C.ar   40  TYR40       0.0417
     33  CZ        10.9260  -69.1980   -0.1110 C.ar   40  TYR40       0.1957
     34  OH        11.2260  -69.3920    1.2190 O.3    40  TYR40      -0.2866
     35  N          7.2630  -74.2280   -4.8210 N.3    43  LEU43      -0.1231
     36  CA         8.3130  -75.1470   -4.4090 C.3    43  LEU43       0.1693
     37  C          8.3710  -75.2370   -2.8920 C.2    43  LEU43       0.2591
     38  O          8.8680  -76.2160   -2.3400 O.2    43  LEU43      -0.2718
     39  CB         9.6700  -74.6930   -4.9530 C.3    43  LEU43       0.0284
     40  CG         9.8390  -74.6970   -6.4750 C.3    43  LEU43       0.0019
     41  CD1       11.2400  -74.2270   -6.8320 C.3    43  LEU43       0.0001
     42  CD2        9.5930  -76.0940   -7.0210 C.3    43  LEU43       0.0001
     43  N          7.8640  -74.2130   -2.2170 N.am   44  ARG44      -0.1980
     44  CA         7.8640  -74.2080   -0.7640 C.3    44  ARG44       0.1597
     45  C          6.7280  -75.0880   -0.2590 C.2    44  ARG44       0.2287
     46  O          6.8610  -75.7660    0.7580 O.2    44  ARG44      -0.2864
     47  CB         7.7110  -72.7800   -0.2350 C.3    44  ARG44       0.0334
     48  CG         7.7710  -72.6660    1.2850 C.3    44  ARG44       0.0492
     49  CD         8.8650  -73.5560    1.8670 C.3    44  ARG44       0.2205
     50  NE         9.1860  -73.2150    3.2490 N.pl3  44  ARG44      -0.0865
     51  CZ         9.9420  -72.1790    3.6010 C.cat  44  ARG44       0.5346
     52  NH1       10.4560  -71.3870    2.6690 N.pl3  44  ARG44       0.1354
     53  NH2       10.1800  -71.9290    4.8810 N.pl3  44  ARG44       0.1354
     54  N          7.7250  -78.5110   -0.8780 N.3    47  ASP47      -0.1239
     55  CA         8.7380  -78.9100    0.0840 C.3    47  ASP47       0.1674
     56  C          8.0670  -79.2650    1.4040 C.2    47  ASP47       0.2266
     57  O          8.4900  -80.1870    2.0990 O.2    47  ASP47      -0.2867
     58  CB         9.7340  -77.7680    0.2930 C.3    47  ASP47       0.1410
     59  CG        10.8770  -78.1490    1.2130 C.2    47  ASP47       0.3668
     60  OD1       10.9550  -79.3270    1.6210 O.co2  47  ASP47      -0.2456
     61  OD2       11.7030  -77.2670    1.5260 O.co2  47  ASP47      -0.2456
     62  N         10.9680  -82.3790  -10.1540 N.3   117  MET117     -0.1245
     63  CA        11.3980  -82.2540   -8.7680 C.3   117  MET117      0.1570
     64  C         10.6040  -83.1910   -7.8640 C.2   117  MET117      0.2261
     65  O         11.1050  -83.6440   -6.8360 O.2   117  MET117     -0.2867
     66  CB        11.2380  -80.8060   -8.2960 C.3   117  MET117      0.0387
     67  CG        11.9310  -80.5070   -6.9790 C.3   117  MET117      0.0595
     68  SD        11.8670  -78.7640   -6.5110 S.3   117  MET117     -0.1393
     69  CE        13.0290  -78.0500   -7.6870 C.3   117  MET117      0.0692
     70  N         16.4060  -81.1940   -5.4230 N.3   142  VAL142     -0.1231
     71  CA        15.9210  -80.1750   -4.5000 C.3   142  VAL142      0.1692
     72  C         16.5470  -78.7930   -4.6350 C.2   142  VAL142      0.2591
     73  O         16.0930  -77.8470   -3.9980 O.2   142  VAL142     -0.2718
     74  CB        16.0940  -80.6320   -3.0360 C.3   142  VAL142      0.0266
     75  CG1       15.2730  -81.8850   -2.7870 C.3   142  VAL142      0.0020
     76  CG2       17.5640  -80.8880   -2.7390 C.3   142  VAL142      0.0020
     77  N         17.5820  -78.6660   -5.4550 N.am  143  ALA143     -0.1980
     78  CA        18.2360  -77.3750   -5.6260 C.3   143  ALA143      0.1597
     79  C         18.7620  -77.1840   -7.0400 C.2   143  ALA143      0.2287
     80  O         18.5260  -76.1490   -7.6630 O.2   143  ALA143     -0.2864
     81  CB        19.3690  -77.2320   -4.6210 C.3   143  ALA143      0.0319
     82  N         16.1480  -75.9990   -9.2470 N.3   146  VAL146     -0.1231
     83  CA        15.6970  -74.6380   -8.9770 C.3   146  VAL146      0.1692
     84  C         16.6300  -73.6640   -9.6900 C.2   146  VAL146      0.2592
     85  O         16.2120  -72.5910  -10.1300 O.2   146  VAL146     -0.2718
     86  CB        15.7120  -74.3210   -7.4650 C.3   146  VAL146      0.0266
     87  CG1       15.1530  -72.9270   -7.2230 C.3   146  VAL146      0.0020
     88  CG2       14.9010  -75.3530   -6.7060 C.3   146  VAL146      0.0020
     89  N         17.8980  -74.0470   -9.7940 N.am  147  GLY147     -0.1957
     90  CA        18.8640  -73.2040  -10.4680 C.3   147  GLY147      0.1869
     91  C         18.5730  -73.2000  -11.9510 C.2   147  GLY147      0.2309
     92  O         18.6700  -72.1700  -12.6160 O.2   147  GLY147     -0.2863
     93  N         15.0810  -71.1620  -12.5130 N.3   150  LEU150     -0.1231
     94  CA        15.2990  -69.7250  -12.4320 C.3   150  LEU150      0.1693
     95  C         16.0560  -69.2190  -13.6530 C.2   150  LEU150      0.2592
     96  O         15.7190  -68.1750  -14.2110 O.2   150  LEU150     -0.2718
     97  CB        16.0730  -69.3770  -11.1580 C.3   150  LEU150      0.0284
     98  CG        15.3040  -69.5890   -9.8520 C.3   150  LEU150      0.0019
     99  CD1       16.1780  -69.2330   -8.6700 C.3   150  LEU150      0.0001
    100  CD2       14.0510  -68.7280   -9.8570 C.3   150  LEU150      0.0001
    101  N         17.0740  -69.9660  -14.0680 N.am  151  SER151     -0.1952
    102  CA        17.8720  -69.5910  -15.2290 C.3   151  SER151      0.1924
    103  C         17.0190  -69.5920  -16.4970 C.2   151  SER151      0.2314
    104  O         17.0870  -68.6620  -17.3000 O.2   151  SER151     -0.2863
    105  CB        19.0460  -70.5580  -15.4000 C.3   151  SER151      0.2116
    106  OG        19.9170  -70.5200  -14.2820 O.3   151  SER151     -0.2180
    107  N         14.9310  -66.3940  -16.4630 N.3   154  PHE154     -0.1241
    108  CA        15.6540  -65.1720  -16.8030 C.3   154  PHE154      0.1605
    109  C         15.7990  -65.0330  -18.3130 C.2   154  PHE154      0.2264
    110  O         15.5830  -63.9570  -18.8700 O.2   154  PHE154     -0.2867
    111  CB        17.0420  -65.1680  -16.1540 C.3   154  PHE154      0.0534
    112  CG        17.0150  -65.2850  -14.6550 C.ar  154  PHE154     -0.0203
    113  CD1       16.1020  -64.5540  -13.9010 C.ar  154  PHE154     -0.0042
    114  CD2       17.9170  -66.1140  -13.9950 C.ar  154  PHE154     -0.0042
    115  CE1       16.0860  -64.6480  -12.5100 C.ar  154  PHE154     -0.0003
    116  CE2       17.9100  -66.2150  -12.6040 C.ar  154  PHE154     -0.0003
    117  CZ        16.9910  -65.4790  -11.8600 C.ar  154  PHE154     -0.0000
    118  N         24.0170  -73.8420  -14.0500 N.3   171  ALA171     -0.1245
    119  CA        22.8880  -73.4660  -13.2100 C.3   171  ALA171      0.1562
    120  C         22.7340  -74.5110  -12.1110 C.2   171  ALA171      0.2260
    121  O         22.3850  -74.1900  -10.9740 O.2   171  ALA171     -0.2867
    122  CB        21.6180  -73.3850  -14.0440 C.3   171  ALA171      0.0290
    123  N         25.0930  -73.8270   -9.3270 N.3   174  MET174     -0.1230
    124  CA        24.5980  -72.7580   -8.4710 C.3   174  MET174      0.1702
    125  C         23.6770  -73.3200   -7.3970 C.2   174  MET174      0.2592
    126  O         23.7170  -72.8900   -6.2450 O.2   174  MET174     -0.2718
    127  CB        23.8290  -71.7320   -9.3010 C.3   174  MET174      0.0401
    128  CG        24.6990  -70.8520  -10.1790 C.3   174  MET174      0.0596
    129  SD        25.6730  -69.6990   -9.2060 S.3   174  MET174     -0.1393
    130  CE        24.4260  -68.5110   -8.7590 C.3   174  MET174      0.0692
    131  N         22.8490  -74.2840   -7.7860 N.am  175  GLY175     -0.1957
    132  CA        21.9160  -74.8860   -6.8520 C.3   175  GLY175      0.1869
    133  C         22.5630  -75.8450   -5.8750 C.2   175  GLY175      0.2309
    134  O         22.2330  -75.8480   -4.6890 O.2   175  GLY175     -0.2863
    135  N         24.7410  -74.1190   -2.9030 N.3   178  LEU178     -0.1231
    136  CA        23.9330  -73.6060   -1.8040 C.3   178  LEU178      0.1693
    137  C         23.3360  -74.7260   -0.9610 C.2   178  LEU178      0.2591
    138  O         23.3940  -74.6840    0.2680 O.2   178  LEU178     -0.2718
    139  CB        22.8080  -72.7190   -2.3400 C.3   178  LEU178      0.0284
    140  CG        23.2360  -71.4210   -3.0260 C.3   178  LEU178      0.0019
    141  CD1       22.0080  -70.6380   -3.4300 C.3   178  LEU178      0.0001
    142  CD2       24.0950  -70.5950   -2.0820 C.3   178  LEU178      0.0001
    143  N         22.7630  -75.7260   -1.6220 N.am  179  GLN179     -0.1979
    144  CA        22.1480  -76.8460   -0.9200 C.3   179  GLN179      0.1601
    145  C         23.1460  -77.5660   -0.0160 C.2   179  GLN179      0.2287
    146  O         22.8470  -77.8460    1.1440 O.2   179  GLN179     -0.2864
    147  CB        21.5420  -77.8320   -1.9250 C.3   179  GLN179      0.0394
    148  CG        20.7310  -78.9530   -1.2850 C.3   179  GLN179      0.0908
    149  CD        19.5880  -78.4370   -0.4280 C.2   179  GLN179      0.2608
    150  OE1       18.7080  -77.7210   -0.9090 O.2   179  GLN179     -0.2717
    151  NE2       19.5970  -78.7990    0.8500 N.am  179  GLN179     -0.0878
    152  N         24.2080  -75.5660    2.8580 N.3   182  ASN182     -0.1240
    153  CA        23.0840  -75.5270    3.7820 C.3   182  ASN182      0.1653
    154  C         23.0540  -76.7800    4.6490 C.2   182  ASN182      0.2266
    155  O         22.9280  -76.6960    5.8680 O.2   182  ASN182     -0.2867
    156  CB        21.7740  -75.4090    3.0000 C.3   182  ASN182      0.1155
    157  CG        20.6540  -74.8130    3.8270 C.2   182  ASN182      0.2627
    158  OD1       20.3000  -75.3340    4.8860 O.2   182  ASN182     -0.2716
    159  ND2       20.0870  -73.7110    3.3450 N.am  182  ASN182     -0.0877
    160  N         29.0150  -68.6280  -13.9270 N.3   243  TYR243     -0.1241
    161  CA        27.6000  -68.3190  -14.0850 C.3   243  TYR243      0.1605
    162  C         27.3090  -66.8390  -13.8530 C.2   243  TYR243      0.2264
    163  O         26.6440  -66.1980  -14.6670 O.2   243  TYR243     -0.2867
    164  CB        26.7680  -69.1710  -13.1220 C.3   243  TYR243      0.0534
    165  CG        25.2750  -68.9440  -13.2260 C.ar  243  TYR243     -0.0201
    166  CD1       24.6770  -67.8200  -12.6570 C.ar  243  TYR243     -0.0009
    167  CD2       24.4630  -69.8390  -13.9180 C.ar  243  TYR243     -0.0009
    168  CE1       23.3110  -67.5920  -12.7760 C.ar  243  TYR243      0.0417
    169  CE2       23.0980  -69.6210  -14.0440 C.ar  243  TYR243      0.0417
    170  CZ        22.5290  -68.4970  -13.4710 C.ar  243  TYR243      0.1957
    171  OH        21.1790  -68.2770  -13.5940 O.3   243  TYR243     -0.2866
    172  N         20.2540  -60.9110   -7.0130 N.3   255  PHE255     -0.1227
    173  CA        19.4830  -62.0940   -6.6520 C.3   255  PHE255      0.1736
    174  C         20.3080  -63.3750   -6.6530 C.2   255  PHE255      0.2595
    175  O         20.0320  -64.2960   -5.8860 O.2   255  PHE255     -0.2718
    176  CB        18.2980  -62.2560   -7.6090 C.3   255  PHE255      0.0547
    177  CG        17.4470  -63.4630   -7.3250 C.ar  255  PHE255     -0.0202
    178  CD1       16.7330  -63.5650   -6.1360 C.ar  255  PHE255     -0.0042
    179  CD2       17.3620  -64.5000   -8.2460 C.ar  255  PHE255     -0.0042
    180  CE1       15.9470  -64.6830   -5.8700 C.ar  255  PHE255     -0.0003
    181  CE2       16.5800  -65.6220   -7.9910 C.ar  255  PHE255     -0.0003
    182  CZ        15.8700  -65.7130   -6.7990 C.ar  255  PHE255     -0.0000
    183  N         21.3220  -63.4330   -7.5080 N.am  256  CYS256     -0.1970
    184  CA        22.1570  -64.6220   -7.6000 C.3   256  CYS256      0.1712
    185  C         23.4530  -64.5200   -6.8030 C.2   256  CYS256      0.2296
    186  O         23.9290  -65.5140   -6.2570 O.2   256  CYS256     -0.2864
    187  CB        22.4760  -64.9110   -9.0650 C.3   256  CYS256      0.0983
    188  SG        21.0060  -65.0790  -10.0970 S.3   256  CYS256     -0.0798
    189  N         23.2140  -64.6490   -2.3610 N.3   259  PRO259     -0.2102
    190  CA        23.1380  -65.9990   -1.7910 C.3   259  PRO259      0.1504
    191  C         24.4770  -66.7320   -1.8270 C.2   259  PRO259      0.2575
    192  O         24.9980  -67.1410   -0.7880 O.2   259  PRO259     -0.2718
    193  CB        22.0830  -66.6760   -2.6590 C.3   259  PRO259      0.0282
    194  CG        21.1850  -65.5380   -3.0310 C.3   259  PRO259      0.0208
    195  CD        22.1840  -64.4670   -3.3970 C.3   259  PRO259      0.0893
    196  N         25.0260  -66.8930   -3.0270 N.am  260  GLN260     -0.1980
    197  CA        26.3040  -67.5710   -3.2150 C.3   260  GLN260      0.1601
    198  C         27.3730  -67.0160   -2.2830 C.2   260  GLN260      0.2287
    199  O         28.1380  -67.7690   -1.6810 O.2   260  GLN260     -0.2864
    200  CB        26.7740  -67.4150   -4.6640 C.3   260  GLN260      0.0394
    201  CG        25.8560  -68.0420   -5.6980 C.3   260  GLN260      0.0908
    202  CD        25.7280  -69.5470   -5.5400 C.2   260  GLN260      0.2608
    203  OE1       26.7270  -70.2650   -5.4800 O.2   260  GLN260     -0.2717
    204  NE2       24.4940  -70.0320   -5.4790 N.am  260  GLN260     -0.0878
@<TRIPOS>BOND
     1   110   109    2
     2   109   108    1
     3   104   103    2
     4   108   107    1
     5   108   111    1
     6   103   102    1
     7   111   112    1
     8   105   102    1
     9   105   106    1
    10   102   101    1
    11   163   162    2
    12   112   114   ar
    13   112   113   ar
    14    96    95    2
    15   161   160    1
    16   161   162    1
    17   161   164    1
    18   101    95   am
    19   118   119    1
    20   169   167   ar
    21   169   170   ar
    22   122   119    1
    23   114   116   ar
    24   167   165   ar
    25   113   115   ar
    26    95    94    1
    27   171   170    1
    28   170   168   ar
    29   165   164    1
    30   165   166   ar
    31   119   120    1
    32   168   166   ar
    33    92    91    2
    34   116   117   ar
    35    93    94    1
    36   115   117   ar
    37    94    97    1
    38   120   121    2
    39    91    90    1
    40    97    98    1
    41    90    89    1
    42   128   127    1
    43   128   129    1
    44    62    63    1
    45    85    84    2
    46   188   187    1
    47   100    98    1
    48    98    99    1
    49    89    84   am
    50    84    83    1
    51   123   124    1
    52   127   124    1
    53    82    83    1
    54   129   130    1
    55   187   184    1
    56    83    86    1
    57    63    66    1
    58    63    64    1
    59   124   125    1
    60    66    67    1
    61   179   181   ar
    62   179   177   ar
    63   181   182   ar
    64    64    65    2
    65   131   125   am
    66   131   132    1
    67    69    68    1
    68    80    79    2
    69   176   177    1
    70   176   173    1
    71   184   183    1
    72   184   185    1
    73   183   174   am
    74    86    87    1
    75    86    88    1
    76   125   126    2
    77   177   178   ar
    78    79    78    1
    79    42    40    1
    80   172   173    1
    81    67    68    1
    82   132   133    1
    83    41    40    1
    84   185   186    2
    85   182   180   ar
    86   174   173    1
    87   174   175    2
    88    40    39    1
    89    23    24    1
    90   178   180   ar
    91   133   134    2
    92   201   202    1
    93   201   200    1
    94    78    77    1
    95    78    81    1
    96   202   203    2
    97   202   204   am
    98    77    72   am
    99    70    71    1
   100    39    36    1
   101    24    27    1
   102    24    25    1
   103    35    36    1
   104   200   197    1
   105    72    71    1
   106    72    73    2
   107    71    74    1
   108    36    37    1
   109    27    28    1
   110    25    26    2
   111   141   140    1
   112   195   194    1
   113   195   189    1
   114   197   196    1
   115   197   198    1
   116    74    75    1
   117    74    76    1
   118   194   193    1
   119   196   191   am
   120   140   139    1
   121   140   142    1
   122   135   136    1
   123    37    38    2
   124    37    43   am
   125    28    30   ar
   126    28    29   ar
   127   193   190    1
   128    30    32   ar
   129   189   190    1
   130   139   136    1
   131   198   199    2
   132    21    19   ar
   133    21    22   ar
   134    43    44    1
   135    19    17   ar
   136   147   148    1
   137   147   144    1
   138    29    31   ar
   139   191   190    1
   140   191   192    2
   141   136   137    1
   142   143   137   am
   143   143   144    1
   144    15    14    2
   145   148   149    1
   146    22    20   ar
   147    32    33   ar
   148   137   138    2
   149   144   145    1
   150   150   149    2
   151    54    55    1
   152    44    45    1
   153    44    47    1
   154    17    16    1
   155    17    18   ar
   156    14    13    1
   157    31    33   ar
   158    16    13    1
   159   149   151   am
   160    45    46    2
   161    47    48    1
   162    33    34    1
   163    13    12    1
   164   145   146    2
   165    20    18   ar
   166    55    58    1
   167    55    56    1
   168    58    59    1
   169    59    61   ar
   170    59    60   ar
   171    48    49    1
   172    56    57    2
   173    49    50    1
   174    52    51    1
   175   152   153    1
   176   156   153    1
   177   156   157    1
   178    50    51    2
   179   159   157   am
   180    51    53    1
   181   153   154    1
   182   157   158    2
   183    10     9    1
   184   154   155    2
   185     1     2    1
   186     3     4    2
   187     3     2    1
   188     2     5    1
   189     9     8    2
   190     9    11    1
   191     8     7    1
   192     5     6    1
   193     6     7    1
