@<TRIPOS>MOLECULE
tmp/3wsbB01.pdb
 147 138 0 0 0
SMALL
GASTEIGER

@<TRIPOS>ATOM
      1  N        -51.2440   11.7180  -65.5560 N.3    18  PHE18      -0.1241
      2  CA       -51.1710   12.3360  -64.2400 C.3    18  PHE18       0.1605
      3  C        -52.5390   12.8980  -63.8440 C.2    18  PHE18       0.2264
      4  O        -52.8920   12.9340  -62.6630 O.2    18  PHE18      -0.2867
      5  CB       -50.1470   13.4620  -64.2300 C.3    18  PHE18       0.0534
      6  CG       -50.0870   14.1940  -62.9340 C.ar   18  PHE18      -0.0203
      7  CD1      -49.4290   13.6430  -61.8370 C.ar   18  PHE18      -0.0042
      8  CD2      -50.7340   15.4180  -62.7880 C.ar   18  PHE18      -0.0042
      9  CE1      -49.4160   14.3080  -60.6050 C.ar   18  PHE18      -0.0003
     10  CE2      -50.7280   16.0910  -61.5600 C.ar   18  PHE18      -0.0003
     11  CZ       -50.0680   15.5340  -60.4650 C.ar   18  PHE18      -0.0000
     12  N        -51.2280   20.1500  -55.4510 N.3    33  VAL33      -0.1245
     13  CA       -50.4040   19.3590  -56.3550 C.3    33  VAL33       0.1561
     14  C        -50.7310   19.7440  -57.7920 C.2    33  VAL33       0.2260
     15  O        -49.8810   19.6960  -58.6760 O.2    33  VAL33      -0.2867
     16  CB       -50.6350   17.8560  -56.1320 C.3    33  VAL33       0.0252
     17  CG1      -49.9660   17.0290  -57.2180 C.3    33  VAL33       0.0019
     18  CG2      -50.0780   17.4820  -54.7870 C.3    33  VAL33       0.0019
     19  N        -49.0140   22.9660  -58.4310 N.3    36  PHE36      -0.1227
     20  CA       -47.6080   22.6110  -58.4500 C.3    36  PHE36       0.1736
     21  C        -47.2290   22.0710  -59.8260 C.2    36  PHE36       0.2595
     22  O        -46.2390   22.4980  -60.4290 O.2    36  PHE36      -0.2718
     23  CB       -47.3370   21.5630  -57.3670 C.3    36  PHE36       0.0547
     24  CG       -45.8800   21.2330  -57.1720 C.ar   36  PHE36      -0.0202
     25  CD1      -44.8860   22.1580  -57.4820 C.ar   36  PHE36      -0.0042
     26  CD2      -45.5050   20.0160  -56.6000 C.ar   36  PHE36      -0.0042
     27  CE1      -43.5390   21.8790  -57.2230 C.ar   36  PHE36      -0.0003
     28  CE2      -44.1640   19.7210  -56.3360 C.ar   36  PHE36      -0.0003
     29  CZ       -43.1750   20.6600  -56.6470 C.ar   36  PHE36      -0.0000
     30  N        -48.0320   21.1340  -60.3150 N.am   37  TYR37      -0.1976
     31  CA       -47.7870   20.5230  -61.6100 C.3    37  TYR37       0.1639
     32  C        -47.7980   21.5630  -62.7320 C.2    37  TYR37       0.2290
     33  O        -46.8980   21.5900  -63.5850 O.2    37  TYR37      -0.2864
     34  CB       -48.8490   19.4620  -61.9160 C.3    37  TYR37       0.0560
     35  CG       -48.6970   18.8670  -63.3030 C.ar   37  TYR37      -0.0198
     36  CD1      -48.0010   17.6800  -63.4970 C.ar   37  TYR37      -0.0009
     37  CD2      -49.1550   19.5590  -64.4310 C.ar   37  TYR37      -0.0009
     38  CE1      -47.7450   17.1950  -64.7820 C.ar   37  TYR37       0.0417
     39  CE2      -48.9060   19.0920  -65.7110 C.ar   37  TYR37       0.0417
     40  CZ       -48.1950   17.9120  -65.8760 C.ar   37  TYR37       0.1957
     41  OH       -47.8930   17.4890  -67.1320 O.3    37  TYR37      -0.2866
     42  N        -44.7190   23.9440  -62.7020 N.3    40  LEU40      -0.1231
     43  CA       -43.5170   23.3110  -63.2400 C.3    40  LEU40       0.1693
     44  C        -43.6680   23.0500  -64.7400 C.2    40  LEU40       0.2591
     45  O        -42.6800   23.0210  -65.4700 O.2    40  LEU40      -0.2718
     46  CB       -43.2170   21.9990  -62.4980 C.3    40  LEU40       0.0284
     47  CG       -42.3780   22.1170  -61.2140 C.3    40  LEU40       0.0019
     48  CD1      -42.8710   23.2890  -60.4020 C.3    40  LEU40       0.0001
     49  CD2      -42.4340   20.8310  -60.3970 C.3    40  LEU40       0.0001
     50  N        -44.9040   22.8710  -65.1900 N.am   41  ARG41      -0.1980
     51  CA       -45.1670   22.6110  -66.5990 C.3    41  ARG41       0.1597
     52  C        -44.9910   23.9010  -67.3850 C.2    41  ARG41       0.2287
     53  O        -44.4680   23.8950  -68.4960 O.2    41  ARG41      -0.2864
     54  CB       -46.5970   22.0900  -66.7980 C.3    41  ARG41       0.0334
     55  CG       -46.9190   21.6810  -68.2250 C.3    41  ARG41       0.0492
     56  CD       -46.0990   20.4830  -68.6740 C.3    41  ARG41       0.2205
     57  NE       -46.2360   20.2620  -70.1110 N.pl3  41  ARG41      -0.0865
     58  CZ       -47.0170   19.3370  -70.6700 C.cat  41  ARG41       0.5346
     59  NH1      -47.7410   18.5170  -69.9150 N.pl3  41  ARG41       0.1354
     60  NH2      -47.0930   19.2460  -71.9910 N.pl3  41  ARG41       0.1354
     61  N        -41.3550   24.4530  -67.5980 N.3    44  ASP44      -0.1239
     62  CA       -40.7810   23.5410  -68.5680 C.3    44  ASP44       0.1674
     63  C        -41.0840   23.9410  -70.0060 C.2    44  ASP44       0.2266
     64  O        -40.3120   23.6390  -70.9180 O.2    44  ASP44      -0.2867
     65  CB       -41.2970   22.1260  -68.3320 C.3    44  ASP44       0.1410
     66  CG       -40.5990   21.1150  -69.1970 C.2    44  ASP44       0.3668
     67  OD1      -39.4320   20.7870  -68.8920 O.co2  44  ASP44      -0.2456
     68  OD2      -41.2070   20.6590  -70.1920 O.co2  44  ASP44      -0.2456
     69  N        -35.6910   24.3100  -59.3660 N.3   115  MET115     -0.1245
     70  CA       -35.7290   23.5850  -60.6320 C.3   115  MET115      0.1570
     71  C        -35.2640   24.5350  -61.7300 C.2   115  MET115      0.2261
     72  O        -34.4770   24.1580  -62.6020 O.2   115  MET115     -0.2867
     73  CB       -37.1500   23.0790  -60.9260 C.3   115  MET115      0.0387
     74  CG       -37.3060   22.3610  -62.2710 C.3   115  MET115      0.0595
     75  SD       -38.8640   21.3890  -62.4500 S.3   115  MET115     -0.1393
     76  CE       -38.6670   20.1760  -61.1270 C.3   115  MET115      0.0692
     77  N        -32.1790   24.0300  -64.2920 N.3   119  MET119     -0.1245
     78  CA       -32.3360   23.9650  -65.7350 C.3   119  MET119      0.1570
     79  C        -31.3270   24.8820  -66.4130 C.2   119  MET119      0.2261
     80  O        -30.7800   24.5450  -67.4590 O.2   119  MET119     -0.2867
     81  CB       -33.7620   24.3490  -66.1330 C.3   119  MET119      0.0387
     82  CG       -34.8000   23.3270  -65.6930 C.3   119  MET119      0.0595
     83  SD       -36.5110   23.8270  -66.0020 S.3   119  MET119     -0.1393
     84  CE       -36.9190   22.7730  -67.4370 C.3   119  MET119      0.0692
     85  N        -34.9800   17.9330  -62.5950 N.3   140  VAL140     -0.1231
     86  CA       -36.2780   17.8260  -63.2540 C.3   140  VAL140      0.1692
     87  C        -37.2990   16.8690  -62.6270 C.2   140  VAL140      0.2591
     88  O        -38.5000   17.0530  -62.8170 O.2   140  VAL140     -0.2718
     89  CB       -36.0910   17.4170  -64.7230 C.3   140  VAL140      0.0266
     90  CG1      -35.1630   18.4280  -65.4340 C.3   140  VAL140      0.0020
     91  CG2      -35.5060   16.0080  -64.8000 C.3   140  VAL140      0.0020
     92  N        -36.8420   15.8510  -61.8960 N.am  141  ALA141     -0.1980
     93  CA       -37.7600   14.8900  -61.2740 C.3   141  ALA141      0.1597
     94  C        -37.5190   14.7410  -59.7800 C.2   141  ALA141      0.2287
     95  O        -38.4670   14.8030  -58.9770 O.2   141  ALA141     -0.2864
     96  CB       -37.6460   13.5240  -61.9590 C.3   141  ALA141      0.0319
     97  N        -39.1360   17.1860  -57.7340 N.3   144  VAL144     -0.1245
     98  CA       -40.5870   17.0530  -57.6410 C.3   144  VAL144      0.1561
     99  C        -40.8450   16.1350  -56.4560 C.2   144  VAL144      0.2260
    100  O        -41.7580   16.3630  -55.6560 O.2   144  VAL144     -0.2867
    101  CB       -41.1870   16.4370  -58.9030 C.3   144  VAL144      0.0252
    102  CG1      -42.7060   16.4200  -58.7860 C.3   144  VAL144      0.0019
    103  CG2      -40.7240   17.2300  -60.1380 C.3   144  VAL144      0.0019
    104  N        -43.1870   17.0950  -53.4730 N.3   148  LEU148     -0.1245
    105  CA       -44.3730   16.3390  -53.1010 C.3   148  LEU148      0.1561
    106  C        -44.3410   15.9080  -51.6400 C.2   148  LEU148      0.2260
    107  O        -45.3710   15.9330  -50.9530 O.2   148  LEU148     -0.2867
    108  CB       -44.5290   15.1140  -54.0080 C.3   148  LEU148      0.0270
    109  CG       -44.9920   15.4450  -55.4350 C.3   148  LEU148      0.0019
    110  CD1      -45.0180   14.1730  -56.2900 C.3   148  LEU148      0.0001
    111  CD2      -46.3780   16.0980  -55.3900 C.3   148  LEU148      0.0001
    112  N        -38.5430    7.2480  -61.8100 N.3   176  LEU176     -0.1231
    113  CA       -39.5200    7.6010  -62.8320 C.3   176  LEU176      0.1693
    114  C        -38.8880    8.2610  -64.0450 C.2   176  LEU176      0.2591
    115  O        -39.1860    7.8870  -65.1700 O.2   176  LEU176     -0.2718
    116  CB       -40.5870    8.5430  -62.2660 C.3   176  LEU176      0.0284
    117  CG       -41.4780    8.0060  -61.1480 C.3   176  LEU176      0.0019
    118  CD1      -42.6620    8.9280  -61.0070 C.3   176  LEU176      0.0001
    119  CD2      -41.9640    6.5980  -61.4710 C.3   176  LEU176      0.0001
    120  N        -38.0300    9.2510  -63.8210 N.am  177  GLN177     -0.1979
    121  CA       -37.3940    9.9480  -64.9350 C.3   177  GLN177      0.1601
    122  C        -36.5240    9.0150  -65.7810 C.2   177  GLN177      0.2287
    123  O        -36.5570    9.0650  -67.0100 O.2   177  GLN177     -0.2864
    124  CB       -36.5410   11.1110  -64.4250 C.3   177  GLN177      0.0394
    125  CG       -35.7940   11.8680  -65.5180 C.3   177  GLN177      0.0908
    126  CD       -36.6570   12.8680  -66.2820 C.2   177  GLN177      0.2608
    127  OE1      -37.8160   13.0970  -65.9450 O.2   177  GLN177     -0.2717
    128  NE2      -36.0800   13.4820  -67.3120 N.am  177  GLN177     -0.0878
    129  N        -38.4950    6.4750  -67.8100 N.3   180  ASN180     -0.1240
    130  CA       -39.0810    7.2480  -68.8900 C.3   180  ASN180      0.1653
    131  C        -38.0770    7.5890  -70.0090 C.2   180  ASN180      0.2266
    132  O        -38.3870    7.4500  -71.1890 O.2   180  ASN180     -0.2867
    133  CB       -39.6710    8.5210  -68.2910 C.3   180  ASN180      0.1155
    134  CG       -40.6890    9.1670  -69.1810 C.2   180  ASN180      0.2627
    135  OD1      -40.4370   10.2270  -69.7670 O.2   180  ASN180     -0.2716
    136  ND2      -41.8590    8.5390  -69.2900 N.am  180  ASN180     -0.0877
    137  N        -51.4530    7.7030  -54.5200 N.3   255  PHE255     -0.1241
    138  CA       -50.8810    8.7110  -55.3930 C.3   255  PHE255      0.1605
    139  C        -49.3850    8.4790  -55.6080 C.2   255  PHE255      0.2264
    140  O        -48.8900    8.6650  -56.7070 O.2   255  PHE255     -0.2867
    141  CB       -51.0830   10.1100  -54.8090 C.3   255  PHE255      0.0534
    142  CG       -50.4450   11.1970  -55.6230 C.ar  255  PHE255     -0.0203
    143  CD1      -49.3090   11.8540  -55.1610 C.ar  255  PHE255     -0.0042
    144  CD2      -50.9890   11.5730  -56.8580 C.ar  255  PHE255     -0.0042
    145  CE1      -48.7170   12.8830  -55.9170 C.ar  255  PHE255     -0.0003
    146  CE2      -50.4150   12.5860  -57.6150 C.ar  255  PHE255     -0.0003
    147  CZ       -49.2730   13.2480  -57.1430 C.ar  255  PHE255     -0.0000
@<TRIPOS>BOND
     1    60    58    1
     2   132   131    2
     3    64    63    2
     4    58    57    2
     5    58    59    1
     6    68    66   ar
     7    57    56    1
     8   131   130    1
     9    63    62    1
    10   135   134    2
    11   136   134   am
    12    66    67   ar
    13    66    65    1
    14   134   133    1
    15   130   133    1
    16   130   129    1
    17    56    55    1
    18    62    65    1
    19    62    61    1
    20    53    52    2
    21    55    54    1
    22    80    79    2
    23    84    83    1
    24    52    51    1
    25   128   126   am
    26    41    40    1
    27   123   122    2
    28    54    51    1
    29    51    50    1
    30    79    78    1
    31   126   127    2
    32   126   125    1
    33    81    78    1
    34    81    82    1
    35    83    82    1
    36    40    39   ar
    37    40    38   ar
    38   122   121    1
    39    78    77    1
    40    39    37   ar
    41     1     2    1
    42   125   124    1
    43    45    44    2
    44    90    89    1
    45    50    44   am
    46   115   114    2
    47   121   124    1
    48   121   120    1
    49    91    89    1
    50    38    36   ar
    51    44    43    1
    52    89    86    1
    53    37    35   ar
    54     2     5    1
    55     2     3    1
    56     5     6    1
    57   114   120   am
    58   114   113    1
    59     3     4    2
    60    33    32    2
    61    36    35   ar
    62    35    34    1
    63    86    87    1
    64    86    85    1
    65    43    42    1
    66    43    46    1
    67     6     8   ar
    68     6     7   ar
    69   113   116    1
    70   113   112    1
    71    88    87    2
    72     8    10   ar
    73    32    31    1
    74    87    92   am
    75    72    71    2
    76    46    47    1
    77    75    74    1
    78    75    76    1
    79    74    73    1
    80   116   117    1
    81    96    93    1
    82    34    31    1
    83    92    93    1
    84     7     9   ar
    85    71    70    1
    86    31    30    1
    87    10    11   ar
    88   119   117    1
    89    93    94    1
    90    47    48    1
    91    47    49    1
    92   117   118    1
    93    73    70    1
    94    70    69    1
    95     9    11   ar
    96    22    21    2
    97    30    21   am
    98   103   101    1
    99    21    20    1
   100    94    95    2
   101   101   102    1
   102   101    98    1
   103    15    14    2
   104    20    19    1
   105    20    23    1
   106    14    13    1
   107    97    98    1
   108    98    99    1
   109   146   147   ar
   110   146   144   ar
   111    25    27   ar
   112    25    24   ar
   113    23    24    1
   114    27    29   ar
   115    17    16    1
   116    24    26   ar
   117   147   145   ar
   118   144   142   ar
   119   140   139    2
   120    29    28   ar
   121    26    28   ar
   122    99   100    2
   123    13    16    1
   124    13    12    1
   125   110   109    1
   126    16    18    1
   127   145   143   ar
   128   142   143   ar
   129   142   141    1
   130   139   138    1
   131   109   111    1
   132   109   108    1
   133   138   141    1
   134   138   137    1
   135   108   105    1
   136   104   105    1
   137   105   106    1
   138   106   107    2
