@<TRIPOS>MOLECULE
tmp/3wsgA00.pdb
 97 92 0 0 0
SMALL
GASTEIGER

@<TRIPOS>ATOM
      1  N          2.5530  -40.3400  -11.5300 N.3    70  HIS70      -0.1241
      2  CA         2.5850  -39.3500  -12.6270 C.3    70  HIS70       0.1621
      3  C          4.0080  -38.9500  -12.9590 C.2    70  HIS70       0.2264
      4  O          4.8000  -38.7250  -12.0640 O.2    70  HIS70      -0.2867
      5  CB         1.8000  -38.0920  -12.2700 C.3    70  HIS70       0.0745
      6  CG         0.3760  -38.3700  -11.9460 C.ar   70  HIS70       0.0817
      7  ND1       -0.2230  -37.9090  -10.7940 N.ar   70  HIS70      -0.2268
      8  CD2       -0.5520  -39.1210  -12.5790 C.ar   70  HIS70       0.1154
      9  CE1       -1.4730  -38.3290  -10.7510 C.ar   70  HIS70       0.1986
     10  NE2       -1.6890  -39.0840  -11.8100 N.ar   70  HIS70      -0.2212
     11  N          4.9440  -33.9180  -18.6780 N.3    74  LYS74      -0.1245
     12  CA         4.2750  -34.4910  -19.8430 C.3    74  LYS74       0.1561
     13  C          4.8120  -33.8300  -21.1110 C.2    74  LYS74       0.2260
     14  O          5.2260  -34.5170  -22.0450 O.2    74  LYS74      -0.2867
     15  CB         2.7640  -34.2970  -19.7600 C.3    74  LYS74       0.0271
     16  CG         2.0230  -34.6620  -21.0470 C.3    74  LYS74       0.0035
     17  CD         0.5310  -34.3750  -20.9370 C.3    74  LYS74       0.0206
     18  CE        -0.2200  -34.8970  -22.1530 C.3    74  LYS74       0.1093
     19  NZ        -0.4040  -36.3840  -22.0750 N.3    74  LYS74      -0.1314
     20  N          3.3400  -45.0990  -14.9580 N.3   102  HIS102     -0.1226
     21  CA         2.0990  -44.3680  -15.1050 C.3   102  HIS102      0.1752
     22  C          1.0510  -45.3160  -15.7140 C.2   102  HIS102      0.2596
     23  O          0.5130  -46.1750  -15.0060 O.2   102  HIS102     -0.2718
     24  CB         2.3380  -43.0990  -15.9500 C.3   102  HIS102      0.0759
     25  CG         1.1520  -42.1880  -16.0320 C.ar  102  HIS102      0.0818
     26  ND1        0.9070  -41.3830  -17.1290 N.ar  102  HIS102     -0.2268
     27  CD2        0.1440  -41.9510  -15.1590 C.ar  102  HIS102      0.1154
     28  CE1       -0.2100  -40.7020  -16.9340 C.ar  102  HIS102      0.1986
     29  NE2       -0.6920  -41.0270  -15.7450 N.ar  102  HIS102     -0.2212
     30  N          0.7650  -45.2180  -17.0080 N.am  103  THR103     -0.1953
     31  CA        -0.3210  -46.0450  -17.5240 C.3   103  THR103      0.1897
     32  C          0.0560  -47.5160  -17.5120 C.2   103  THR103      0.2313
     33  O         -0.8340  -48.3470  -17.5440 O.2   103  THR103     -0.2863
     34  CB        -0.7900  -45.6670  -18.9630 C.3   103  THR103      0.1794
     35  OG1        0.3190  -45.6710  -19.8730 O.3   103  THR103     -0.2208
     36  CG2       -1.4710  -44.3090  -18.9730 C.3   103  THR103      0.0378
     37  N         -1.4530  -48.4890  -14.4150 N.3   106  ASP106     -0.1239
     38  CA        -2.9050  -48.4870  -14.5790 C.3   106  ASP106      0.1674
     39  C         -3.4030  -49.8100  -15.1940 C.2   106  ASP106      0.2266
     40  O         -4.4550  -50.3100  -14.8230 O.2   106  ASP106     -0.2867
     41  CB        -3.3650  -47.3510  -15.4990 C.3   106  ASP106      0.1410
     42  CG        -3.2370  -45.9560  -14.8650 C.2   106  ASP106      0.3668
     43  OD1       -3.5980  -45.7590  -13.6860 O.co2 106  ASP106     -0.2456
     44  OD2       -2.7740  -45.0450  -15.5830 O.co2 106  ASP106     -0.2456
     45  N         -6.7650  -49.5990  -20.8730 N.3   133  LEU133     -0.1245
     46  CA        -7.1520  -48.7330  -19.7570 C.3   133  LEU133      0.1561
     47  C         -8.5730  -49.0320  -19.2680 C.2   133  LEU133      0.2260
     48  O         -9.4660  -49.3220  -20.0730 O.2   133  LEU133     -0.2867
     49  CB        -7.0540  -47.2600  -20.1500 C.3   133  LEU133      0.0270
     50  CG        -5.6470  -46.6750  -20.2380 C.3   133  LEU133      0.0019
     51  CD1       -5.7180  -45.2990  -20.8920 C.3   133  LEU133      0.0001
     52  CD2       -5.0190  -46.5530  -18.8630 C.3   133  LEU133      0.0001
     53  N        -12.3540  -46.3420  -14.0870 N.3   175  LEU175     -0.1231
     54  CA       -11.0940  -45.8750  -14.6450 C.3   175  LEU175      0.1693
     55  C        -10.3860  -45.0450  -13.5730 C.2   175  LEU175      0.2592
     56  O        -10.8950  -44.0090  -13.1600 O.2   175  LEU175     -0.2718
     57  CB       -11.3490  -45.0660  -15.9260 C.3   175  LEU175      0.0284
     58  CG       -10.2060  -44.5720  -16.8160 C.3   175  LEU175      0.0019
     59  CD1       -9.3740  -43.4790  -16.1530 C.3   175  LEU175      0.0001
     60  CD2       -9.3270  -45.7300  -17.1530 C.3   175  LEU175      0.0001
     61  N         -9.2100  -45.4950  -13.1500 N.am  176  SER176     -0.1952
     62  CA        -8.4760  -44.8140  -12.0850 C.3   176  SER176      0.1924
     63  C         -7.8140  -43.5740  -12.6360 C.2   176  SER176      0.2314
     64  O         -7.0210  -43.6350  -13.5830 O.2   176  SER176     -0.2863
     65  CB        -7.4200  -45.7240  -11.4670 C.3   176  SER176      0.2116
     66  OG        -6.6460  -46.3050  -12.5040 O.3   176  SER176     -0.2180
     67  N         -8.0800  -39.6810  -14.2380 N.3   178  TYR178     -0.1241
     68  CA        -8.9300  -38.7820  -15.0150 C.3   178  TYR178      0.1605
     69  C         -9.5640  -39.5430  -16.1650 C.2   178  TYR178      0.2264
     70  O         -8.9470  -39.7600  -17.2090 O.2   178  TYR178     -0.2867
     71  CB        -8.1210  -37.5910  -15.5460 C.3   178  TYR178      0.0534
     72  CG        -8.8390  -36.7730  -16.5950 C.ar  178  TYR178     -0.0201
     73  CD1      -10.1450  -36.3230  -16.3870 C.ar  178  TYR178     -0.0009
     74  CD2       -8.2180  -36.4640  -17.7990 C.ar  178  TYR178     -0.0009
     75  CE1      -10.8120  -35.5780  -17.3530 C.ar  178  TYR178      0.0417
     76  CE2       -8.8720  -35.7110  -18.7700 C.ar  178  TYR178      0.0417
     77  CZ       -10.1690  -35.2710  -18.5410 C.ar  178  TYR178      0.1957
     78  OH       -10.8240  -34.5290  -19.5050 O.3   178  TYR178     -0.2866
     79  N         -9.8830  -37.8200   -8.8730 N.3   220  HIS220     -0.1241
     80  CA        -8.6790  -38.2850   -9.5130 C.3   220  HIS220      0.1621
     81  C         -7.7230  -38.8910   -8.4670 C.2   220  HIS220      0.2264
     82  O         -7.2070  -39.9990   -8.6290 O.2   220  HIS220     -0.2867
     83  CB        -8.0350  -37.0990  -10.2330 C.3   220  HIS220      0.0745
     84  CG        -6.8690  -37.4590  -11.0850 C.ar  220  HIS220      0.0817
     85  ND1       -6.5600  -36.7730  -12.2420 N.ar  220  HIS220     -0.2268
     86  CD2       -5.9430  -38.4410  -10.9690 C.ar  220  HIS220      0.1154
     87  CE1       -5.4830  -37.3030  -12.7910 C.ar  220  HIS220      0.1986
     88  NE2       -5.0980  -38.3210  -12.0430 N.ar  220  HIS220     -0.2212
     89  N         -6.9750  -43.2740   -7.7580 N.3   224  GLU224     -0.1245
     90  CA        -5.6310  -43.8190   -7.9990 C.3   224  GLU224      0.1567
     91  C         -4.9300  -44.2780   -6.7100 C.2   224  GLU224      0.2260
     92  O         -4.2210  -45.2840   -6.6980 O.2   224  GLU224     -0.2867
     93  CB        -4.7620  -42.7930   -8.7070 C.3   224  GLU224      0.0388
     94  CG        -5.0950  -42.6890  -10.1870 C.3   224  GLU224      0.1160
     95  CD        -4.3410  -41.6070  -10.8540 C.2   224  GLU224      0.3649
     96  OE1       -3.8060  -40.6930  -10.1580 O.co2 224  GLU224     -0.2457
     97  OE2       -4.3130  -41.6800  -12.0920 O.co2 224  GLU224     -0.2457
@<TRIPOS>BOND
     1    18    19    1
     2    18    17    1
     3    14    13    2
     4    13    12    1
     5    16    17    1
     6    16    15    1
     7    51    50    1
     8    45    46    1
     9    50    49    1
    10    50    52    1
    11    49    46    1
    12    48    47    2
    13    35    34    1
    14    12    15    1
    15    12    11    1
    16    46    47    1
    17    78    77    1
    18    36    34    1
    19    34    31    1
    20    76    77   ar
    21    76    74   ar
    22    77    75   ar
    23    74    72   ar
    24    33    32    2
    25    31    32    1
    26    31    30    1
    27    75    73   ar
    28    70    69    2
    29    60    58    1
    30    26    28   ar
    31    26    25   ar
    32    30    22   am
    33    28    29   ar
    34    58    59    1
    35    58    57    1
    36    72    73   ar
    37    72    71    1
    38    69    68    1
    39    25    24    1
    40    25    27   ar
    41    24    21    1
    42    57    54    1
    43    29    27   ar
    44    22    21    1
    45    22    23    2
    46    44    42   ar
    47    71    68    1
    48    41    42    1
    49    41    38    1
    50    39    40    2
    51    39    38    1
    52    21    20    1
    53    68    67    1
    54    42    43   ar
    55    54    53    1
    56    54    55    1
    57    38    37    1
    58    64    63    2
    59    55    56    2
    60    55    61   am
    61    61    62    1
    62     3     2    1
    63     3     4    2
    64    87    85   ar
    65    87    88   ar
    66    63    62    1
    67     2     5    1
    68     2     1    1
    69     8     6   ar
    70     8    10   ar
    71    66    65    1
    72     5     6    1
    73    85    84   ar
    74    97    95   ar
    75    62    65    1
    76    88    86   ar
    77     6     7   ar
    78    10     9   ar
    79    84    86   ar
    80    84    83    1
    81    95    94    1
    82    95    96   ar
    83     7     9   ar
    84    83    80    1
    85    94    93    1
    86    80    79    1
    87    80    81    1
    88    93    90    1
    89    82    81    2
    90    90    89    1
    91    90    91    1
    92    91    92    2
