@<TRIPOS>MOLECULE
tmp/3wsjB00.pdb
 119 112 0 0 0
SMALL
GASTEIGER

@<TRIPOS>ATOM
      1  N         36.1450   10.6220   15.7440 N.3    10  ARG10      -0.1245
      2  CA        35.7500    9.2490   16.0400 C.3    10  ARG10       0.1563
      3  C         34.8680    8.6550   14.9450 C.2    10  ARG10       0.2260
      4  O         33.9650    9.3180   14.4410 O.2    10  ARG10      -0.2867
      5  CB        35.0370    9.1740   17.3930 C.3    10  ARG10       0.0307
      6  CG        35.9490    8.7610   18.5350 C.3    10  ARG10       0.0489
      7  CD        36.1880    9.8880   19.5180 C.3    10  ARG10       0.2205
      8  NE        35.3910    9.7270   20.7290 N.pl3  10  ARG10      -0.0865
      9  CZ        35.7790   10.1200   21.9380 C.cat  10  ARG10       0.5346
     10  NH1       36.9610   10.6940   22.1030 N.pl3  10  ARG10       0.1354
     11  NH2       34.9850    9.9370   22.9830 N.pl3  10  ARG10       0.1354
     12  N         30.0830    4.0260   18.4540 N.3    30  LEU30      -0.1245
     13  CA        31.4850    4.0130   18.0680 C.3    30  LEU30       0.1561
     14  C         31.8590    2.6900   17.4100 C.2    30  LEU30       0.2260
     15  O         31.6590    1.6230   17.9860 O.2    30  LEU30      -0.2867
     16  CB        32.3700    4.2420   19.2940 C.3    30  LEU30       0.0270
     17  CG        33.8830    4.2120   19.0680 C.3    30  LEU30       0.0019
     18  CD1       34.3400    5.4290   18.2760 C.3    30  LEU30       0.0001
     19  CD2       34.6080    4.1310   20.3960 C.3    30  LEU30       0.0001
     20  N         34.3300    0.1170   16.8300 N.3    32  ASP32      -0.1239
     21  CA        35.4730   -0.1830   17.6810 C.3    32  ASP32       0.1674
     22  C         36.0170   -1.5920   17.4430 C.2    32  ASP32       0.2266
     23  O         35.4910   -2.5750   17.9740 O.2    32  ASP32      -0.2867
     24  CB        35.0630   -0.0060   19.1450 C.3    32  ASP32       0.1410
     25  CG        36.2470    0.0680   20.0880 C.2    32  ASP32       0.3668
     26  OD1       37.3350   -0.4300   19.7400 O.co2  32  ASP32      -0.2456
     27  OD2       36.0810    0.6250   21.1910 O.co2  32  ASP32      -0.2456
     28  N         38.7150   -2.6640   18.5730 N.3    34  GLY34      -0.1210
     29  CA        39.3660   -3.0940   19.7970 C.3    34  GLY34       0.1956
     30  C         38.3960   -3.6610   20.8200 C.2    34  GLY34       0.2612
     31  O         38.8060   -4.1260   21.8820 O.2    34  GLY34      -0.2717
     32  N         37.1060   -3.6220   20.5040 N.am   35  ALA35      -0.1965
     33  CA        36.0830   -4.1420   21.4070 C.3    35  ALA35       0.1728
     34  C         35.6490   -5.5480   21.0060 C.2    35  ALA35       0.2616
     35  O         35.1560   -5.7620   19.8980 O.2    35  ALA35      -0.2715
     36  CB        34.8780   -3.2060   21.4440 C.3    35  ALA35       0.0334
     37  N         35.8350   -6.5020   21.9130 N.am   36  ASP36      -0.1957
     38  CA        35.4120   -7.8760   21.6750 C.3    36  ASP36       0.1840
     39  C         33.9000   -7.9580   21.5080 C.2    36  ASP36       0.2621
     40  O         33.3950   -8.7450   20.7100 O.2    36  ASP36      -0.2715
     41  CB        35.8380   -8.7810   22.8330 C.3    36  ASP36       0.1450
     42  CG        37.3440   -8.9280   22.9420 C.2    36  ASP36       0.3671
     43  OD1       38.0400   -8.7740   21.9170 O.co2  36  ASP36      -0.2456
     44  OD2       37.8340   -9.2060   24.0570 O.co2  36  ASP36      -0.2456
     45  N         33.1830   -7.1330   22.2620 N.am   37  MET37      -0.1977
     46  CA        31.7350   -7.2530   22.3500 C.3    37  MET37       0.1605
     47  C         31.0680   -5.8790   22.3150 C.2    37  MET37       0.2287
     48  O         31.6610   -4.8800   22.7210 O.2    37  MET37      -0.2864
     49  CB        31.3610   -8.0040   23.6330 C.3    37  MET37       0.0413
     50  CG        29.9360   -8.5200   23.6930 C.3    37  MET37       0.0598
     51  SD        29.6630   -9.5290   25.1650 S.3    37  MET37      -0.1393
     52  CE        30.8960  -10.8050   24.9240 C.3    37  MET37       0.0692
     53  N         28.5340   -2.7810   23.1890 N.3    39  VAL39      -0.1245
     54  CA        27.9970   -2.1450   24.3880 C.3    39  VAL39       0.1561
     55  C         26.8850   -1.1640   24.0110 C.2    39  VAL39       0.2260
     56  O         27.0600   -0.3350   23.1190 O.2    39  VAL39      -0.2867
     57  CB        29.0950   -1.3640   25.1470 C.3    39  VAL39       0.0252
     58  CG1       28.5260   -0.7280   26.4070 C.3    39  VAL39       0.0019
     59  CG2       30.2730   -2.2730   25.4810 C.3    39  VAL39       0.0019
     60  N         33.8870   -7.0710   33.5010 N.3    56  VAL56      -0.1231
     61  CA        34.5830   -6.9160   32.2290 C.3    56  VAL56       0.1692
     62  C         35.9450   -6.2520   32.4180 C.2    56  VAL56       0.2592
     63  O         36.1310   -5.4430   33.3270 O.2    56  VAL56      -0.2718
     64  CB        33.7410   -6.0900   31.2350 C.3    56  VAL56       0.0266
     65  CG1       34.2380   -6.2920   29.8130 C.3    56  VAL56       0.0020
     66  CG2       32.2760   -6.4810   31.3380 C.3    56  VAL56       0.0020
     67  N         36.8980   -6.6040   31.5600 N.am   57  LEU57      -0.1966
     68  CA        38.2310   -6.0190   31.6100 C.3    57  LEU57       0.1728
     69  C         38.2400   -4.6660   30.9050 C.2    57  LEU57       0.2616
     70  O         37.8820   -4.5640   29.7320 O.2    57  LEU57      -0.2715
     71  CB        39.2500   -6.9610   30.9630 C.3    57  LEU57       0.0311
     72  CG        40.6310   -7.0810   31.6160 C.3    57  LEU57       0.0022
     73  CD1       41.4620   -8.1390   30.9060 C.3    57  LEU57       0.0001
     74  CD2       41.3630   -5.7480   31.6320 C.3    57  LEU57       0.0001
     75  N         38.6520   -3.6310   31.6290 N.am   58  GLY58      -0.1955
     76  CA        38.7010   -2.2880   31.0810 C.3    58  GLY58       0.1869
     77  C         39.9850   -1.5630   31.4320 C.2    58  GLY58       0.2309
     78  O         40.8830   -2.1430   32.0430 O.2    58  GLY58      -0.2863
     79  N         28.6360   -2.7960   33.9840 N.3    67  PHE67      -0.1241
     80  CA        28.3620   -3.5540   32.7670 C.3    67  PHE67       0.1605
     81  C         27.5070   -4.7790   33.0600 C.2    67  PHE67       0.2264
     82  O         27.8110   -5.5560   33.9630 O.2    67  PHE67      -0.2867
     83  CB        29.6550   -3.9570   32.0540 C.3    67  PHE67       0.0534
     84  CG        30.3370   -2.8210   31.3480 C.ar   67  PHE67      -0.0203
     85  CD1       29.7350   -2.2020   30.2650 C.ar   67  PHE67      -0.0042
     86  CD2       31.5820   -2.3760   31.7600 C.ar   67  PHE67      -0.0042
     87  CE1       30.3580   -1.1550   29.6110 C.ar   67  PHE67      -0.0003
     88  CE2       32.2110   -1.3300   31.1100 C.ar   67  PHE67      -0.0003
     89  CZ        31.5980   -0.7190   30.0330 C.ar   67  PHE67      -0.0000
     90  N         26.7650   -6.2790   25.9070 N.3    91  LEU91      -0.1245
     91  CA        26.9580   -5.5590   27.1530 C.3    91  LEU91       0.1561
     92  C         26.0400   -4.3470   27.2530 C.2    91  LEU91       0.2260
     93  O         25.7000   -3.7210   26.2480 O.2    91  LEU91      -0.2867
     94  CB        28.4230   -5.1420   27.2980 C.3    91  LEU91       0.0270
     95  CG        29.4010   -6.3080   27.4640 C.3    91  LEU91       0.0019
     96  CD1       30.8350   -5.8230   27.3980 C.3    91  LEU91       0.0001
     97  CD2       29.1410   -7.0280   28.7780 C.3    91  LEU91       0.0001
     98  N         27.5260    4.6670   27.0270 N.3    98  TRP98      -0.1241
     99  CA        28.3930    4.3260   25.9090 C.3    98  TRP98       0.1605
    100  C         27.6630    3.4880   24.8710 C.2    98  TRP98       0.2264
    101  O         26.8400    2.6370   25.2070 O.2    98  TRP98      -0.2867
    102  CB        29.6290    3.5750   26.3980 C.3    98  TRP98       0.0550
    103  CG        30.5930    4.4290   27.1500 C.ar   98  TRP98       0.0003
    104  CD1       30.4290    5.7350   27.5060 C.ar   98  TRP98       0.0946
    105  CD2       31.8810    4.0390   27.6340 C.ar   98  TRP98       0.0152
    106  NE1       31.5350    6.1810   28.1870 N.ar   98  TRP98      -0.2442
    107  CE2       32.4410    5.1570   28.2800 C.ar   98  TRP98       0.0810
    108  CE3       32.6130    2.8480   27.5880 C.ar   98  TRP98       0.0012
    109  CZ2       33.6990    5.1220   28.8730 C.ar   98  TRP98       0.0191
    110  CZ3       33.8610    2.8160   28.1770 C.ar   98  TRP98       0.0001
    111  CH2       34.3910    3.9450   28.8100 C.ar   98  TRP98       0.0015
    112  N         28.8640    1.2450   21.6530 N.3   100  ILE100     -0.1245
    113  CA        30.0450    0.7180   20.9840 C.3   100  ILE100      0.1561
    114  C         29.7140   -0.5010   20.1350 C.2   100  ILE100      0.2260
    115  O         29.2810   -1.5240   20.6560 O.2   100  ILE100     -0.2867
    116  CB        31.1290    0.3220   22.0100 C.3   100  ILE100      0.0252
    117  CG1       31.5810    1.5380   22.8180 C.3   100  ILE100      0.0019
    118  CG2       32.3130   -0.3280   21.3180 C.3   100  ILE100      0.0019
    119  CD1       32.5320    1.1960   23.9330 C.3   100  ILE100      0.0001
@<TRIPOS>BOND
     1     4     3    2
     2     3     2    1
     3     1     2    1
     4     2     5    1
     5    20    21    1
     6     5     6    1
     7    14    15    2
     8    14    13    1
     9    22    21    1
    10    22    23    2
    11    21    24    1
    12    13    12    1
    13    13    16    1
    14    18    17    1
    15     6     7    1
    16    28    29    1
    17    17    16    1
    18    17    19    1
    19    24    25    1
    20     7     8    1
    21    26    25   ar
    22    29    30    1
    23    35    34    2
    24    25    27   ar
    25   114   115    2
    26   114   113    1
    27    32    30   am
    28    32    33    1
    29    40    39    2
    30     8     9    2
    31    30    31    2
    32   113   112    1
    33   113   116    1
    34    34    33    1
    35    34    37   am
    36   118   116    1
    37    33    36    1
    38    39    38    1
    39    39    45   am
    40    38    37    1
    41    38    41    1
    42    43    42   ar
    43     9    10    1
    44     9    11    1
    45   116   117    1
    46    45    46    1
    47    47    46    1
    48    47    48    2
    49    46    49    1
    50   117   119    1
    51    41    42    1
    52    42    44   ar
    53    56    55    2
    54    53    54    1
    55    49    50    1
    56    50    51    1
    57    55    54    1
    58    54    57    1
    59   100   101    2
    60   100    99    1
    61    52    51    1
    62    57    59    1
    63    57    58    1
    64    90    91    1
    65    99   102    1
    66    99    98    1
    67    93    92    2
    68   102   103    1
    69   103   104   ar
    70   103   105   ar
    71    91    92    1
    72    91    94    1
    73    94    95    1
    74    96    95    1
    75    95    97    1
    76   104   106   ar
    77   108   105   ar
    78   108   110   ar
    79   105   107   ar
    80   110   111   ar
    81   106   107   ar
    82   107   109   ar
    83   111   109   ar
    84    87    89   ar
    85    87    85   ar
    86    70    69    2
    87    65    64    1
    88    89    88   ar
    89    85    84   ar
    90    69    68    1
    91    69    75   am
    92    73    72    1
    93    71    68    1
    94    71    72    1
    95    76    77    1
    96    76    75    1
    97    88    86   ar
    98    64    66    1
    99    64    61    1
   100    84    86   ar
   101    84    83    1
   102    77    78    2
   103    67    68    1
   104    67    62   am
   105    72    74    1
   106    83    80    1
   107    61    62    1
   108    61    60    1
   109    62    63    2
   110    80    81    1
   111    80    79    1
   112    81    82    2
