@<TRIPOS>MOLECULE
tmp/3wsrB00.pdb
 93 89 0 0 0
SMALL
GASTEIGER

@<TRIPOS>ATOM
      1  N         37.3160    8.3330   21.6740 N.3     5  ASN5       -0.1240
      2  CA        38.5740    7.7450   21.1720 C.3     5  ASN5        0.1653
      3  C         39.8420    7.9880   22.0210 C.2     5  ASN5        0.2266
      4  O         40.9000    7.4780   21.6720 O.2     5  ASN5       -0.2867
      5  CB        38.8550    8.1340   19.7100 C.3     5  ASN5        0.1155
      6  CG        37.7980    7.6380   18.7490 C.2     5  ASN5        0.2627
      7  OD1       36.9730    6.7750   19.0790 O.2     5  ASN5       -0.2716
      8  ND2       37.8010    8.2020   17.5500 N.am    5  ASN5       -0.0877
      9  N         41.9180    7.3290   25.5420 N.3     7  ARG7       -0.1245
     10  CA        41.9900    6.1880   26.4690 C.3     7  ARG7        0.1563
     11  C         42.4100    6.6280   27.8770 C.2     7  ARG7        0.2260
     12  O         43.4320    7.3160   28.0620 O.2     7  ARG7       -0.2867
     13  CB        43.0040    5.1360   25.9900 C.3     7  ARG7        0.0307
     14  CG        43.0420    4.8610   24.4920 C.3     7  ARG7        0.0489
     15  CD        41.7150    4.3540   23.9680 C.3     7  ARG7        0.2205
     16  NE        41.7960    4.0940   22.5370 N.pl3   7  ARG7       -0.0865
     17  CZ        40.7530    4.0940   21.7100 C.cat   7  ARG7        0.5346
     18  NH1       39.5300    4.3430   22.1530 N.pl3   7  ARG7        0.1354
     19  NH2       40.9410    3.8590   20.4260 N.pl3   7  ARG7        0.1354
     20  N         45.6930    8.5910   20.0750 N.3    16  PHE16      -0.1241
     21  CA        46.6510    8.0760   19.1180 C.3    16  PHE16       0.1605
     22  C         46.2140    8.5460   17.7330 C.2    16  PHE16       0.2264
     23  O         45.0170    8.5330   17.4350 O.2    16  PHE16      -0.2867
     24  CB        46.7050    6.5690   19.1940 C.3    16  PHE16       0.0534
     25  CG        47.0670    6.0500   20.5610 C.ar   16  PHE16      -0.0203
     26  CD1       48.3520    5.6020   20.8310 C.ar   16  PHE16      -0.0042
     27  CD2       46.1280    6.0230   21.5710 C.ar   16  PHE16      -0.0042
     28  CE1       48.6850    5.1250   22.0760 C.ar   16  PHE16      -0.0003
     29  CE2       46.4570    5.5680   22.8320 C.ar   16  PHE16      -0.0003
     30  CZ        47.7410    5.1270   23.0890 C.ar   16  PHE16      -0.0000
     31  N         47.3080    8.5970   13.4470 N.3    18  ARG18      -0.1245
     32  CA        48.0490    8.1000   12.2960 C.3    18  ARG18       0.1563
     33  C         48.0640    9.1860   11.2070 C.2    18  ARG18       0.2260
     34  O         47.4640    9.0440   10.1360 O.2    18  ARG18      -0.2867
     35  CB        47.4500    6.7650   11.8050 C.3    18  ARG18       0.0307
     36  CG        47.8700    5.5680   12.6690 C.3    18  ARG18       0.0489
     37  CD        47.2130    4.2370   12.2690 C.3    18  ARG18       0.2205
     38  NE        45.7510    4.2640   12.4570 N.pl3  18  ARG18      -0.0865
     39  CZ        44.8740    3.3950   11.9270 C.cat  18  ARG18       0.5346
     40  NH1       45.2830    2.3780   11.1670 N.pl3  18  ARG18       0.1354
     41  NH2       43.5650    3.5460   12.1540 N.pl3  18  ARG18       0.1354
     42  N         51.8160   -2.2150   24.9860 N.3    51  ALA51      -0.1231
     43  CA        50.6770   -3.1190   24.8480 C.3    51  ALA51       0.1694
     44  C         49.6250   -2.6460   23.8260 C.2    51  ALA51       0.2592
     45  O         48.8790   -3.4470   23.2770 O.2    51  ALA51      -0.2718
     46  CB        50.0240   -3.3140   26.2050 C.3    51  ALA51       0.0304
     47  N         49.5990   -1.3470   23.5720 N.am   52  ARG52      -0.1966
     48  CA        48.5430   -0.6700   22.8310 C.3    52  ARG52       0.1729
     49  C         48.8740   -0.3930   21.3530 C.2    52  ARG52       0.2617
     50  O         47.9710   -0.3100   20.4900 O.2    52  ARG52      -0.2715
     51  CB        48.3150    0.6480   23.5730 C.3    52  ARG52       0.0348
     52  CG        47.0970    1.4200   23.1950 C.3    52  ARG52       0.0492
     53  CD        46.6060    2.2440   24.3670 C.3    52  ARG52       0.2205
     54  NE        45.9880    1.4220   25.3900 N.pl3  52  ARG52      -0.0865
     55  CZ        44.7300    0.9970   25.3720 C.cat  52  ARG52       0.5346
     56  NH1       43.9030    1.2860   24.3600 N.pl3  52  ARG52       0.1354
     57  NH2       44.2950    0.2710   26.3900 N.pl3  52  ARG52       0.1354
     58  N         50.1580   -0.2260   21.0560 N.am   53  THR53      -0.1937
     59  CA        50.5910    0.0850   19.6850 C.3    53  THR53       0.2028
     60  C         51.9850   -0.4860   19.4090 C.2    53  THR53       0.2642
     61  O         52.8680   -0.4480   20.2820 O.2    53  THR53      -0.2714
     62  CB        50.5400    1.6020   19.3810 C.3    53  THR53       0.1808
     63  OG1       51.0250    1.8570   18.0600 O.3    53  THR53      -0.2208
     64  CG2       51.3600    2.3960   20.3700 C.3    53  THR53       0.0379
     65  N         52.1530   -1.0310   18.2050 N.am   54  HIS54      -0.1959
     66  CA        53.4440   -1.5290   17.7240 C.3    54  HIS54       0.1787
     67  C         54.0030   -0.6650   16.5790 C.2    54  HIS54       0.2620
     68  O         54.8720   -1.1140   15.8370 O.2    54  HIS54      -0.2715
     69  CB        53.3270   -2.9700   17.1880 C.3    54  HIS54       0.0785
     70  CG        52.6290   -3.9370   18.0960 C.ar   54  HIS54       0.0821
     71  ND1       52.5970   -3.8070   19.4660 N.ar   54  HIS54      -0.2267
     72  CD2       51.9740   -5.0920   17.8150 C.ar   54  HIS54       0.1154
     73  CE1       51.9200   -4.8160   19.9880 C.ar   54  HIS54       0.1986
     74  NE2       51.5420   -5.6180   19.0060 N.ar   54  HIS54      -0.2212
     75  N         53.4580    0.5290   16.3680 N.am   55  LEU55      -0.1977
     76  CA        53.9460    1.4240   15.3030 C.3    55  LEU55       0.1596
     77  C         54.8380    2.5090   15.8970 C.2    55  LEU55       0.2287
     78  O         54.6530    2.9130   17.0500 O.2    55  LEU55      -0.2864
     79  CB        52.7760    2.1150   14.6090 C.3    55  LEU55       0.0297
     80  CG        51.7610    1.2400   13.8840 C.3    55  LEU55       0.0022
     81  CD1       50.5000    2.0240   13.5880 C.3    55  LEU55       0.0001
     82  CD2       52.3590    0.6610   12.6100 C.3    55  LEU55       0.0001
     83  N         55.8570    5.9510   16.8990 N.3    57  ARG57      -0.1245
     84  CA        55.0860    7.1370   17.2140 C.3    57  ARG57       0.1563
     85  C         55.9270    8.1210   18.0280 C.2    57  ARG57       0.2260
     86  O         56.5190    7.7530   19.0430 O.2    57  ARG57      -0.2867
     87  CB        53.8140    6.7790   18.0050 C.3    57  ARG57       0.0307
     88  CG        52.7850    5.9130   17.2770 C.3    57  ARG57       0.0489
     89  CD        51.5600    5.6590   18.1440 C.3    57  ARG57       0.2205
     90  NE        50.5960    4.7260   17.5310 N.pl3  57  ARG57      -0.0865
     91  CZ        49.5420    5.0630   16.7820 C.cat  57  ARG57       0.5346
     92  NH1       49.2690    6.3210   16.4970 N.pl3  57  ARG57       0.1354
     93  NH2       48.7410    4.0990   16.2850 N.pl3  57  ARG57       0.1354
@<TRIPOS>BOND
     1    34    33    2
     2    40    39    1
     3    33    32    1
     4    35    32    1
     5    35    36    1
     6    39    41    1
     7    39    38    2
     8    37    38    1
     9    37    36    1
    10    32    31    1
    11    82    80    1
    12    81    80    1
    13    80    79    1
    14    79    76    1
    15    76    77    1
    16    76    75    1
    17    68    67    2
    18    77    78    2
    19    93    91    1
    20    75    67   am
    21    92    91    1
    22    67    66    1
    23    91    90    2
    24    83    84    1
    25    69    66    1
    26    69    70    1
    27    84    87    1
    28    84    85    1
    29    88    87    1
    30    88    89    1
    31    23    22    2
    32    90    89    1
    33     8     6   am
    34    66    65    1
    35    22    21    1
    36    72    70   ar
    37    72    74   ar
    38    85    86    2
    39    63    62    1
    40    70    71   ar
    41    65    60   am
    42     6     7    2
    43     6     5    1
    44    74    73   ar
    45    21    24    1
    46    21    20    1
    47    24    25    1
    48    62    59    1
    49    62    64    1
    50    60    59    1
    51    60    61    2
    52    71    73   ar
    53    59    58    1
    54     5     2    1
    55    19    17    1
    56    50    49    2
    57    25    26   ar
    58    25    27   ar
    59    26    28   ar
    60    58    49   am
    61     2     1    1
    62     2     3    1
    63    49    48    1
    64    27    29   ar
    65     4     3    2
    66    17    18    1
    67    17    16    2
    68    28    30   ar
    69    16    15    1
    70    48    47    1
    71    48    51    1
    72    29    30   ar
    73    52    51    1
    74    52    53    1
    75    45    44    2
    76    47    44   am
    77    44    43    1
    78    15    14    1
    79    56    55    1
    80    53    54    1
    81    14    13    1
    82    43    42    1
    83    43    46    1
    84    55    54    2
    85    55    57    1
    86     9    10    1
    87    13    10    1
    88    10    11    1
    89    11    12    2
