@<TRIPOS>MOLECULE
tmp/3wsrB01.pdb
 130 131 0 0 0
SMALL
GASTEIGER

@<TRIPOS>ATOM
      1  N         35.7810   11.0750   23.2030 N.3     4  THR4       -0.1203
      2  CA        35.6290    9.9800   22.2540 C.3     4  THR4        0.1994
      3  C         36.9770    9.6220   21.6110 C.2     4  THR4        0.2618
      4  O         37.6850   10.5010   21.1070 O.2     4  THR4       -0.2717
      5  CB        34.5610   10.2900   21.1730 C.3     4  THR4        0.1784
      6  OG1       34.3470    9.1240   20.3650 O.3     4  THR4       -0.2211
      7  CG2       34.9870   11.4320   20.2670 C.3     4  THR4        0.0376
      8  N         37.3160    8.3330   21.6740 N.am    5  ASN5       -0.1960
      9  CA        38.5740    7.7450   21.1720 C.3     5  ASN5        0.1819
     10  C         39.8420    7.9880   22.0210 C.2     5  ASN5        0.2621
     11  O         40.9000    7.4780   21.6720 O.2     5  ASN5       -0.2715
     12  CB        38.8550    8.1340   19.7100 C.3     5  ASN5        0.1195
     13  CG        37.7980    7.6380   18.7490 C.2     5  ASN5        0.2630
     14  OD1       36.9730    6.7750   19.0790 O.2     5  ASN5       -0.2716
     15  ND2       37.8010    8.2020   17.5500 N.am    5  ASN5       -0.0877
     16  N         39.7320    8.7260   23.1250 N.am    6  TRP6       -0.1960
     17  CA        40.8450    8.9450   24.0480 C.3     6  TRP6        0.1771
     18  C         40.7730    7.9130   25.1680 C.2     6  TRP6        0.2619
     19  O         39.6810    7.6680   25.6790 O.2     6  TRP6       -0.2715
     20  CB        40.7980   10.3630   24.6350 C.3     6  TRP6        0.0590
     21  CG        41.1640   11.4280   23.6580 C.ar    6  TRP6        0.0006
     22  CD1       40.4170   11.8600   22.5960 C.ar    6  TRP6        0.0946
     23  CD2       42.3690   12.1910   23.6350 C.ar    6  TRP6        0.0152
     24  NE1       41.0770   12.8490   21.9170 N.ar    6  TRP6       -0.2442
     25  CE2       42.2780   13.0800   22.5350 C.ar    6  TRP6        0.0810
     26  CE3       43.5120   12.2300   24.4470 C.ar    6  TRP6        0.0012
     27  CZ2       43.2790   13.9850   22.2260 C.ar    6  TRP6        0.0191
     28  CZ3       44.5200   13.1130   24.1260 C.ar    6  TRP6        0.0001
     29  CH2       44.3910   13.9950   23.0240 C.ar    6  TRP6        0.0015
     30  N         41.9180    7.3290   25.5420 N.am    7  ARG7       -0.1977
     31  CA        41.9900    6.1880   26.4690 C.3     7  ARG7        0.1597
     32  C         42.4100    6.6280   27.8770 C.2     7  ARG7        0.2287
     33  O         43.4320    7.3160   28.0620 O.2     7  ARG7       -0.2864
     34  CB        43.0040    5.1360   25.9900 C.3     7  ARG7        0.0334
     35  CG        43.0420    4.8610   24.4920 C.3     7  ARG7        0.0492
     36  CD        41.7150    4.3540   23.9680 C.3     7  ARG7        0.2205
     37  NE        41.7960    4.0940   22.5370 N.pl3   7  ARG7       -0.0865
     38  CZ        40.7530    4.0940   21.7100 C.cat   7  ARG7        0.5346
     39  NH1       39.5300    4.3430   22.1530 N.pl3   7  ARG7        0.1354
     40  NH2       40.9410    3.8590   20.4260 N.pl3   7  ARG7        0.1354
     41  N         45.5370    9.8320   23.3710 N.3    15  GLY15      -0.1210
     42  CA        44.9690    9.7600   22.0490 C.3    15  GLY15       0.1956
     43  C         46.0590    9.3800   21.0760 C.2    15  GLY15       0.2612
     44  O         47.2200    9.7770   21.2400 O.2    15  GLY15      -0.2717
     45  N         45.6930    8.5910   20.0750 N.am   16  PHE16      -0.1962
     46  CA        46.6510    8.0760   19.1180 C.3    16  PHE16       0.1771
     47  C         46.2140    8.5460   17.7330 C.2    16  PHE16       0.2620
     48  O         45.0170    8.5330   17.4350 O.2    16  PHE16      -0.2715
     49  CB        46.7050    6.5690   19.1940 C.3    16  PHE16       0.0574
     50  CG        47.0670    6.0500   20.5610 C.ar   16  PHE16      -0.0200
     51  CD1       48.3520    5.6020   20.8310 C.ar   16  PHE16      -0.0042
     52  CD2       46.1280    6.0230   21.5710 C.ar   16  PHE16      -0.0042
     53  CE1       48.6850    5.1250   22.0760 C.ar   16  PHE16      -0.0003
     54  CE2       46.4570    5.5680   22.8320 C.ar   16  PHE16      -0.0003
     55  CZ        47.7410    5.1270   23.0890 C.ar   16  PHE16      -0.0000
     56  N         47.1940    8.9600   16.9160 N.am   17  PHE17      -0.1960
     57  CA        46.9380    9.5820   15.6110 C.3    17  PHE17       0.1771
     58  C         47.8990    9.0840   14.5270 C.2    17  PHE17       0.2619
     59  O         49.1280    9.1590   14.6600 O.2    17  PHE17      -0.2715
     60  CB        47.0260   11.1050   15.7070 C.3    17  PHE17       0.0574
     61  CG        46.1740   11.6720   16.7840 C.ar   17  PHE17      -0.0200
     62  CD1       44.8360   11.9450   16.5450 C.ar   17  PHE17      -0.0042
     63  CD2       46.6960   11.9170   18.0350 C.ar   17  PHE17      -0.0042
     64  CE1       44.0220   12.4200   17.5560 C.ar   17  PHE17      -0.0003
     65  CE2       45.9030   12.4160   19.0410 C.ar   17  PHE17      -0.0003
     66  CZ        44.5550   12.6710   18.8030 C.ar   17  PHE17      -0.0000
     67  N         47.3080    8.5970   13.4470 N.am   18  ARG18      -0.1963
     68  CA        48.0490    8.1000   12.2960 C.3    18  ARG18       0.1729
     69  C         48.0640    9.1860   11.2070 C.2    18  ARG18       0.2616
     70  O         47.4640    9.0440   10.1360 O.2    18  ARG18      -0.2715
     71  CB        47.4500    6.7650   11.8050 C.3    18  ARG18       0.0348
     72  CG        47.8700    5.5680   12.6690 C.3    18  ARG18       0.0492
     73  CD        47.2130    4.2370   12.2690 C.3    18  ARG18       0.2205
     74  NE        45.7510    4.2640   12.4570 N.pl3  18  ARG18      -0.0865
     75  CZ        44.8740    3.3950   11.9270 C.cat  18  ARG18       0.5346
     76  NH1       45.2830    2.3780   11.1670 N.pl3  18  ARG18       0.1354
     77  NH2       43.5650    3.5460   12.1540 N.pl3  18  ARG18       0.1354
     78  N         48.7160   10.2940   11.5190 N.am   19  HIS19      -0.1973
     79  CA        49.0640   11.3110   10.5270 C.3    19  HIS19       0.1656
     80  C         50.5760   11.3500   10.4260 C.2    19  HIS19       0.2291
     81  O         51.2570   11.2410   11.4370 O.2    19  HIS19      -0.2864
     82  CB        48.5840   12.6880   10.9750 C.3    19  HIS19       0.0771
     83  CG        47.1000   12.8110   11.0910 C.ar   19  HIS19       0.0820
     84  ND1       46.2610   12.7090   10.0030 N.ar   19  HIS19      -0.2267
     85  CD2       46.3050   13.0570   12.1610 C.ar   19  HIS19       0.1154
     86  CE1       45.0100   12.8800   10.3950 C.ar   19  HIS19       0.1986
     87  NE2       45.0110   13.1030   11.6990 N.ar   19  HIS19      -0.2212
     88  N         50.2680   19.6780   16.6990 N.3    29  TYR29      -0.1241
     89  CA        49.0430   18.8640   16.6270 C.3    29  TYR29       0.1605
     90  C         48.4480   18.5880   18.0050 C.2    29  TYR29       0.2264
     91  O         47.2520   18.8010   18.2350 O.2    29  TYR29      -0.2867
     92  CB        49.3360   17.5360   15.9270 C.3    29  TYR29       0.0534
     93  CG        48.1010   16.8190   15.5030 C.ar   29  TYR29      -0.0201
     94  CD1       47.5660   17.0040   14.2310 C.ar   29  TYR29      -0.0009
     95  CD2       47.4450   15.9670   16.3740 C.ar   29  TYR29      -0.0009
     96  CE1       46.4000   16.3520   13.8460 C.ar   29  TYR29       0.0417
     97  CE2       46.2960   15.3070   15.9920 C.ar   29  TYR29       0.0417
     98  CZ        45.7770   15.5080   14.7330 C.ar   29  TYR29       0.1957
     99  OH        44.6340   14.8480   14.3690 O.3    29  TYR29      -0.2866
    100  N         45.0750   20.2590   20.0630 N.3    33  MET33      -0.1245
    101  CA        44.0410   19.4970   20.7290 C.3    33  MET33       0.1570
    102  C         44.0590   19.5510   22.2520 C.2    33  MET33       0.2261
    103  O         43.5790   18.6290   22.8920 O.2    33  MET33      -0.2867
    104  CB        44.1600   18.0550   20.2820 C.3    33  MET33       0.0387
    105  CG        44.0520   17.9720   18.7870 C.3    33  MET33       0.0595
    106  SD        43.4430   16.3750   18.3280 S.3    33  MET33      -0.1393
    107  CE        42.6800   16.8310   16.7680 C.3    33  MET33       0.0692
    108  N         55.8570    5.9510   16.8990 N.3    57  ARG57      -0.1245
    109  CA        55.0860    7.1370   17.2140 C.3    57  ARG57       0.1563
    110  C         55.9270    8.1210   18.0280 C.2    57  ARG57       0.2260
    111  O         56.5190    7.7530   19.0430 O.2    57  ARG57      -0.2867
    112  CB        53.8140    6.7790   18.0050 C.3    57  ARG57       0.0307
    113  CG        52.7850    5.9130   17.2770 C.3    57  ARG57       0.0489
    114  CD        51.5600    5.6590   18.1440 C.3    57  ARG57       0.2205
    115  NE        50.5960    4.7260   17.5310 N.pl3  57  ARG57      -0.0865
    116  CZ        49.5420    5.0630   16.7820 C.cat  57  ARG57       0.5346
    117  NH1       49.2690    6.3210   16.4970 N.pl3  57  ARG57       0.1354
    118  NH2       48.7410    4.0990   16.2850 N.pl3  57  ARG57       0.1354
    119  N         53.8670    8.8280   12.6500 N.3   113  TYR113     -0.1241
    120  CA        52.6790    8.8640   13.4830 C.3   113  TYR113      0.1605
    121  C         52.9530    9.4070   14.8840 C.2   113  TYR113      0.2264
    122  O         54.0810    9.6800   15.2500 O.2   113  TYR113     -0.2867
    123  CB        52.1310    7.4630   13.6090 C.3   113  TYR113      0.0534
    124  CG        51.6550    6.8320   12.3200 C.ar  113  TYR113     -0.0201
    125  CD1       51.3060    7.5880   11.1960 C.ar  113  TYR113     -0.0009
    126  CD2       51.4690    5.4680   12.2720 C.ar  113  TYR113     -0.0009
    127  CE1       50.8180    6.9710   10.0360 C.ar  113  TYR113      0.0417
    128  CE2       50.9640    4.8510   11.1350 C.ar  113  TYR113      0.0417
    129  CZ        50.6640    5.6030   10.0240 C.ar  113  TYR113      0.1957
    130  OH        50.1840    4.9080    8.9370 O.3   113  TYR113     -0.2866
@<TRIPOS>BOND
     1   130   129    1
     2    84    86   ar
     3    84    83   ar
     4   129   127   ar
     5   129   128   ar
     6   127   125   ar
     7    70    69    2
     8    86    87   ar
     9    80    79    1
    10    80    81    2
    11    79    82    1
    12    79    78    1
    13    82    83    1
    14    83    85   ar
    15   128   126   ar
    16    76    75    1
    17   125   124   ar
    18    69    78   am
    19    69    68    1
    20    87    85   ar
    21    71    68    1
    22    71    72    1
    23    75    77    1
    24    75    74    2
    25    73    74    1
    26    73    72    1
    27   126   124   ar
    28    68    67    1
    29   124   123    1
    30   119   120    1
    31    67    58   am
    32   120   123    1
    33   120   121    1
    34    96    94   ar
    35    96    98   ar
    36    94    93   ar
    37    99    98    1
    38    58    59    2
    39    58    57    1
    40    98    97   ar
    41   121   122    2
    42    93    92    1
    43    93    95   ar
    44    57    60    1
    45    57    56    1
    46    60    61    1
    47    92    89    1
    48    97    95   ar
    49   118   116    1
    50   117   116    1
    51    62    61   ar
    52    62    64   ar
    53    89    88    1
    54    89    90    1
    55   107   106    1
    56   116   115    2
    57    61    63   ar
    58   108   109    1
    59    56    47   am
    60   109   112    1
    61   109   110    1
    62   113   112    1
    63   113   114    1
    64    48    47    2
    65   115   114    1
    66    15    13   am
    67    64    66   ar
    68    47    46    1
    69    90    91    2
    70   110   111    2
    71    63    65   ar
    72   106   105    1
    73    13    14    2
    74    13    12    1
    75   105   104    1
    76    66    65   ar
    77    46    49    1
    78    46    45    1
    79    49    50    1
    80    12     9    1
    81   100   101    1
    82    45    43   am
    83     7     5    1
    84   104   101    1
    85     6     5    1
    86    40    38    1
    87    50    51   ar
    88    50    52   ar
    89   101   102    1
    90    51    53   ar
    91    43    44    2
    92    43    42    1
    93     4     3    2
    94     9     8    1
    95     9    10    1
    96     5     2    1
    97    52    54   ar
    98     3     8   am
    99     3     2    1
   100    11    10    2
   101    38    39    1
   102    38    37    2
   103    24    25   ar
   104    24    22   ar
   105    10    16   am
   106    42    41    1
   107    53    55   ar
   108    27    25   ar
   109    27    29   ar
   110   102   103    2
   111     2     1    1
   112    25    23   ar
   113    37    36    1
   114    22    21   ar
   115    54    55   ar
   116    29    28   ar
   117    16    17    1
   118    23    21   ar
   119    23    26   ar
   120    21    20    1
   121    36    35    1
   122    17    20    1
   123    17    18    1
   124    28    26   ar
   125    35    34    1
   126    18    30   am
   127    18    19    2
   128    30    31    1
   129    34    31    1
   130    31    32    1
   131    32    33    2
