@<TRIPOS>MOLECULE
tmp/3wstR00.pdb
 215 204 0 0 0
SMALL
GASTEIGER

@<TRIPOS>ATOM
      1  N         71.2240   59.5240  -52.2390 N.3    27  GLU27      -0.1245
      2  CA        70.3120   58.9750  -51.2710 C.3    27  GLU27       0.1567
      3  C         68.9500   59.6460  -51.4000 C.2    27  GLU27       0.2260
      4  O         67.9320   58.9790  -51.2980 O.2    27  GLU27      -0.2867
      5  CB        70.8340   59.0960  -49.8440 C.3    27  GLU27       0.0388
      6  CG        69.8590   58.4500  -48.8430 C.3    27  GLU27       0.1160
      7  CD        70.4460   58.1690  -47.4680 C.2    27  GLU27       0.3649
      8  OE1       71.6670   58.3300  -47.2790 O.co2  27  GLU27      -0.2457
      9  OE2       69.6750   57.8000  -46.5630 O.co2  27  GLU27      -0.2457
     10  N         64.8280   58.3780  -52.0730 N.3    31  SER31      -0.1217
     11  CA        63.8810   58.5190  -50.9640 C.3    31  SER31       0.1889
     12  C         62.4070   58.2640  -51.3170 C.2    31  SER31       0.2288
     13  O         61.5400   58.1610  -50.4270 O.2    31  SER31      -0.2866
     14  CB        64.0660   59.8360  -50.2150 C.3    31  SER31       0.2089
     15  OG        65.2210   59.7600  -49.3970 O.3    31  SER31      -0.2183
     16  N         61.4670   55.5370  -52.8060 N.3    33  PHE33      -0.1241
     17  CA        61.3570   54.0920  -52.8310 C.3    33  PHE33       0.1605
     18  C         60.3300   53.6340  -53.8810 C.2    33  PHE33       0.2264
     19  O         59.2610   53.1110  -53.5580 O.2    33  PHE33      -0.2867
     20  CB        61.1060   53.5680  -51.4050 C.3    33  PHE33       0.0534
     21  CG        62.2170   53.9180  -50.4630 C.ar   33  PHE33      -0.0203
     22  CD1       63.5350   53.4230  -50.6940 C.ar   33  PHE33      -0.0042
     23  CD2       61.9980   54.7820  -49.3980 C.ar   33  PHE33      -0.0042
     24  CE1       64.6050   53.7890  -49.8680 C.ar   33  PHE33      -0.0003
     25  CE2       63.0430   55.1100  -48.5550 C.ar   33  PHE33      -0.0003
     26  CZ        64.3460   54.6330  -48.8030 C.ar   33  PHE33      -0.0000
     27  N         56.4070   53.4990  -53.6330 N.3    36  MET36      -0.1230
     28  CA        55.9450   53.6110  -52.2480 C.3    36  MET36       0.1702
     29  C         54.8470   54.6610  -52.0040 C.2    36  MET36       0.2592
     30  O         53.8720   54.3790  -51.3130 O.2    36  MET36      -0.2718
     31  CB        57.0720   53.8340  -51.2540 C.3    36  MET36       0.0401
     32  CG        56.5890   53.8870  -49.8060 C.3    36  MET36       0.0596
     33  SD        57.9210   54.4330  -48.7070 S.3    36  MET36      -0.1393
     34  CE        58.0050   56.1560  -49.1870 C.3    36  MET36       0.0692
     35  N         55.0060   55.8710  -52.5460 N.am   37  ILE37      -0.1980
     36  CA        54.0250   56.9110  -52.2600 C.3    37  ILE37       0.1595
     37  C         52.7840   56.7480  -53.1240 C.2    37  ILE37       0.2287
     38  O         51.6410   56.9610  -52.6570 O.2    37  ILE37      -0.2864
     39  CB        54.6390   58.3070  -52.3330 C.3    37  ILE37       0.0276
     40  CG1       55.7170   58.4160  -51.2330 C.3    37  ILE37       0.0022
     41  CG2       53.5510   59.3470  -52.0630 C.3    37  ILE37       0.0022
     42  CD1       56.9530   59.2460  -51.6020 C.3    37  ILE37       0.0001
     43  N         48.4440   51.0120  -49.6930 N.3    42  ARG42      -0.1245
     44  CA        49.2440   50.9940  -48.4530 C.3    42  ARG42       0.1563
     45  C         48.7830   52.1830  -47.6220 C.2    42  ARG42       0.2260
     46  O         48.5830   52.1000  -46.4130 O.2    42  ARG42      -0.2867
     47  CB        50.7410   51.0540  -48.7500 C.3    42  ARG42       0.0307
     48  CG        51.6030   51.6190  -47.6150 C.3    42  ARG42       0.0489
     49  CD        52.9870   52.0020  -48.1290 C.3    42  ARG42       0.2205
     50  NE        52.9960   53.3900  -48.5200 N.pl3  42  ARG42      -0.0865
     51  CZ        53.6360   54.3460  -47.8550 C.cat  42  ARG42       0.5346
     52  NH1       54.3760   54.0200  -46.8020 N.pl3  42  ARG42       0.1354
     53  NH2       53.5600   55.6070  -48.2480 N.pl3  42  ARG42       0.1354
     54  N         55.1310   59.6030  -35.4040 N.3    70  ASP70      -0.1225
     55  CA        55.3180   59.0260  -36.7450 C.3    70  ASP70       0.1805
     56  C         56.7730   58.8410  -36.9960 C.2    70  ASP70       0.2598
     57  O         57.4860   59.7950  -37.2910 O.2    70  ASP70      -0.2718
     58  CB        54.7560   59.9530  -37.8320 C.3    70  ASP70       0.1424
     59  CG        55.0540   59.4400  -39.2750 C.2    70  ASP70       0.3668
     60  OD1       55.4750   58.2650  -39.4380 O.co2  70  ASP70      -0.2456
     61  OD2       54.8720   60.2110  -40.2480 O.co2  70  ASP70      -0.2456
     62  N         57.2530   57.6260  -36.8740 N.am   71  ILE71      -0.1966
     63  CA        58.6560   57.3860  -37.0490 C.3    71  ILE71       0.1727
     64  C         58.9720   57.1150  -38.5120 C.2    71  ILE71       0.2617
     65  O         58.3060   56.2850  -39.1420 O.2    71  ILE71      -0.2715
     66  CB        59.0750   56.1480  -36.2880 C.3    71  ILE71       0.0290
     67  CG1       58.4650   56.2310  -34.8690 C.3    71  ILE71       0.0022
     68  CG2       60.5910   56.0090  -36.4080 C.3    71  ILE71       0.0023
     69  CD1       58.9470   55.2410  -33.7890 C.3    71  ILE71       0.0001
     70  N         60.0000   57.7740  -39.0400 N.am   72  GLY72      -0.1940
     71  CA        60.3710   57.6160  -40.4470 C.3    72  GLY72       0.2014
     72  C         59.3990   58.3740  -41.3120 C.2    72  GLY72       0.2640
     73  O         58.8800   57.8550  -42.2830 O.2    72  GLY72      -0.2714
     74  N         59.1420   59.6140  -40.9620 N.am   73  THR73      -0.1936
     75  CA        58.0790   60.3430  -41.6060 C.3    73  THR73       0.2028
     76  C         58.2840   60.5800  -43.1300 C.2    73  THR73       0.2643
     77  O         57.3130   60.8140  -43.8550 O.2    73  THR73      -0.2714
     78  CB        57.7090   61.6420  -40.8320 C.3    73  THR73       0.1808
     79  OG1       56.4210   62.0860  -41.2550 O.3    73  THR73      -0.2208
     80  CG2       58.7220   62.7640  -41.0410 C.3    73  THR73       0.0379
     81  N         59.5210   60.5180  -43.6140 N.am   74  GLY74      -0.1939
     82  CA        59.7130   60.6650  -45.0500 C.3    74  GLY74       0.2014
     83  C         59.2250   62.0350  -45.4170 C.2    74  GLY74       0.2639
     84  O         59.7820   63.0040  -44.9500 O.2    74  GLY74      -0.2714
     85  N         58.1810   62.1180  -46.2340 N.am   75  THR75      -0.1950
     86  CA        57.6930   63.3900  -46.7360 C.3    75  THR75       0.1897
     87  C         56.7520   64.1000  -45.7500 C.2    75  THR75       0.2313
     88  O         56.3340   65.2330  -45.9910 O.2    75  THR75      -0.2863
     89  CB        56.8660   63.1760  -47.9890 C.3    75  THR75       0.1794
     90  OG1       55.7980   62.2690  -47.6580 O.3    75  THR75      -0.2208
     91  CG2       57.7270   62.6210  -49.0880 C.3    75  THR75       0.0378
     92  N         53.8750   62.4310  -45.0640 N.3    77  LEU77      -0.1231
     93  CA        52.5700   61.8520  -45.4710 C.3    77  LEU77       0.1693
     94  C         51.7040   61.3550  -44.3220 C.2    77  LEU77       0.2591
     95  O         50.5550   61.7900  -44.1690 O.2    77  LEU77      -0.2718
     96  CB        52.7690   60.7110  -46.4840 C.3    77  LEU77       0.0284
     97  CG        51.5370   60.0630  -47.0730 C.3    77  LEU77       0.0019
     98  CD1       50.5910   61.1190  -47.6130 C.3    77  LEU77       0.0001
     99  CD2       51.9840   59.0920  -48.1820 C.3    77  LEU77       0.0001
    100  N         52.2400   60.4500  -43.5080 N.am   78  LEU78      -0.1980
    101  CA        51.4250   59.8650  -42.4510 C.3    78  LEU78       0.1596
    102  C         51.1610   60.8530  -41.2720 C.2    78  LEU78       0.2287
    103  O         50.1510   60.7370  -40.5610 O.2    78  LEU78      -0.2864
    104  CB        52.0390   58.5450  -41.9490 C.3    78  LEU78       0.0297
    105  CG        51.9450   57.2360  -42.7600 C.3    78  LEU78       0.0022
    106  CD1       51.9420   57.4360  -44.2600 C.3    78  LEU78       0.0001
    107  CD2       53.0630   56.2830  -42.3820 C.3    78  LEU78       0.0001
    108  N         59.6360   61.8680  -36.6850 N.3    93  LEU93      -0.1231
    109  CA        61.0590   61.6820  -36.8300 C.3    93  LEU93       0.1693
    110  C         61.4340   61.2300  -38.2340 C.2    93  LEU93       0.2592
    111  O         60.5960   60.6960  -38.9590 O.2    93  LEU93      -0.2718
    112  CB        61.5510   60.6750  -35.8170 C.3    93  LEU93       0.0284
    113  CG        61.1610   60.9080  -34.3530 C.3    93  LEU93       0.0019
    114  CD1       61.9820   60.0340  -33.4680 C.3    93  LEU93       0.0001
    115  CD2       61.3240   62.3400  -33.8800 C.3    93  LEU93       0.0001
    116  N         62.6830   61.5020  -38.6160 N.am   94  GLU94      -0.1966
    117  CA        63.2410   61.1370  -39.8840 C.3    94  GLU94       0.1733
    118  C         64.7350   61.3810  -39.7840 C.2    94  GLU94       0.2616
    119  O         65.1650   62.5030  -39.5610 O.2    94  GLU94      -0.2715
    120  CB        62.6690   61.9790  -41.0130 C.3    94  GLU94       0.0429
    121  CG        63.4200   61.7700  -42.3230 C.3    94  GLU94       0.1163
    122  CD        63.4600   60.3220  -42.7800 C.2    94  GLU94       0.3649
    123  OE1       64.5920   59.7860  -42.9200 O.co2  94  GLU94      -0.2457
    124  OE2       62.3540   59.7410  -43.0430 O.co2  94  GLU94      -0.2457
    125  N         65.5210   60.3240  -39.9370 N.am   95  VAL95      -0.1963
    126  CA        66.9810   60.3790  -39.7820 C.3    95  VAL95       0.1727
    127  C         67.7040   60.9770  -40.9920 C.2    95  VAL95       0.2616
    128  O         68.8460   61.4430  -40.8760 O.2    95  VAL95      -0.2715
    129  CB        67.5370   58.9660  -39.5140 C.3    95  VAL95       0.0290
    130  CG1       67.2720   58.0450  -40.7070 C.3    95  VAL95       0.0023
    131  CG2       69.0250   59.0150  -39.1860 C.3    95  VAL95       0.0023
    132  N         67.0560   60.9740  -42.1580 N.am   96  PHE96      -0.1974
    133  CA        67.7120   61.5100  -43.3470 C.3    96  PHE96       0.1639
    134  C         67.3310   62.9620  -43.4240 C.2    96  PHE96       0.2290
    135  O         66.1750   63.3060  -43.7460 O.2    96  PHE96      -0.2864
    136  CB        67.3380   60.7350  -44.6230 C.3    96  PHE96       0.0560
    137  CG        68.1430   61.1290  -45.8360 C.ar   96  PHE96      -0.0200
    138  CD1       69.5260   61.0690  -45.8210 C.ar   96  PHE96      -0.0042
    139  CD2       67.5070   61.5780  -46.9980 C.ar   96  PHE96      -0.0042
    140  CE1       70.2560   61.4450  -46.9330 C.ar   96  PHE96      -0.0003
    141  CE2       68.2330   61.9560  -48.1070 C.ar   96  PHE96      -0.0003
    142  CZ        69.6040   61.8740  -48.0800 C.ar   96  PHE96      -0.0000
    143  N         65.3540   64.8090  -46.0460 N.3    99  MET99      -0.1245
    144  CA        63.9230   64.4960  -45.9900 C.3    99  MET99       0.1570
    145  C         63.2810   65.0520  -44.7320 C.2    99  MET99       0.2261
    146  O         62.0620   65.3060  -44.6980 O.2    99  MET99      -0.2867
    147  CB        63.6700   63.0090  -46.1400 C.3    99  MET99       0.0387
    148  CG        63.9420   62.4910  -47.5460 C.3    99  MET99       0.0595
    149  SD        62.7820   63.1480  -48.7620 S.3    99  MET99      -0.1393
    150  CE        61.1740   62.5660  -48.1900 C.3    99  MET99       0.0692
    151  N         66.0810   63.4640  -36.2930 N.3   121  GLU121     -0.1231
    152  CA        66.8720   62.4680  -35.5390 C.3   121  GLU121      0.1699
    153  C         66.4180   61.0410  -35.8230 C.2   121  GLU121      0.2592
    154  O         65.3610   60.8300  -36.3920 O.2   121  GLU121     -0.2718
    155  CB        66.7800   62.7120  -34.0260 C.3   121  GLU121      0.0402
    156  CG        67.1680   64.1110  -33.5230 C.3   121  GLU121      0.1161
    157  CD        68.5660   64.5550  -33.9610 C.2   121  GLU121      0.3649
    158  OE1       69.4700   63.6920  -34.0250 O.co2 121  GLU121     -0.2457
    159  OE2       68.7600   65.7700  -34.2500 O.co2 121  GLU121     -0.2457
    160  N         67.1930   60.0470  -35.4200 N.am  122  ARG122     -0.1966
    161  CA        66.6820   58.6810  -35.5080 C.3   122  ARG122      0.1729
    162  C         66.0000   58.2820  -34.2170 C.2   122  ARG122      0.2617
    163  O         66.5580   58.4810  -33.1350 O.2   122  ARG122     -0.2715
    164  CB        67.7620   57.6970  -35.8610 C.3   122  ARG122      0.0348
    165  CG        67.1160   56.5140  -36.5020 C.3   122  ARG122      0.0492
    166  CD        68.1330   55.4830  -36.9280 C.3   122  ARG122      0.2205
    167  NE        67.4330   54.2170  -37.1320 N.pl3 122  ARG122     -0.0865
    168  CZ        67.8650   53.2420  -37.9190 C.cat 122  ARG122      0.5346
    169  NH1       69.0110   53.4030  -38.5900 N.pl3 122  ARG122      0.1354
    170  NH2       67.1490   52.1280  -38.0480 N.pl3 122  ARG122      0.1354
    171  N         64.7830   57.7530  -34.3180 N.am  123  SER123     -0.1936
    172  CA        63.9650   57.5000  -33.1240 C.3   123  SER123      0.2055
    173  C         64.7580   56.7520  -32.0450 C.2   123  SER123      0.2643
    174  O         64.5030   56.8430  -30.8420 O.2   123  SER123     -0.2714
    175  CB        62.7080   56.7010  -33.4940 C.3   123  SER123      0.2130
    176  OG        63.0780   55.3560  -33.7020 O.3   123  SER123     -0.2179
    177  N         65.7120   56.0050  -32.5370 N.am  124  THR124     -0.1950
    178  CA        66.6170   55.2250  -31.7690 C.3   124  THR124      0.1897
    179  C         67.6450   56.0280  -30.9400 C.2   124  THR124      0.2313
    180  O         68.2190   55.5110  -29.9820 O.2   124  THR124     -0.2863
    181  CB        67.2310   54.2200  -32.7670 C.3   124  THR124      0.1794
    182  OG1       66.5670   52.9750  -32.5520 O.3   124  THR124     -0.2208
    183  CG2       68.7680   54.0400  -32.6750 C.3   124  THR124      0.0378
    184  N         55.9720   53.4200  -41.0350 N.3   140  GLU140     -0.1231
    185  CA        56.0840   52.4380  -42.1170 C.3   140  GLU140      0.1699
    186  C         57.5300   52.2890  -42.4950 C.2   140  GLU140      0.2592
    187  O         58.1430   53.0650  -43.2170 O.2   140  GLU140     -0.2718
    188  CB        55.1170   52.6320  -43.2910 C.3   140  GLU140      0.0402
    189  CG        55.6890   52.9240  -44.6620 C.3   140  GLU140      0.1161
    190  CD        56.2550   51.7230  -45.4550 C.2   140  GLU140      0.3649
    191  OE1       56.7340   50.7490  -44.8390 O.co2 140  GLU140     -0.2457
    192  OE2       56.2700   51.8030  -46.7310 O.co2 140  GLU140     -0.2457
    193  N         58.0680   51.2200  -41.9940 N.am  141  VAL141     -0.1980
    194  CA        59.4680   51.1210  -41.8610 C.3   141  VAL141      0.1595
    195  C         59.7780   49.6450  -42.2330 C.2   141  VAL141      0.2287
    196  O         60.6000   48.9780  -41.6110 O.2   141  VAL141     -0.2864
    197  CB        59.6820   51.6090  -40.3880 C.3   141  VAL141      0.0276
    198  CG1       60.2590   50.5680  -39.5050 C.3   141  VAL141      0.0022
    199  CG2       60.3810   52.9550  -40.3190 C.3   141  VAL141      0.0022
    200  N         64.7700   46.6120  -42.7100 N.3   149  GLU149     -0.1245
    201  CA        65.0020   48.0230  -42.4600 C.3   149  GLU149      0.1567
    202  C         64.9440   48.3610  -40.9570 C.2   149  GLU149      0.2260
    203  O         64.9330   49.5270  -40.6090 O.2   149  GLU149     -0.2867
    204  CB        63.9140   48.8750  -43.1680 C.3   149  GLU149      0.0388
    205  CG        64.0200   48.9240  -44.6930 C.3   149  GLU149      0.1160
    206  CD        62.9010   49.7020  -45.3920 C.2   149  GLU149      0.3649
    207  OE1       62.8660   49.5840  -46.6270 O.co2 149  GLU149     -0.2457
    208  OE2       62.0610   50.4220  -44.7590 O.co2 149  GLU149     -0.2457
    209  N         63.2170   49.6450  -33.9550 N.3   154  THR154     -0.1218
    210  CA        62.5030   50.8710  -33.9560 C.3   154  THR154      0.1862
    211  C         61.2630   50.7550  -33.0890 C.2   154  THR154      0.2287
    212  O         61.1650   51.4570  -32.1010 O.2   154  THR154     -0.2866
    213  CB        62.2120   51.2430  -35.3810 C.3   154  THR154      0.1770
    214  OG1       63.4630   51.2290  -36.0690 O.3   154  THR154     -0.2211
    215  CG2       61.6110   52.5950  -35.4880 C.3   154  THR154      0.0375
@<TRIPOS>BOND
     1    18    19    2
     2    18    17    1
     3    27    28    1
     4    37    38    2
     5    37    36    1
     6    17    16    1
     7    17    20    1
     8    35    36    1
     9    35    29   am
    10    39    36    1
    11    39    41    1
    12    39    40    1
    13    28    29    1
    14    28    31    1
    15     1     2    1
    16    10    11    1
    17    29    30    2
    18    42    40    1
    19    20    21    1
    20     3     4    2
    21     3     2    1
    22    12    11    1
    23    12    13    2
    24     2     5    1
    25    31    32    1
    26    11    14    1
    27    22    21   ar
    28    22    24   ar
    29    21    23   ar
    30    14    15    1
    31    24    26   ar
    32     5     6    1
    33    32    33    1
    34    43    44    1
    35    23    25   ar
    36    34    33    1
    37    91    89    1
    38     6     7    1
    39    26    25   ar
    40   149   150    1
    41   149   148    1
    42    47    44    1
    43    47    48    1
    44    50    49    1
    45    50    51    2
    46    44    45    1
    47    53    51    1
    48    99    97    1
    49    49    48    1
    50   141   142   ar
    51   141   139   ar
    52   142   140   ar
    53    89    90    1
    54    89    86    1
    55    51    52    1
    56    45    46    2
    57    98    97    1
    58   148   147    1
    59     7     8   ar
    60     7     9   ar
    61    97    96    1
    62   139   137   ar
    63   140   138   ar
    64    86    85    1
    65    86    87    1
    66   192   190   ar
    67   207   206   ar
    68    96    93    1
    69    85    83   am
    70   147   144    1
    71   143   144    1
    72    88    87    2
    73   144   145    1
    74   137   138   ar
    75   137   136    1
    76    93    92    1
    77    93    94    1
    78   190   191   ar
    79   190   189    1
    80    83    82    1
    81    83    84    2
    82   206   208   ar
    83   206   205    1
    84    82    81    1
    85   145   146    2
    86   205   204    1
    87   189   188    1
    88   136   133    1
    89    94    95    2
    90    94   100   am
    91   106   105    1
    92    77    76    2
    93   135   134    2
    94    81    76   am
    95   100   101    1
    96   134   133    1
    97   133   132    1
    98   188   185    1
    99   187   186    2
   100   204   201    1
   101    76    75    1
   102   124   122   ar
   103   123   122   ar
   104   122   121    1
   105   105   107    1
   106   105   104    1
   107   200   201    1
   108   186   185    1
   109   186   193   am
   110   201   202    1
   111   101   104    1
   112   101   102    1
   113   121   120    1
   114    73    72    2
   115   195   194    1
   116   195   196    2
   117   132   127   am
   118   185   184    1
   119   193   194    1
   120   194   197    1
   121    75    74    1
   122    75    78    1
   123    72    74   am
   124    72    71    1
   125   102   103    2
   126    79    78    1
   127    80    78    1
   128   120   117    1
   129   127   128    2
   130   127   126    1
   131   202   203    2
   132   130   129    1
   133    71    70    1
   134   197   199    1
   135   197   198    1
   136    61    59   ar
   137   125   118   am
   138   125   126    1
   139   117   118    1
   140   117   116    1
   141   118   119    2
   142   126   129    1
   143   129   131    1
   144    60    59   ar
   145    59    58    1
   146    65    64    2
   147    70    64   am
   148   111   110    2
   149   116   110   am
   150   169   168    1
   151    64    63    1
   152   110   109    1
   153   170   168    1
   154   168   167    2
   155    58    55    1
   156    57    56    2
   157   167   166    1
   158    63    62    1
   159    63    66    1
   160    56    62   am
   161    56    55    1
   162   166   165    1
   163   109   108    1
   164   109   112    1
   165    55    54    1
   166   165   164    1
   167    68    66    1
   168   154   153    2
   169   151   152    1
   170    66    67    1
   171   214   213    1
   172   164   161    1
   173   153   152    1
   174   153   160   am
   175   112   113    1
   176   152   155    1
   177   161   160    1
   178   161   162    1
   179   215   213    1
   180   213   210    1
   181    67    69    1
   182   113   115    1
   183   113   114    1
   184   171   162   am
   185   171   172    1
   186   159   157   ar
   187   162   163    2
   188   155   156    1
   189   158   157   ar
   190   157   156    1
   191   210   209    1
   192   210   211    1
   193   176   175    1
   194   175   172    1
   195   172   173    1
   196   211   212    2
   197   181   183    1
   198   181   182    1
   199   181   178    1
   200   177   173   am
   201   177   178    1
   202   173   174    2
   203   178   179    1
   204   179   180    2
