@<TRIPOS>MOLECULE
tmp/3wszA00.pdb
 187 186 0 0 0
SMALL
GASTEIGER

@<TRIPOS>ATOM
      1  N        -13.4120   48.9540    7.1370 N.3    16  ASN16      -0.1225
      2  CA       -13.1580   50.2050    6.4330 C.3    16  ASN16       0.1785
      3  C        -13.5420   50.1600    4.9600 C.2    16  ASN16       0.2597
      4  O        -13.8520   51.1870    4.3610 O.2    16  ASN16      -0.2718
      5  CB       -11.6910   50.6190    6.5830 C.3    16  ASN16       0.1169
      6  CG       -10.7350   49.4560    6.3980 C.2    16  ASN16       0.2627
      7  OD1      -10.9580   48.3640    6.9210 O.2    16  ASN16      -0.2716
      8  ND2       -9.6630   49.6840    5.6480 N.am   16  ASN16      -0.0877
      9  N        -13.5210   48.9670    4.3780 N.am   17  GLN17      -0.1965
     10  CA       -13.7710   48.8130    2.9480 C.3    17  GLN17       0.1733
     11  C        -15.1540   48.2160    2.6870 C.2    17  GLN17       0.2616
     12  O        -15.5440   47.2400    3.3240 O.2    17  GLN17      -0.2715
     13  CB       -12.6770   47.9450    2.3150 C.3    17  GLN17       0.0408
     14  CG       -12.7250   47.8770    0.8000 C.3    17  GLN17       0.0908
     15  CD       -12.7310   49.2530    0.1610 C.2    17  GLN17       0.2608
     16  OE1      -13.7550   49.7020   -0.3600 O.2    17  GLN17      -0.2717
     17  NE2      -11.5850   49.9310    0.1970 N.am   17  GLN17      -0.0878
     18  N        -15.8880   48.8050    1.7490 N.am   18  MET18      -0.1963
     19  CA       -17.2390   48.3510    1.4350 C.3    18  MET18       0.1736
     20  C        -17.4390   48.1870   -0.0680 C.2    18  MET18       0.2616
     21  O        -17.3990   49.1620   -0.8170 O.2    18  MET18      -0.2715
     22  CB       -18.2670   49.3420    1.9850 C.3    18  MET18       0.0427
     23  CG       -19.7070   49.0320    1.5940 C.3    18  MET18       0.0599
     24  SD       -20.4620   47.7750    2.6440 S.3    18  MET18      -0.1393
     25  CE       -20.7820   48.7280    4.1240 C.3    18  MET18       0.0692
     26  N        -17.6670   46.9540   -0.5050 N.am   19  VAL19      -0.1963
     27  CA       -17.8810   46.6670   -1.9210 C.3    19  VAL19       0.1727
     28  C        -19.3280   46.2300   -2.1880 C.2    19  VAL19       0.2616
     29  O        -19.8160   45.2640   -1.5970 O.2    19  VAL19      -0.2715
     30  CB       -16.9160   45.5720   -2.4160 C.3    19  VAL19       0.0290
     31  CG1      -17.1260   45.3030   -3.8940 C.3    19  VAL19       0.0023
     32  CG2      -15.4680   45.9640   -2.1260 C.3    19  VAL19       0.0023
     33  N        -20.0010   46.9330   -3.0920 N.am   20  VAL20      -0.1963
     34  CA       -21.4330   46.7550   -3.2890 C.3    20  VAL20       0.1727
     35  C        -21.7930   46.3330   -4.7070 C.2    20  VAL20       0.2616
     36  O        -21.2800   46.8900   -5.6820 O.2    20  VAL20      -0.2715
     37  CB       -22.1680   48.0530   -2.9520 C.3    20  VAL20       0.0290
     38  CG1      -23.6280   47.9700   -3.3490 C.3    20  VAL20       0.0023
     39  CG2      -22.0150   48.3650   -1.4700 C.3    20  VAL20       0.0023
     40  N        -22.6710   45.3420   -4.8180 N.am   21  HIS21      -0.1959
     41  CA       -23.1350   44.8940   -6.1180 C.3    21  HIS21       0.1787
     42  C        -24.6470   44.9100   -6.2090 C.2    21  HIS21       0.2620
     43  O        -25.3410   44.5330   -5.2730 O.2    21  HIS21      -0.2715
     44  CB       -22.6200   43.4890   -6.4350 C.3    21  HIS21       0.0785
     45  CG       -22.9220   43.0440   -7.8340 C.ar   21  HIS21       0.0821
     46  ND1      -23.6300   41.8940   -8.1150 N.ar   21  HIS21      -0.2267
     47  CD2      -22.6240   43.6020   -9.0330 C.ar   21  HIS21       0.1154
     48  CE1      -23.7510   41.7620   -9.4250 C.ar   21  HIS21       0.1986
     49  NE2      -23.1480   42.7860  -10.0050 N.ar   21  HIS21      -0.2212
     50  N        -25.1480   45.3540   -7.3510 N.am   22  TRP22      -0.1974
     51  CA       -26.5650   45.2470   -7.6720 C.3    22  TRP22       0.1640
     52  C        -26.7930   44.1230   -8.6890 C.2    22  TRP22       0.2290
     53  O        -26.3750   44.2490   -9.8380 O.2    22  TRP22      -0.2864
     54  CB       -27.0660   46.5520   -8.2950 C.3    22  TRP22       0.0576
     55  CG       -27.3680   47.6690   -7.3290 C.ar   22  TRP22       0.0006
     56  CD1      -28.5910   48.0020   -6.8170 C.ar   22  TRP22       0.0946
     57  CD2      -26.4380   48.6130   -6.7800 C.ar   22  TRP22       0.0152
     58  NE1      -28.4800   49.0840   -5.9810 N.ar   22  TRP22      -0.2442
     59  CE2      -27.1690   49.4760   -5.9380 C.ar   22  TRP22       0.0810
     60  CE3      -25.0570   48.8060   -6.9090 C.ar   22  TRP22       0.0012
     61  CZ2      -26.5690   50.5140   -5.2340 C.ar   22  TRP22       0.0191
     62  CZ3      -24.4620   49.8370   -6.2060 C.ar   22  TRP22       0.0001
     63  CH2      -25.2180   50.6760   -5.3790 C.ar   22  TRP22       0.0015
     64  N        -15.0350   44.6740    4.3330 N.3    35  ARG35      -0.1245
     65  CA       -13.7130   44.0780    4.5240 C.3    35  ARG35       0.1563
     66  C        -12.6620   45.1250    4.8800 C.2    35  ARG35       0.2260
     67  O        -12.9850   46.2930    5.0940 O.2    35  ARG35      -0.2867
     68  CB       -13.2740   43.3330    3.2610 C.3    35  ARG35       0.0307
     69  CG       -13.1160   44.2430    2.0610 C.3    35  ARG35       0.0489
     70  CD       -12.4250   43.5470    0.9030 C.3    35  ARG35       0.2205
     71  NE       -11.8840   44.5190   -0.0450 N.pl3  35  ARG35      -0.0865
     72  CZ       -12.1500   44.5310   -1.3470 C.cat  35  ARG35       0.5346
     73  NH1      -12.9470   43.6120   -1.8750 N.pl3  35  ARG35       0.1354
     74  NH2      -11.6120   45.4620   -2.1260 N.pl3  35  ARG35       0.1354
     75  N         -8.8940   47.1870    4.0180 N.3    37  SER37      -0.1217
     76  CA        -8.1460   47.7220    2.8800 C.3    37  SER37       0.1889
     77  C         -7.1160   46.7120    2.3840 C.2    37  SER37       0.2288
     78  O         -6.6670   45.8520    3.1440 O.2    37  SER37      -0.2866
     79  CB        -7.4570   49.0380    3.2510 C.3    37  SER37       0.2089
     80  OG        -8.4080   50.0510    3.5310 O.3    37  SER37      -0.2183
     81  N        -12.6450   38.6440   -1.9630 N.3    75  GLN75      -0.1231
     82  CA       -13.4220   39.2240   -3.0480 C.3    75  GLN75       0.1698
     83  C        -14.6330   38.3340   -3.3420 C.2    75  GLN75       0.2592
     84  O        -14.6530   37.1610   -2.9590 O.2    75  GLN75      -0.2718
     85  CB       -12.5380   39.3610   -4.2920 C.3    75  GLN75       0.0381
     86  CG       -13.0350   40.3530   -5.3370 C.3    75  GLN75       0.0905
     87  CD       -11.9600   40.7060   -6.3600 C.2    75  GLN75       0.2608
     88  OE1      -10.7680   40.4790   -6.1250 O.2    75  GLN75      -0.2717
     89  NE2      -12.3760   41.2610   -7.5010 N.am   75  GLN75      -0.0878
     90  N        -15.6490   38.8930   -3.9940 N.am   76  PHE76      -0.1976
     91  CA       -16.7550   38.0800   -4.4930 C.3    76  PHE76       0.1639
     92  C        -17.0110   38.3890   -5.9750 C.2    76  PHE76       0.2290
     93  O        -16.7930   39.5190   -6.4250 O.2    76  PHE76      -0.2864
     94  CB       -18.0200   38.2260   -3.6210 C.3    76  PHE76       0.0560
     95  CG       -18.7850   39.5010   -3.8440 C.ar   76  PHE76      -0.0200
     96  CD1      -18.4780   40.6480   -3.1290 C.ar   76  PHE76      -0.0042
     97  CD2      -19.8240   39.5480   -4.7610 C.ar   76  PHE76      -0.0042
     98  CE1      -19.1860   41.8210   -3.3360 C.ar   76  PHE76      -0.0003
     99  CE2      -20.5320   40.7160   -4.9700 C.ar   76  PHE76      -0.0003
    100  CZ       -20.2140   41.8520   -4.2580 C.ar   76  PHE76      -0.0000
    101  N        -19.4250   37.8950   -9.7270 N.3    78  HIS78      -0.1241
    102  CA       -20.7560   37.6800  -10.2740 C.3    78  HIS78       0.1621
    103  C        -20.6810   37.0990  -11.6820 C.2    78  HIS78       0.2264
    104  O        -19.6930   37.2900  -12.3880 O.2    78  HIS78      -0.2867
    105  CB       -21.5420   38.9920  -10.3010 C.3    78  HIS78       0.0745
    106  CG       -21.2570   39.8490  -11.4970 C.ar   78  HIS78       0.0817
    107  ND1      -20.1960   40.7310  -11.5510 N.ar   78  HIS78      -0.2268
    108  CD2      -21.9060   39.9740  -12.6810 C.ar   78  HIS78       0.1154
    109  CE1      -20.2000   41.3560  -12.7160 C.ar   78  HIS78       0.1986
    110  NE2      -21.2290   40.9160  -13.4200 N.ar   78  HIS78      -0.2212
    111  N        -10.6780   61.4050   -2.1470 N.3   380  ARG380     -0.1245
    112  CA       -12.0210   60.8920   -2.2040 C.3   380  ARG380      0.1563
    113  C        -12.8460   61.6500   -3.2280 C.2   380  ARG380      0.2260
    114  O        -14.0090   61.3240   -3.4570 O.2   380  ARG380     -0.2867
    115  CB       -12.6510   61.0230   -0.8280 C.3   380  ARG380      0.0307
    116  CG       -13.3880   59.8020   -0.3760 C.3   380  ARG380      0.0489
    117  CD       -14.1550   60.1160    0.8780 C.3   380  ARG380      0.2205
    118  NE       -13.3260   59.9990    2.0750 N.pl3 380  ARG380     -0.0865
    119  CZ       -13.1630   58.8710    2.7610 C.cat 380  ARG380      0.5346
    120  NH1      -13.7630   57.7660    2.3600 N.pl3 380  ARG380      0.1354
    121  NH2      -12.4000   58.8480    3.8460 N.pl3 380  ARG380      0.1354
    122  N        -19.5610   58.8540    2.9690 N.3   474  TYR474     -0.1227
    123  CA       -18.4340   58.2590    2.2550 C.3   474  TYR474      0.1736
    124  C        -18.7110   58.0060    0.7770 C.2   474  TYR474      0.2596
    125  O        -17.7930   57.7280    0.0090 O.2   474  TYR474     -0.2718
    126  CB       -17.9920   56.9640    2.9370 C.3   474  TYR474      0.0548
    127  CG       -17.5380   57.1880    4.3550 C.ar  474  TYR474     -0.0200
    128  CD1      -16.2140   57.4880    4.6400 C.ar  474  TYR474     -0.0009
    129  CD2      -18.4390   57.1280    5.4100 C.ar  474  TYR474     -0.0009
    130  CE1      -15.7980   57.7140    5.9390 C.ar  474  TYR474      0.0417
    131  CE2      -18.0320   57.3510    6.7150 C.ar  474  TYR474      0.0417
    132  CZ       -16.7130   57.6500    6.9720 C.ar  474  TYR474      0.1957
    133  OH       -16.3040   57.8640    8.2710 O.3   474  TYR474     -0.2866
    134  N        -19.9720   58.0990    0.3770 N.am  475  GLY475     -0.1957
    135  CA       -20.3110   57.8820   -1.0140 C.3   475  GLY475      0.1869
    136  C        -21.7770   58.0500   -1.3440 C.2   475  GLY475      0.2309
    137  O        -22.6360   57.8710   -0.4900 O.2   475  GLY475     -0.2863
    138  N        -24.3310   56.8070   -4.5170 N.3   477  LEU477     -0.1245
    139  CA       -24.3340   55.9330   -5.6900 C.3   477  LEU477      0.1561
    140  C        -25.7360   55.5950   -6.1910 C.2   477  LEU477      0.2260
    141  O        -26.7330   55.8000   -5.5010 O.2   477  LEU477     -0.2867
    142  CB       -23.6010   54.6280   -5.3760 C.3   477  LEU477      0.0270
    143  CG       -22.2480   54.6990   -4.6720 C.3   477  LEU477      0.0019
    144  CD1      -21.8060   53.3100   -4.2770 C.3   477  LEU477      0.0001
    145  CD2      -21.2250   55.3560   -5.5760 C.3   477  LEU477      0.0001
    146  N        -26.1200   50.8980  -11.3000 N.3   480  PRO480     -0.2116
    147  CA       -25.5150   51.2920  -12.5830 C.3   480  PRO480      0.1372
    148  C        -26.5380   51.3470  -13.7010 C.2   480  PRO480      0.2244
    149  O        -27.4840   50.5670  -13.6850 O.2   480  PRO480     -0.2868
    150  CB       -24.5100   50.1760  -12.8640 C.3   480  PRO480      0.0268
    151  CG       -24.1590   49.6240  -11.5340 C.3   480  PRO480      0.0207
    152  CD       -25.4200   49.7400  -10.7000 C.3   480  PRO480      0.0892
    153  N        -24.0930   56.1450    1.3160 N.3   490  PHE490     -0.1241
    154  CA       -23.2320   55.4330    2.2560 C.3   490  PHE490      0.1605
    155  C        -22.6330   56.4250    3.2210 C.2   490  PHE490      0.2264
    156  O        -22.2440   57.5170    2.8270 O.2   490  PHE490     -0.2867
    157  CB       -22.1120   54.6990    1.5370 C.3   490  PHE490      0.0534
    158  CG       -22.5880   53.5800    0.6890 C.ar  490  PHE490     -0.0203
    159  CD1      -23.1050   53.8270   -0.5710 C.ar  490  PHE490     -0.0042
    160  CD2      -22.5300   52.2780    1.1530 C.ar  490  PHE490     -0.0042
    161  CE1      -23.5450   52.7990   -1.3590 C.ar  490  PHE490     -0.0003
    162  CE2      -22.9690   51.2390    0.3710 C.ar  490  PHE490     -0.0003
    163  CZ       -23.4800   51.5000   -0.8910 C.ar  490  PHE490     -0.0000
    164  N        -17.5570   55.3760   12.9730 N.3   498  HIS498     -0.1241
    165  CA       -17.4070   54.3550   11.9570 C.3   498  HIS498      0.1621
    166  C        -18.2680   53.0980   12.1610 C.2   498  HIS498      0.2264
    167  O        -17.7710   51.9700   12.1800 O.2   498  HIS498     -0.2867
    168  CB       -15.9380   53.9920   11.7570 C.3   498  HIS498      0.0745
    169  CG       -15.7320   52.9750   10.6840 C.ar  498  HIS498      0.0817
    170  ND1      -16.4230   53.0070    9.4930 N.ar  498  HIS498     -0.2268
    171  CD2      -14.9720   51.8530   10.6520 C.ar  498  HIS498      0.1154
    172  CE1      -16.0590   51.9800    8.7500 C.ar  498  HIS498      0.1986
    173  NE2      -15.1800   51.2620    9.4270 N.ar  498  HIS498     -0.2212
    174  N        -20.9000   51.5510    9.8200 N.3   500  TRP500     -0.1241
    175  CA       -21.4540   51.6740    8.4710 C.3   500  TRP500      0.1605
    176  C        -22.9540   51.9300    8.5010 C.2   500  TRP500      0.2264
    177  O        -23.6630   51.4130    9.3640 O.2   500  TRP500     -0.2867
    178  CB       -21.1740   50.4210    7.6320 C.3   500  TRP500      0.0550
    179  CG       -19.8570   50.4330    6.9280 C.ar  500  TRP500      0.0003
    180  CD1      -18.8080   49.5900    7.1430 C.ar  500  TRP500      0.0946
    181  CD2      -19.4430   51.3340    5.8940 C.ar  500  TRP500      0.0152
    182  NE1      -17.7650   49.9090    6.3070 N.ar  500  TRP500     -0.2442
    183  CE2      -18.1290   50.9780    5.5310 C.ar  500  TRP500      0.0810
    184  CE3      -20.0550   52.4060    5.2400 C.ar  500  TRP500      0.0012
    185  CZ2      -17.4160   51.6560    4.5480 C.ar  500  TRP500      0.0191
    186  CZ3      -19.3430   53.0780    4.2610 C.ar  500  TRP500      0.0001
    187  CH2      -18.0390   52.6990    3.9260 C.ar  500  TRP500      0.0015
@<TRIPOS>BOND
     1   148   149    2
     2   148   147    1
     3   110   109   ar
     4   110   108   ar
     5   150   147    1
     6   150   151    1
     7   109   107   ar
     8   108   106   ar
     9   147   146    1
    10   104   103    2
    11   103   102    1
    12   107   106   ar
    13   151   152    1
    14   106   105    1
    15   146   152    1
    16   105   102    1
    17   102   101    1
    18    49    48   ar
    19    49    47   ar
    20    53    52    2
    21    48    46   ar
    22    47    45   ar
    23    52    51    1
    24    54    51    1
    25    54    55    1
    26    46    45   ar
    27    45    44    1
    28    51    50    1
    29    89    87   am
    30    50    42   am
    31    55    56   ar
    32    55    57   ar
    33    60    57   ar
    34    60    62   ar
    35    56    58   ar
    36    57    59   ar
    37    44    41    1
    38    93    92    2
    39    87    88    2
    40    87    86    1
    41    42    41    1
    42    42    43    2
    43    62    63   ar
    44   140   139    1
    45   140   141    2
    46    41    40    1
    47    58    59   ar
    48    92    91    1
    49    59    61   ar
    50   139   142    1
    51   139   138    1
    52    36    35    2
    53   145   143    1
    54    63    61   ar
    55   142   143    1
    56    86    85    1
    57    99    97   ar
    58    99   100   ar
    59    40    35   am
    60    97    95   ar
    61    35    34    1
    62   143   144    1
    63    91    90    1
    64    91    94    1
    65    85    82    1
    66   100    98   ar
    67    90    83   am
    68    31    30    1
    69    95    94    1
    70    95    96   ar
    71   114   113    2
    72    38    37    1
    73    83    82    1
    74    83    84    2
    75    98    96   ar
    76    34    33    1
    77    34    37    1
    78   113   112    1
    79    33    28   am
    80    82    81    1
    81    37    39    1
    82    30    32    1
    83    30    27    1
    84   112   111    1
    85   112   115    1
    86    28    27    1
    87    28    29    2
    88    74    72    1
    89    27    26    1
    90    73    72    1
    91   161   163   ar
    92   161   159   ar
    93    72    71    2
    94   136   135    1
    95   136   137    2
    96   135   134    1
    97   163   162   ar
    98   115   116    1
    99    21    20    2
   100   159   158   ar
   101    26    20   am
   102   116   117    1
   103    16    15    2
   104    20    19    1
   105    71    70    1
   106   125   124    2
   107    15    17   am
   108    15    14    1
   109   162   160   ar
   110   134   124   am
   111   158   160   ar
   112   158   157    1
   113   124   123    1
   114    14    13    1
   115   117   118    1
   116    70    69    1
   117   153   154    1
   118    19    18    1
   119    19    22    1
   120   157   154    1
   121    23    22    1
   122    23    24    1
   123    18    11   am
   124    69    68    1
   125   118   119    2
   126   123   126    1
   127   123   122    1
   128   154   155    1
   129    13    10    1
   130   120   119    1
   131    77    76    1
   132    77    78    2
   133    24    25    1
   134    11    10    1
   135    11    12    2
   136   119   121    1
   137   156   155    2
   138    76    79    1
   139    76    75    1
   140   126   127    1
   141    10     9    1
   142    79    80    1
   143    68    65    1
   144   187   186   ar
   145   187   185   ar
   146   186   184   ar
   147    64    65    1
   148   127   128   ar
   149   127   129   ar
   150     4     3    2
   151     9     3   am
   152    65    66    1
   153   185   183   ar
   154   128   130   ar
   155    66    67    2
   156     3     2    1
   157   184   181   ar
   158   129   131   ar
   159   183   181   ar
   160   183   182   ar
   161     8     6   am
   162   181   179   ar
   163   130   132   ar
   164   182   180   ar
   165     6     5    1
   166     6     7    2
   167     2     5    1
   168     2     1    1
   169   131   132   ar
   170   179   180   ar
   171   179   178    1
   172   132   133    1
   173   178   175    1
   174   175   176    1
   175   175   174    1
   176   176   177    2
   177   172   173   ar
   178   172   170   ar
   179   173   171   ar
   180   170   169   ar
   181   171   169   ar
   182   169   168    1
   183   168   165    1
   184   165   166    1
   185   165   164    1
   186   166   167    2
