@<TRIPOS>MOLECULE
tmp/3wt0D00.pdb
 217 203 0 0 0
SMALL
GASTEIGER

@<TRIPOS>ATOM
      1  N         20.5190  -35.1750   -2.7140 N.3     8  ASP8       -0.1225
      2  CA        20.8240  -33.8670   -2.1650 C.3     8  ASP8        0.1805
      3  C         22.3530  -33.7470   -2.1250 C.2     8  ASP8        0.2598
      4  O         23.0010  -34.4170   -1.3260 O.2     8  ASP8       -0.2718
      5  CB        20.1990  -33.7440   -0.7690 C.3     8  ASP8        0.1424
      6  CG        20.6040  -32.4780   -0.0210 C.2     8  ASP8        0.3668
      7  OD1       21.4180  -31.6780   -0.5200 O.co2   8  ASP8       -0.2456
      8  OD2       20.1040  -32.2990    1.1100 O.co2   8  ASP8       -0.2456
      9  N         22.9230  -32.9030   -2.9830 N.am    9  ILE9       -0.1966
     10  CA        24.3740  -32.7140   -3.0330 C.3     9  ILE9        0.1727
     11  C         24.7870  -31.6080   -2.0610 C.2     9  ILE9        0.2617
     12  O         24.9580  -30.4540   -2.4510 O.2     9  ILE9       -0.2715
     13  CB        24.8610  -32.3650   -4.4620 C.3     9  ILE9        0.0290
     14  CG1       24.3590  -33.3890   -5.4780 C.3     9  ILE9        0.0022
     15  CG2       26.3850  -32.3040   -4.5100 C.3     9  ILE9        0.0023
     16  CD1       24.6070  -32.9790   -6.9190 C.3     9  ILE9        0.0001
     17  N         24.9230  -31.9690   -0.7890 N.am   10  GLY10      -0.1940
     18  CA        25.2220  -31.0030    0.2530 C.3    10  GLY10       0.2014
     19  C         26.6960  -30.6960    0.4400 C.2    10  GLY10       0.2640
     20  O         27.5600  -31.5080    0.1050 O.2    10  GLY10      -0.2714
     21  N         26.9730  -29.5090    0.9770 N.am   11  SER11      -0.1935
     22  CA        28.3330  -29.0960    1.3060 C.3    11  SER11       0.2055
     23  C         28.9730  -29.9980    2.3560 C.2    11  SER11       0.2644
     24  O         30.1860  -30.1940    2.3540 O.2    11  SER11      -0.2714
     25  CB        28.3580  -27.6450    1.7930 C.3    11  SER11       0.2130
     26  OG        27.7980  -26.7680    0.8320 O.3    11  SER11      -0.2179
     27  N         28.1670  -30.5380    3.2640 N.am   12  SER12      -0.1935
     28  CA        28.7090  -31.4320    4.2830 C.3    12  SER12       0.2055
     29  C         28.6350  -32.8810    3.8130 C.2    12  SER12       0.2643
     30  O         29.6100  -33.6220    3.9130 O.2    12  SER12      -0.2714
     31  CB        27.9740  -31.2730    5.6150 C.3    12  SER12       0.2130
     32  OG        28.1370  -32.4280    6.4280 O.3    12  SER12      -0.2179
     33  N         27.4740  -33.2960    3.3230 N.am   13  SER13      -0.1949
     34  CA        27.3330  -34.6630    2.8430 C.3    13  SER13       0.1924
     35  C         26.3150  -34.7950    1.7170 C.2    13  SER13       0.2314
     36  O         25.3380  -34.0490    1.6470 O.2    13  SER13      -0.2863
     37  CB        26.9400  -35.5910    3.9940 C.3    13  SER13       0.2116
     38  OG        25.6800  -35.2310    4.5320 O.3    13  SER13      -0.2180
     39  N         23.2960  -36.8030    0.2690 N.3    15  LYS15      -0.1245
     40  CA        22.2190  -37.5850    0.8580 C.3    15  LYS15       0.1561
     41  C         21.3300  -38.1690   -0.2210 C.2    15  LYS15       0.2260
     42  O         20.9200  -37.4740   -1.1360 O.2    15  LYS15      -0.2867
     43  CB        21.3710  -36.7210    1.7970 C.3    15  LYS15       0.0271
     44  CG        21.8660  -36.6520    3.2270 C.3    15  LYS15       0.0035
     45  CD        22.7650  -35.4570    3.4660 C.3    15  LYS15       0.0206
     46  CE        21.9880  -34.1610    3.5780 C.3    15  LYS15       0.1093
     47  NZ        22.8960  -32.9920    3.3740 N.3    15  LYS15      -0.1314
     48  N         24.3790  -41.7490    2.7440 N.3    33  GLN33      -0.1245
     49  CA        24.9740  -40.4890    3.1630 C.3    33  GLN33       0.1566
     50  C         26.4870  -40.5850    3.1080 C.2    33  GLN33       0.2260
     51  O         27.0740  -41.5240    3.6410 O.2    33  GLN33      -0.2867
     52  CB        24.5210  -40.1060    4.5740 C.3    33  GLN33       0.0367
     53  CG        24.9910  -38.7250    5.0110 C.3    33  GLN33       0.0905
     54  CD        24.5100  -38.3450    6.3980 C.2    33  GLN33       0.2608
     55  OE1       24.1620  -39.2050    7.2040 O.2    33  GLN33      -0.2717
     56  NE2       24.5030  -37.0480    6.6880 N.am   33  GLN33      -0.0878
     57  N         29.9580  -38.0710    3.5660 N.3    35  TYR35      -0.1241
     58  CA        30.5930  -36.8010    3.8640 C.3    35  TYR35       0.1605
     59  C         31.6900  -36.5640    2.8450 C.2    35  TYR35       0.2264
     60  O         32.4400  -37.4800    2.5120 O.2    35  TYR35      -0.2867
     61  CB        31.1550  -36.8030    5.2870 C.3    35  TYR35       0.0534
     62  CG        30.0780  -36.8550    6.3470 C.ar   35  TYR35      -0.0201
     63  CD1       29.4760  -35.6940    6.8160 C.ar   35  TYR35      -0.0009
     64  CD2       29.6500  -38.0710    6.8680 C.ar   35  TYR35      -0.0009
     65  CE1       28.4790  -35.7430    7.7810 C.ar   35  TYR35       0.0417
     66  CE2       28.6590  -38.1300    7.8320 C.ar   35  TYR35       0.0417
     67  CZ        28.0780  -36.9650    8.2850 C.ar   35  TYR35       0.1957
     68  OH        27.0940  -37.0330    9.2450 O.3    35  TYR35      -0.2866
     69  N         27.5130  -25.0310   -1.3750 N.3    42  GLY42      -0.1225
     70  CA        26.4400  -25.6320   -2.1460 C.3    42  GLY42       0.1811
     71  C         26.7610  -25.9070   -3.6020 C.2    42  GLY42       0.2280
     72  O         25.9080  -26.3970   -4.3390 O.2    42  GLY42      -0.2866
     73  N         17.7060  -32.3690   -6.1190 N.3    75  LYS75      -0.1245
     74  CA        17.3680  -31.0780   -5.5500 C.3    75  LYS75       0.1561
     75  C         18.3870  -30.0570   -6.0220 C.2    75  LYS75       0.2260
     76  O         19.5480  -30.3890   -6.2650 O.2    75  LYS75      -0.2867
     77  CB        17.3150  -31.1350   -4.0110 C.3    75  LYS75       0.0271
     78  CG        18.6610  -30.9390   -3.2740 C.3    75  LYS75       0.0035
     79  CD        18.9440  -29.4560   -2.9940 C.3    75  LYS75       0.0206
     80  CE        20.0400  -29.2490   -1.9730 C.3    75  LYS75       0.1093
     81  NZ        19.4820  -29.3250   -0.5940 N.3    75  LYS75      -0.1314
     82  N         16.6220  -23.4040    6.6370 N.3   204  ASP204     -0.1239
     83  CA        17.4650  -24.5870    6.5490 C.3   204  ASP204      0.1674
     84  C         18.9100  -24.2140    6.8500 C.2   204  ASP204      0.2266
     85  O         19.5700  -23.6000    6.0310 O.2   204  ASP204     -0.2867
     86  CB        17.3440  -25.1930    5.1400 C.3   204  ASP204      0.1410
     87  CG        18.2970  -26.3650    4.8940 C.2   204  ASP204      0.3668
     88  OD1       18.9330  -26.8590    5.8460 O.co2 204  ASP204     -0.2456
     89  OD2       18.4210  -26.7760    3.7200 O.co2 204  ASP204     -0.2456
     90  N         22.3980  -25.5010    6.9970 N.3   206  GLY206     -0.1210
     91  CA        23.2440  -26.6160    6.6160 C.3   206  GLY206      0.1956
     92  C         24.6500  -26.4200    7.1420 C.2   206  GLY206      0.2612
     93  O         24.8300  -26.0700    8.3050 O.2   206  GLY206     -0.2717
     94  N         25.6450  -26.6440    6.2900 N.am  207  GLU207     -0.1965
     95  CA        27.0450  -26.4570    6.6700 C.3   207  GLU207      0.1733
     96  C         27.6230  -25.1430    6.1380 C.2   207  GLU207      0.2616
     97  O         28.1930  -24.3520    6.8880 O.2   207  GLU207     -0.2715
     98  CB        27.9070  -27.6110    6.1800 C.3   207  GLU207      0.0429
     99  CG        29.3860  -27.3730    6.4710 C.3   207  GLU207      0.1163
    100  CD        30.2450  -28.6020    6.2930 C.2   207  GLU207      0.3649
    101  OE1       30.5770  -29.2440    7.3120 O.co2 207  GLU207     -0.2457
    102  OE2       30.6310  -28.8970    5.1440 O.co2 207  GLU207     -0.2457
    103  N         27.4920  -24.9170    4.8360 N.am  208  ASP208     -0.1957
    104  CA        27.9960  -23.6880    4.2510 C.3   208  ASP208      0.1840
    105  C         26.8560  -22.7280    3.9550 C.2   208  ASP208      0.2621
    106  O         27.0440  -21.5120    3.9450 O.2   208  ASP208     -0.2715
    107  CB        28.7660  -23.9910    2.9700 C.3   208  ASP208      0.1450
    108  CG        30.1080  -24.6270    3.2350 C.2   208  ASP208      0.3671
    109  OD1       30.5110  -24.6990    4.4140 O.co2 208  ASP208     -0.2456
    110  OD2       30.7580  -25.0620    2.2600 O.co2 208  ASP208     -0.2456
    111  N         25.6650  -23.2780    3.7380 N.am  209  VAL209     -0.1977
    112  CA        24.5290  -22.4750    3.3070 C.3   209  VAL209      0.1596
    113  C         23.3650  -22.5190    4.2920 C.2   209  VAL209      0.2287
    114  O         23.0060  -23.5800    4.8010 O.2   209  VAL209     -0.2864
    115  CB        24.0180  -22.9430    1.9190 C.3   209  VAL209      0.0276
    116  CG1       22.9220  -22.0210    1.3920 C.3   209  VAL209      0.0022
    117  CG2       25.1690  -23.0380    0.9240 C.3   209  VAL209      0.0022
    118  N         19.4050  -21.6300    4.0150 N.3   211  GLN211     -0.1245
    119  CA        18.3600  -21.2980    3.0590 C.3   211  GLN211      0.1566
    120  C         17.1030  -20.7640    3.7280 C.2   211  GLN211      0.2260
    121  O         16.7360  -21.1930    4.8180 O.2   211  GLN211     -0.2867
    122  CB        18.0340  -22.5280    2.2110 C.3   211  GLN211      0.0367
    123  CG        19.1980  -22.9770    1.3470 C.3   211  GLN211      0.0905
    124  CD        18.8290  -24.0860    0.3980 C.2   211  GLN211      0.2608
    125  OE1       19.2450  -24.0860   -0.7560 O.2   211  GLN211     -0.2717
    126  NE2       18.0840  -25.0640    0.8890 N.am  211  GLN211     -0.0878
    127  N         26.5740  -24.0120    9.6020 N.3   230  GLY230     -0.1210
    128  CA        27.2970  -24.8630   10.5400 C.3   230  GLY230      0.1956
    129  C         28.8170  -24.7890   10.5360 C.2   230  GLY230      0.2611
    130  O         29.4620  -24.8490   11.5940 O.2   230  GLY230     -0.2717
    131  N         29.4000  -24.6550    9.3480 N.am  231  ARG231     -0.1979
    132  CA        30.8520  -24.5570    9.2410 C.3   231  ARG231      0.1597
    133  C         31.3800  -23.3410    9.9890 C.2   231  ARG231      0.2287
    134  O         32.4460  -23.3970   10.5920 O.2   231  ARG231     -0.2864
    135  CB        31.2980  -24.4930    7.7780 C.3   231  ARG231      0.0334
    136  CG        32.7900  -24.2010    7.6180 C.3   231  ARG231      0.0492
    137  CD        33.2110  -24.0930    6.1600 C.3   231  ARG231      0.2205
    138  NE        33.1330  -25.3750    5.4680 N.pl3 231  ARG231     -0.0865
    139  CZ        34.0710  -26.3140    5.5340 C.cat 231  ARG231      0.5346
    140  NH1       35.1630  -26.1190    6.2650 N.pl3 231  ARG231      0.1354
    141  NH2       33.9180  -27.4500    4.8690 N.pl3 231  ARG231      0.1354
    142  N         34.5420  -29.6390   15.5300 N.3   249  GLU249     -0.1245
    143  CA        33.3480  -30.2650   14.9550 C.3   249  GLU249      0.1567
    144  C         32.7770  -31.3180   15.8970 C.2   249  GLU249      0.2260
    145  O         31.5600  -31.3220   16.1990 O.2   249  GLU249     -0.2867
    146  CB        33.6840  -30.8890   13.5920 C.3   249  GLU249      0.0388
    147  CG        32.5200  -31.5660   12.8440 C.3   249  GLU249      0.1160
    148  CD        31.5660  -30.5940   12.1580 C.2   249  GLU249      0.3649
    149  OE1       31.6840  -29.3640   12.3500 O.co2 249  GLU249     -0.2457
    150  OE2       30.7130  -31.0660   11.3750 O.co2 249  GLU249     -0.2457
    151  N         31.2780  -29.6620   18.8440 N.3   252  LYS252     -0.1231
    152  CA        30.0020  -29.0640   18.4680 C.3   252  LYS252      0.1693
    153  C         28.8850  -30.0940   18.5400 C.2   252  LYS252      0.2592
    154  O         27.7900  -29.7910   19.0250 O.2   252  LYS252     -0.2718
    155  CB        30.0630  -28.4510   17.0710 C.3   252  LYS252      0.0285
    156  CG        28.8110  -27.6630   16.7070 C.3   252  LYS252      0.0035
    157  CD        28.9220  -27.0510   15.3240 C.3   252  LYS252      0.0206
    158  CE        29.0240  -28.1220   14.2650 C.3   252  LYS252      0.1093
    159  NZ        28.8820  -27.5470   12.8940 N.3   252  LYS252     -0.1314
    160  N         29.1530  -31.3060   18.0590 N.am  253  HIS253     -0.1976
    161  CA        28.1320  -32.3580   18.1280 C.3   253  HIS253      0.1656
    162  C         27.8460  -32.8070   19.5640 C.2   253  HIS253      0.2291
    163  O         26.6880  -32.8950   19.9810 O.2   253  HIS253     -0.2864
    164  CB        28.5580  -33.5780   17.3090 C.3   253  HIS253      0.0771
    165  CG        28.4220  -33.4010   15.8300 C.ar  253  HIS253      0.0820
    166  ND1       29.1340  -32.4570   15.1220 N.ar  253  HIS253     -0.2267
    167  CD2       27.6880  -34.0780   14.9170 C.ar  253  HIS253      0.1154
    168  CE1       28.8240  -32.5390   13.8440 C.ar  253  HIS253      0.1986
    169  NE2       27.9480  -33.5200   13.6890 N.ar  253  HIS253     -0.2212
    170  N         17.4890  -28.8490    8.6350 N.3   322  GLY322     -0.1210
    171  CA        18.8600  -28.9890    8.1830 C.3   322  GLY322      0.1956
    172  C         19.7200  -29.5270    9.3090 C.2   322  GLY322      0.2612
    173  O         19.2860  -29.5560   10.4590 O.2   322  GLY322     -0.2717
    174  N         20.9300  -29.9740    8.9840 N.am  323  GLY323     -0.1942
    175  CA        21.8100  -30.5780    9.9750 C.3   323  GLY323      0.2014
    176  C         22.0990  -29.7660   11.2260 C.2   323  GLY323      0.2639
    177  O         22.1480  -30.3180   12.3320 O.2   323  GLY323     -0.2714
    178  N         22.2470  -28.4530   11.0730 N.am  324  SER324     -0.1949
    179  CA        22.5560  -27.5940   12.2170 C.3   324  SER324      0.1924
    180  C         21.3650  -27.4230   13.1490 C.2   324  SER324      0.2314
    181  O         21.5080  -26.9260   14.2660 O.2   324  SER324     -0.2863
    182  CB        23.0650  -26.2300   11.7530 C.3   324  SER324      0.2116
    183  OG        24.3440  -26.3450   11.1480 O.3   324  SER324     -0.2180
    184  N         20.1620  -29.7710   14.4690 N.3   326  ASN326     -0.1225
    185  CA        20.4190  -30.8020   15.4760 C.3   326  ASN326      0.1785
    186  C         21.0210  -30.1950   16.7360 C.2   326  ASN326      0.2597
    187  O         21.0100  -30.8060   17.8060 O.2   326  ASN326     -0.2718
    188  CB        21.3750  -31.8660   14.9450 C.3   326  ASN326      0.1169
    189  CG        20.6840  -32.9040   14.1000 C.2   326  ASN326      0.2627
    190  OD1       19.7450  -33.5580   14.5450 O.2   326  ASN326     -0.2716
    191  ND2       21.1660  -33.0850   12.8760 N.am  326  ASN326     -0.0877
    192  N         21.5210  -28.9720   16.5940 N.am  327  LEU327     -0.1980
    193  CA        22.1750  -28.2550   17.6810 C.3   327  LEU327      0.1596
    194  C         21.1790  -27.9000   18.7720 C.2   327  LEU327      0.2287
    195  O         20.0870  -27.4110   18.4970 O.2   327  LEU327     -0.2864
    196  CB        22.8560  -27.0020   17.1280 C.3   327  LEU327      0.0297
    197  CG        23.7210  -26.0730   17.9770 C.3   327  LEU327      0.0022
    198  CD1       24.9340  -26.7840   18.5620 C.3   327  LEU327      0.0001
    199  CD2       24.1480  -24.9230   17.0860 C.3   327  LEU327      0.0001
    200  N         16.0730  -37.4640   10.9130 N.3   354  LYS354     -0.1245
    201  CA        17.1160  -36.4830   11.2050 C.3   354  LYS354      0.1561
    202  C         16.8370  -35.2710   10.3260 C.2   354  LYS354      0.2260
    203  O         16.5350  -35.4330    9.1430 O.2   354  LYS354     -0.2867
    204  CB        18.5080  -37.0460   10.9250 C.3   354  LYS354      0.0271
    205  CG        19.0130  -38.0590   11.9420 C.3   354  LYS354      0.0035
    206  CD        20.5360  -38.1780   11.8710 C.3   354  LYS354      0.0206
    207  CE        21.2540  -37.0380   12.5840 C.3   354  LYS354      0.1093
    208  NZ        20.9000  -36.9470   14.0250 N.3   354  LYS354     -0.1314
    209  N         18.6200  -33.2300    8.7390 N.3   356  GLU356     -0.1245
    210  CA        19.4250  -33.0640    7.5280 C.3   356  GLU356      0.1567
    211  C         18.8040  -33.7620    6.3210 C.2   356  GLU356      0.2260
    212  O         19.1780  -33.4850    5.1840 O.2   356  GLU356     -0.2867
    213  CB        20.8710  -33.5420    7.7170 C.3   356  GLU356      0.0388
    214  CG        21.0580  -34.8730    8.4080 C.3   356  GLU356      0.1160
    215  CD        21.3480  -34.7090    9.8870 C.2   356  GLU356      0.3649
    216  OE1       20.4650  -34.2200   10.6190 O.co2 356  GLU356     -0.2457
    217  OE2       22.4740  -35.0480   10.3120 O.co2 356  GLU356     -0.2457
@<TRIPOS>BOND
     1    16    14    1
     2    76    75    2
     3    73    74    1
     4    75    74    1
     5    74    77    1
     6    14    13    1
     7    15    13    1
     8    13    10    1
     9    72    71    2
    10    77    78    1
    11    71    70    1
    12    78    79    1
    13    10     9    1
    14    10    11    1
    15    79    80    1
    16     9     3   am
    17     1     2    1
    18    12    11    2
    19     2     3    1
    20     2     5    1
    21    70    69    1
    22     3     4    2
    23    11    17   am
    24    80    81    1
    25    42    41    2
    26    17    18    1
    27     5     6    1
    28   125   124    2
    29     7     6   ar
    30    41    40    1
    31     6     8   ar
    32    20    19    2
    33    18    19    1
    34    39    40    1
    35   124   126   am
    36   124   123    1
    37    19    21   am
    38    26    25    1
    39    40    43    1
    40   117   115    1
    41    21    22    1
    42    22    25    1
    43    22    23    1
    44   123   122    1
    45   116   115    1
    46    36    35    2
    47    35    34    1
    48    43    44    1
    49   115   112    1
    50   122   119    1
    51   110   108   ar
    52    24    23    2
    53    23    27   am
    54    60    59    2
    55    48    49    1
    56    34    33    1
    57    34    37    1
    58    59    58    1
    59   107   108    1
    60   107   104    1
    61   119   120    1
    62   119   118    1
    63    50    49    1
    64    50    51    2
    65    49    52    1
    66    44    45    1
    67   108   109   ar
    68    27    28    1
    69   112   111    1
    70   112   113    1
    71    33    29   am
    72    47    46    1
    73    45    46    1
    74    57    58    1
    75    89    87   ar
    76   120   121    2
    77   111   105   am
    78    29    30    2
    79    29    28    1
    80    58    61    1
    81   106   105    2
    82   105   104    1
    83    37    38    1
    84   104   103    1
    85    28    31    1
    86   113   114    2
    87    52    53    1
    88   103    96   am
    89   141   139    1
    90    87    86    1
    91    87    88   ar
    92    53    54    1
    93    86    83    1
    94   102   100   ar
    95   212   211    2
    96    61    62    1
    97   138   139    2
    98   138   137    1
    99   139   140    1
   100    31    32    1
   101    85    84    2
   102    96    95    1
   103    96    97    2
   104   137   136    1
   105    98    99    1
   106    98    95    1
   107    94    95    1
   108    94    92   am
   109   100    99    1
   110   100   101   ar
   111   211   210    1
   112    62    63   ar
   113    62    64   ar
   114    54    56   am
   115    54    55    2
   116    83    82    1
   117    83    84    1
   118    91    90    1
   119    91    92    1
   120    63    65   ar
   121    64    66   ar
   122    92    93    2
   123   210   213    1
   124   210   209    1
   125   136   135    1
   126   213   214    1
   127   135   132    1
   128    65    67   ar
   129    66    67   ar
   130   171   170    1
   131   171   172    1
   132    67    68    1
   133   214   215    1
   134   174   172   am
   135   174   175    1
   136   203   202    2
   137   132   131    1
   138   132   133    1
   139   172   173    2
   140   131   129   am
   141   127   128    1
   142   215   217   ar
   143   215   216   ar
   144   175   176    1
   145   133   134    2
   146   202   201    1
   147   129   128    1
   148   129   130    2
   149   200   201    1
   150   204   201    1
   151   204   205    1
   152   178   176   am
   153   178   179    1
   154   183   182    1
   155   176   177    2
   156   150   148   ar
   157   182   179    1
   158   206   205    1
   159   206   207    1
   160   148   149   ar
   161   148   147    1
   162   179   180    1
   163   207   208    1
   164   147   146    1
   165   191   189   am
   166   159   158    1
   167   180   181    2
   168   146   143    1
   169   169   168   ar
   170   169   167   ar
   171   168   166   ar
   172   189   190    2
   173   189   188    1
   174   158   157    1
   175   184   185    1
   176   167   165   ar
   177   188   185    1
   178   143   142    1
   179   143   144    1
   180   166   165   ar
   181   157   156    1
   182   185   186    1
   183   165   164    1
   184   144   145    2
   185   192   186   am
   186   192   193    1
   187   156   155    1
   188   186   187    2
   189   155   152    1
   190   199   197    1
   191   196   193    1
   192   196   197    1
   193   164   161    1
   194   193   194    1
   195   197   198    1
   196   160   161    1
   197   160   153   am
   198   161   162    1
   199   152   153    1
   200   152   151    1
   201   195   194    2
   202   153   154    2
   203   162   163    2
