@<TRIPOS>MOLECULE
tmp/3wt6A01.pdb
 242 231 0 0 0
SMALL
GASTEIGER

@<TRIPOS>ATOM
      1  N         16.9610    6.8290   46.9460 N.3    21  TYR21      -0.1241
      2  CA        16.4440    7.6750   48.0190 C.3    21  TYR21       0.1605
      3  C         16.5940    9.1300   47.6190 C.2    21  TYR21       0.2264
      4  O         17.6880    9.6890   47.6790 O.2    21  TYR21      -0.2867
      5  CB        17.2220    7.4940   49.3330 C.3    21  TYR21       0.0534
      6  CG        16.4610    8.1120   50.5110 C.ar   21  TYR21      -0.0201
      7  CD1       16.5070    9.5020   50.7810 C.ar   21  TYR21      -0.0009
      8  CD2       15.7190    7.3080   51.3800 C.ar   21  TYR21      -0.0009
      9  CE1       15.7960   10.0220   51.8340 C.ar   21  TYR21       0.0417
     10  CE2       15.0490    7.8470   52.4340 C.ar   21  TYR21       0.0417
     11  CZ        15.0670    9.2050   52.6630 C.ar   21  TYR21       0.1957
     12  OH        14.3210    9.7160   53.7710 O.3    21  TYR21      -0.2866
     13  N         11.7720   13.9920   48.1550 N.3    25  TYR25      -0.1241
     14  CA        10.4920   13.3020   48.2380 C.3    25  TYR25       0.1605
     15  C          9.4930   13.7500   47.1900 C.2    25  TYR25       0.2264
     16  O          8.3000   13.7100   47.4730 O.2    25  TYR25      -0.2867
     17  CB         9.9100   13.4890   49.6440 C.3    25  TYR25       0.0534
     18  CG        10.9340   13.1670   50.6760 C.ar   25  TYR25      -0.0201
     19  CD1       11.2950   11.8620   50.9140 C.ar   25  TYR25      -0.0009
     20  CD2       11.6690   14.1950   51.3480 C.ar   25  TYR25      -0.0009
     21  CE1       12.2720   11.5700   51.8560 C.ar   25  TYR25       0.0417
     22  CE2       12.6530   13.8840   52.2880 C.ar   25  TYR25       0.0417
     23  CZ        12.9660   12.5760   52.5090 C.ar   25  TYR25       0.1957
     24  OH        13.9480   12.2070   53.4100 O.3    25  TYR25      -0.2866
     25  N          6.2280   11.6220   46.1340 N.3    28  PHE28      -0.1241
     26  CA         5.1490   11.5630   47.1160 C.3    28  PHE28       0.1605
     27  C          3.8490   12.2200   46.6430 C.2    28  PHE28       0.2264
     28  O          2.7700   11.8440   47.1100 O.2    28  PHE28      -0.2867
     29  CB         5.5750   12.1810   48.4650 C.3    28  PHE28       0.0534
     30  CG         6.4780   11.2930   49.3080 C.ar   28  PHE28      -0.0203
     31  CD1        7.4680   10.4590   48.7050 C.ar   28  PHE28      -0.0042
     32  CD2        6.4110   11.3490   50.6930 C.ar   28  PHE28      -0.0042
     33  CE1        8.3390    9.7150   49.4940 C.ar   28  PHE28      -0.0003
     34  CE2        7.2460   10.5870   51.4820 C.ar   28  PHE28      -0.0003
     35  CZ         8.2280    9.7730   50.8790 C.ar   28  PHE28      -0.0000
     36  N         -0.2000    6.1300   53.4000 N.3    46  LEU46      -0.1245
     37  CA         0.9110    5.4460   54.0110 C.3    46  LEU46       0.1561
     38  C          1.1330    4.0470   53.3300 C.2    46  LEU46       0.2260
     39  O          2.2740    3.5540   53.2620 O.2    46  LEU46      -0.2867
     40  CB         0.7520    5.3190   55.5530 C.3    46  LEU46       0.0270
     41  CG         0.9020    6.6120   56.4020 C.3    46  LEU46       0.0019
     42  CD1        0.8550    6.3630   57.9210 C.3    46  LEU46       0.0001
     43  CD2        2.1420    7.4470   56.0260 C.3    46  LEU46       0.0001
     44  N          3.1740    4.8510   50.3690 N.3    49  LEU49      -0.1231
     45  CA         4.4890    5.2210   50.8310 C.3    49  LEU49       0.1693
     46  C          5.2840    3.9500   51.1410 C.2    49  LEU49       0.2591
     47  O          6.4150    3.8070   50.7510 O.2    49  LEU49      -0.2718
     48  CB         4.4010    6.0820   52.0970 C.3    49  LEU49       0.0284
     49  CG         5.5230    7.0230   52.5260 C.3    49  LEU49       0.0019
     50  CD1        5.4960    7.2680   54.0280 C.3    49  LEU49       0.0001
     51  CD2        6.9180    6.6540   52.0460 C.3    49  LEU49       0.0001
     52  N          4.6590    3.0290   51.8660 N.am   50  VAL50      -0.1980
     53  CA         5.2800    1.7670   52.1380 C.3    50  VAL50       0.1595
     54  C          5.6100    1.0020   50.8410 C.2    50  VAL50       0.2287
     55  O          6.7400    0.4740   50.7150 O.2    50  VAL50      -0.2864
     56  CB         4.4650    0.9320   53.0990 C.3    50  VAL50       0.0276
     57  CG1        4.9450   -0.4860   53.1000 C.3    50  VAL50       0.0022
     58  CG2        4.5310    1.5600   54.5170 C.3    50  VAL50       0.0022
     59  N          5.9530    2.0980   47.6070 N.3    52  TYR52      -0.1227
     60  CA         7.0140    2.8230   47.0120 C.3    52  TYR52       0.1736
     61  C          8.3470    2.4950   47.7040 C.2    52  TYR52       0.2596
     62  O          9.3460    2.2560   47.0400 O.2    52  TYR52      -0.2718
     63  CB         6.6870    4.3210   47.1120 C.3    52  TYR52       0.0548
     64  CG         7.7750    5.2930   46.6390 C.ar   52  TYR52      -0.0200
     65  CD1        7.8550    5.6590   45.2990 C.ar   52  TYR52      -0.0009
     66  CD2        8.7070    5.8000   47.4990 C.ar   52  TYR52      -0.0009
     67  CE1        8.8470    6.5150   44.8240 C.ar   52  TYR52       0.0417
     68  CE2        9.7000    6.7090   47.0280 C.ar   52  TYR52       0.0417
     69  CZ         9.7340    7.0350   45.7170 C.ar   52  TYR52       0.1957
     70  OH        10.6330    7.9270   45.3030 O.3    52  TYR52      -0.2866
     71  N          8.3940    2.4990   49.0160 N.am   53  SER53      -0.1952
     72  CA         9.6040    2.2810   49.7660 C.3    53  SER53       0.1924
     73  C         10.0850    0.8550   49.4560 C.2    53  SER53       0.2314
     74  O         11.3190    0.6120   49.3860 O.2    53  SER53      -0.2863
     75  CB         9.3170    2.4440   51.2600 C.3    53  SER53       0.2116
     76  OG         9.0200    3.7730   51.5610 O.3    53  SER53      -0.2180
     77  N         10.4920   -4.5100   55.8330 N.3    84  ILE84      -0.1245
     78  CA         9.9510   -3.6110   56.8170 C.3    84  ILE84       0.1561
     79  C         11.0490   -2.9790   57.6500 C.2    84  ILE84       0.2260
     80  O         10.9390   -1.7970   58.0810 O.2    84  ILE84      -0.2867
     81  CB         8.9110   -4.3160   57.7350 C.3    84  ILE84       0.0252
     82  CG1        8.2340   -3.2800   58.6450 C.3    84  ILE84       0.0019
     83  CG2        9.5210   -5.3620   58.5800 C.3    84  ILE84       0.0019
     84  CD1        7.5870   -2.2160   57.8190 C.3    84  ILE84       0.0001
     85  N         12.9220   -0.2730   55.5740 N.3    87  ILE87      -0.1231
     86  CA        12.0170    0.8740   55.5560 C.3    87  ILE87       0.1692
     87  C         12.1350    1.6950   56.7710 C.2    87  ILE87       0.2591
     88  O         12.3060    2.9510   56.7000 O.2    87  ILE87      -0.2718
     89  CB        10.5460    0.4300   55.2970 C.3    87  ILE87       0.0266
     90  CG1       10.4240   -0.0050   53.8140 C.3    87  ILE87       0.0019
     91  CG2        9.5910    1.5620   55.5160 C.3    87  ILE87       0.0020
     92  CD1        9.1740   -0.7620   53.4530 C.3    87  ILE87       0.0001
     93  N         12.0940    1.0010   57.8990 N.am   88  MET88      -0.1979
     94  CA        12.1970    1.6510   59.1870 C.3    88  MET88       0.1605
     95  C         13.5530    2.3480   59.3030 C.2    88  MET88       0.2287
     96  O         13.6520    3.5450   59.7150 O.2    88  MET88      -0.2864
     97  CB        11.9650    0.6520   60.2710 C.3    88  MET88       0.0413
     98  CG        10.4860    0.2360   60.4140 C.3    88  MET88       0.0598
     99  SD        10.3100   -0.9810   61.7380 S.3    88  MET88      -0.1393
    100  CE         8.5320   -1.2030   61.7050 C.3    88  MET88       0.0692
    101  N         15.6550    3.1230   56.7550 N.3    90  ARG90      -0.1231
    102  CA        15.8870    4.1690   55.8090 C.3    90  ARG90       0.1694
    103  C         15.1010    5.4130   56.1910 C.2    90  ARG90       0.2592
    104  O         15.4530    6.5870   55.8530 O.2    90  ARG90      -0.2718
    105  CB        15.6270    3.6810   54.3660 C.3    90  ARG90       0.0321
    106  CG        14.1770    3.7030   53.8830 C.3    90  ARG90       0.0489
    107  CD        13.9760    2.6680   52.7820 C.3    90  ARG90       0.2205
    108  NE        14.7360    2.9940   51.5700 N.pl3  90  ARG90      -0.0865
    109  CZ        14.4950    3.9990   50.7270 C.cat  90  ARG90       0.5346
    110  NH1       13.4200    4.7680   50.8570 N.pl3  90  ARG90       0.1354
    111  NH2       15.2740    4.1530   49.6510 N.pl3  90  ARG90       0.1354
    112  N         14.0000    5.1930   56.9340 N.am   91  SER91      -0.1952
    113  CA        13.1730    6.2810   57.3220 C.3    91  SER91       0.1924
    114  C         13.8340    7.2230   58.3080 C.2    91  SER91       0.2314
    115  O         13.3900    8.3500   58.4770 O.2    91  SER91      -0.2863
    116  CB        11.8260    5.8400   57.8370 C.3    91  SER91       0.2116
    117  OG        11.8650    5.4560   59.1680 O.3    91  SER91      -0.2180
    118  N         14.4870   10.8780   57.1260 N.3    94  SER94      -0.1217
    119  CA        13.4550   11.9090   57.2390 C.3    94  SER94       0.1889
    120  C         13.0250   12.2360   58.6440 C.2    94  SER94       0.2288
    121  O         12.3680   13.2920   58.8700 O.2    94  SER94      -0.2866
    122  CB        12.2270   11.5330   56.4640 C.3    94  SER94       0.2089
    123  OG        11.6220   10.4440   57.0820 O.3    94  SER94      -0.2183
    124  N          8.3430   12.0950   60.9030 N.3   102  TRP102     -0.1241
    125  CA         9.0570   11.9370   59.6590 C.3   102  TRP102      0.1605
    126  C          8.6530   13.1080   58.7530 C.2   102  TRP102      0.2264
    127  O          7.5320   13.2050   58.3620 O.2   102  TRP102     -0.2867
    128  CB         8.7110   10.5800   59.0110 C.3   102  TRP102      0.0550
    129  CG         9.1940    9.3680   59.8100 C.ar  102  TRP102      0.0003
    130  CD1       10.3700    8.6630   59.6150 C.ar  102  TRP102      0.0946
    131  CD2        8.4860    8.6750   60.8430 C.ar  102  TRP102      0.0152
    132  NE1       10.4570    7.6000   60.5040 N.ar  102  TRP102     -0.2442
    133  CE2        9.2930    7.5700   61.2510 C.ar  102  TRP102      0.0810
    134  CE3        7.2460    8.8740   61.4730 C.ar  102  TRP102      0.0012
    135  CZ2        8.8850    6.6730   62.2590 C.ar  102  TRP102      0.0191
    136  CZ3        6.8460    7.9670   62.4780 C.ar  102  TRP102      0.0001
    137  CH2        7.6510    6.8890   62.8590 C.ar  102  TRP102      0.0015
    138  N          8.9290   14.9070   55.3420 N.3   104  CYS104     -0.1235
    139  CA         9.2400   14.6620   53.9380 C.3   104  CYS104      0.1677
    140  C          8.9930   15.9000   53.0090 C.2   104  CYS104      0.2270
    141  O          8.6050   15.7850   51.8530 O.2   104  CYS104     -0.2867
    142  CB         8.5650   13.3960   53.3970 C.3   104  CYS104      0.0956
    143  SG         9.0860   11.8950   54.2510 S.3   104  CYS104     -0.0801
    144  N          4.7900   13.1650   58.9590 N.3   111  TYR111     -0.1241
    145  CA         4.0240   12.0370   59.5170 C.3   111  TYR111      0.1605
    146  C          4.3290   11.9220   60.9620 C.2   111  TYR111      0.2264
    147  O          5.4760   11.8740   61.3370 O.2   111  TYR111     -0.2867
    148  CB         4.2780   10.6930   58.7530 C.3   111  TYR111      0.0534
    149  CG         4.1680   10.8540   57.2450 C.ar  111  TYR111     -0.0201
    150  CD1        2.9620   11.1210   56.6320 C.ar  111  TYR111     -0.0009
    151  CD2        5.3250   10.8010   56.4540 C.ar  111  TYR111     -0.0009
    152  CE1        2.9000   11.3580   55.2750 C.ar  111  TYR111      0.0417
    153  CE2        5.2790   10.9840   55.1190 C.ar  111  TYR111      0.0417
    154  CZ         4.0850   11.2970   54.5170 C.ar  111  TYR111      0.1957
    155  OH         4.0960   11.4880   53.1820 O.3   111  TYR111     -0.2866
    156  N          0.1400    7.7420   61.8060 N.3   116  VAL116     -0.1245
    157  CA         0.4020    6.3320   61.6780 C.3   116  VAL116      0.1561
    158  C         -0.8130    5.5590   62.2580 C.2   116  VAL116      0.2260
    159  O         -1.2200    4.4570   61.7800 O.2   116  VAL116     -0.2867
    160  CB         1.7650    5.9560   62.3780 C.3   116  VAL116      0.0252
    161  CG1        2.1120    4.4610   62.2320 C.3   116  VAL116      0.0019
    162  CG2        2.9240    6.7320   61.7620 C.3   116  VAL116      0.0019
    163  N         -3.4930    4.8670   60.0820 N.3   119  ALA119     -0.1245
    164  CA        -3.2360    3.8350   59.0850 C.3   119  ALA119      0.1562
    165  C         -3.4670    2.4800   59.6460 C.2   119  ALA119      0.2260
    166  O         -3.0820    1.4920   59.0150 O.2   119  ALA119     -0.2867
    167  CB        -1.8030    3.9370   58.5300 C.3   119  ALA119      0.0290
    168  N         -2.5380    1.2590   62.8400 N.3   121  HIS121     -0.1241
    169  CA        -1.5900    0.7370   63.8380 C.3   121  HIS121      0.1621
    170  C         -1.6970    1.2900   65.2590 C.2   121  HIS121      0.2264
    171  O         -1.7950    2.5310   65.5650 O.2   121  HIS121     -0.2867
    172  CB        -0.1330    0.8280   63.3550 C.3   121  HIS121      0.0745
    173  CG         0.0760    0.3330   61.9600 C.ar  121  HIS121      0.0817
    174  ND1        0.4910   -0.9560   61.6640 N.ar  121  HIS121     -0.2268
    175  CD2       -0.0520    0.9710   60.7750 C.ar  121  HIS121      0.1154
    176  CE1        0.5950   -1.0890   60.3520 C.ar  121  HIS121      0.1986
    177  NE2        0.2560    0.0580   59.7850 N.ar  121  HIS121     -0.2212
    178  N          2.5970   -0.7080   69.2900 N.3   125  LEU125     -0.1231
    179  CA         3.6680   -0.7180   68.2790 C.3   125  LEU125      0.1693
    180  C          4.3160    0.6240   67.8700 C.2   125  LEU125      0.2591
    181  O          5.5380    0.7040   67.7500 O.2   125  LEU125     -0.2718
    182  CB         3.1920   -1.4560   67.0230 C.3   125  LEU125      0.0284
    183  CG         2.2870   -2.6680   67.2510 C.3   125  LEU125      0.0019
    184  CD1        1.7290   -3.1780   65.9310 C.3   125  LEU125      0.0001
    185  CD2        3.0390   -3.7700   67.9810 C.3   125  LEU125      0.0001
    186  N          3.5110    1.6650   67.6570 N.am  126  ILE126     -0.1980
    187  CA         3.9940    2.9060   67.0520 C.3   126  ILE126      0.1595
    188  C          5.0700    3.5040   67.9560 C.2   126  ILE126      0.2287
    189  O          6.1330    3.9940   67.4620 O.2   126  ILE126     -0.2864
    190  CB         2.9200    3.9280   66.7700 C.3   126  ILE126      0.0276
    191  CG1        1.9320    3.3560   65.7700 C.3   126  ILE126      0.0022
    192  CG2        3.5700    5.2170   66.2140 C.3   126  ILE126      0.0022
    193  CD1        0.7600    4.2350   65.4980 C.3   126  ILE126      0.0001
    194  N          8.5730    2.1760   67.7170 N.3   129  LEU129     -0.1245
    195  CA         9.1180    2.5850   66.4480 C.3   129  LEU129      0.1561
    196  C          9.7290    3.9920   66.5520 C.2   129  LEU129      0.2260
    197  O         10.8440    4.2590   66.0990 O.2   129  LEU129     -0.2867
    198  CB         8.0870    2.4850   65.3050 C.3   129  LEU129      0.0270
    199  CG         8.6260    3.1100   63.9910 C.3   129  LEU129      0.0019
    200  CD1        9.9020    2.3860   63.5370 C.3   129  LEU129      0.0001
    201  CD2        7.5540    3.2250   62.9220 C.3   129  LEU129      0.0001
    202  N         10.8510   -5.3590   66.2870 N.3   209  LEU209     -0.1245
    203  CA         9.7810   -4.6190   65.6730 C.3   209  LEU209      0.1561
    204  C          9.1260   -5.3650   64.4830 C.2   209  LEU209      0.2260
    205  O          7.9020   -5.2740   64.2010 O.2   209  LEU209     -0.2867
    206  CB        10.3720   -3.2920   65.1650 C.3   209  LEU209      0.0270
    207  CG        10.7860   -2.2320   66.2150 C.3   209  LEU209      0.0019
    208  CD1       11.8020   -1.2410   65.6750 C.3   209  LEU209      0.0001
    209  CD2        9.4860   -1.5180   66.5930 C.3   209  LEU209      0.0001
    210  N          5.2850   -6.4310   64.4590 N.3   213  HIS213     -0.1241
    211  CA         4.4240   -6.0000   63.3980 C.3   213  HIS213      0.1621
    212  C          3.6580   -7.1730   62.7450 C.2   213  HIS213      0.2264
    213  O          2.4430   -7.1500   62.6610 O.2   213  HIS213     -0.2867
    214  CB         5.1660   -5.2750   62.3200 C.3   213  HIS213      0.0745
    215  CG         4.2750   -4.9150   61.1770 C.ar  213  HIS213      0.0817
    216  ND1        4.4940   -5.3520   59.8950 N.ar  213  HIS213     -0.2268
    217  CD2        3.1090   -4.2320   61.1440 C.ar  213  HIS213      0.1154
    218  CE1        3.5320   -4.9170   59.1050 C.ar  213  HIS213      0.1986
    219  NE2        2.6770   -4.2270   59.8370 N.ar  213  HIS213     -0.2212
    220  N         -0.0190   -6.6690   61.3290 N.3   217  TYR217     -0.1241
    221  CA        -0.3820   -6.5740   59.8890 C.3   217  TYR217      0.1605
    222  C         -1.2110   -7.7710   59.4720 C.2   217  TYR217      0.2264
    223  O         -1.9240   -7.7260   58.4610 O.2   217  TYR217     -0.2867
    224  CB         0.8290   -6.4850   58.9510 C.3   217  TYR217      0.0534
    225  CG         0.4630   -6.6200   57.4690 C.ar  217  TYR217     -0.0201
    226  CD1        0.3120   -7.8800   56.8940 C.ar  217  TYR217     -0.0009
    227  CD2        0.2380   -5.4890   56.6520 C.ar  217  TYR217     -0.0009
    228  CE1       -0.0440   -8.0260   55.5650 C.ar  217  TYR217      0.0417
    229  CE2       -0.1090   -5.6280   55.3190 C.ar  217  TYR217      0.0417
    230  CZ        -0.2510   -6.9080   54.7780 C.ar  217  TYR217      0.1957
    231  OH        -0.5890   -7.1210   53.4470 O.3   217  TYR217     -0.2866
    232  N          4.1720   -8.6290   52.1140 N.3   238  PHE238     -0.1241
    233  CA         3.7220   -8.9820   53.4540 C.3   238  PHE238      0.1605
    234  C          2.7450  -10.1380   53.5040 C.2   238  PHE238      0.2264
    235  O          1.9290  -10.1920   54.3930 O.2   238  PHE238     -0.2867
    236  CB         3.1520   -7.7580   54.1670 C.3   238  PHE238      0.0534
    237  CG         4.1030   -6.5900   54.1970 C.ar  238  PHE238     -0.0203
    238  CD1        3.6330   -5.3040   54.0960 C.ar  238  PHE238     -0.0042
    239  CD2        5.4710   -6.7800   54.3240 C.ar  238  PHE238     -0.0042
    240  CE1        4.5060   -4.2270   54.1080 C.ar  238  PHE238     -0.0003
    241  CE2        6.3500   -5.7100   54.3310 C.ar  238  PHE238     -0.0003
    242  CZ         5.8690   -4.4320   54.2240 C.ar  238  PHE238     -0.0000
@<TRIPOS>BOND
     1    67    65   ar
     2    67    69   ar
     3    65    64   ar
     4    70    69    1
     5    69    68   ar
     6    25    26    1
     7    64    63    1
     8    64    66   ar
     9    27    28    2
    10    27    26    1
    11     1     2    1
    12    60    63    1
    13    60    59    1
    14    60    61    1
    15    68    66   ar
    16    62    61    2
    17    26    29    1
    18    15    16    2
    19    15    14    1
    20     3     4    2
    21     3     2    1
    22    61    71   am
    23     2     5    1
    24    13    14    1
    25    14    17    1
    26    29    30    1
    27    31    30   ar
    28    31    33   ar
    29    71    72    1
    30    30    32   ar
    31     5     6    1
    32    74    73    2
    33    73    72    1
    34    33    35   ar
    35    17    18    1
    36   111   109    1
    37    72    75    1
    38    44    45    1
    39     6     7   ar
    40     6     8   ar
    41    18    19   ar
    42    18    20   ar
    43    32    34   ar
    44    55    54    2
    45   109   110    1
    46   109   108    2
    47    47    46    2
    48     7     9   ar
    49    45    46    1
    50    45    48    1
    51    54    53    1
    52    35    34   ar
    53    19    21   ar
    54    46    52   am
    55    75    76    1
    56    20    22   ar
    57     8    10   ar
    58   108   107    1
    59     9    11   ar
    60   141   140    2
    61    21    23   ar
    62    52    53    1
    63    51    49    1
    64    48    49    1
    65   232   233    1
    66    53    56    1
    67    22    23   ar
    68    10    11   ar
    69    23    24    1
    70    49    50    1
    71    11    12    1
    72   107   106    1
    73   140   139    1
    74    56    57    1
    75    56    58    1
    76   155   154    1
    77    39    38    2
    78    38    37    1
    79   142   139    1
    80   142   143    1
    81    36    37    1
    82   231   230    1
    83    92    90    1
    84   233   234    1
    85   233   236    1
    86   234   235    2
    87    90    89    1
    88   106   105    1
    89   139   138    1
    90    37    40    1
    91   238   240   ar
    92   238   237   ar
    93   240   242   ar
    94   236   237    1
    95   237   239   ar
    96   242   241   ar
    97   239   241   ar
    98   105   102    1
    99   154   153   ar
   100   154   152   ar
   101   230   229   ar
   102   230   228   ar
   103   153   151   ar
   104   152   150   ar
   105    89    91    1
   106    89    86    1
   107   229   227   ar
   108    40    41    1
   109    86    85    1
   110    86    87    1
   111   228   226   ar
   112   102   103    1
   113   102   101    1
   114    77    78    1
   115   104   103    2
   116    43    41    1
   117   103   112   am
   118    41    42    1
   119   151   149   ar
   120   122   123    1
   121   122   119    1
   122   150   149   ar
   123   227   225   ar
   124    88    87    2
   125    87    93   am
   126    78    79    1
   127    78    81    1
   128   226   225   ar
   129   112   113    1
   130   118   119    1
   131   119   120    1
   132   149   148    1
   133   113   116    1
   134   113   114    1
   135   225   224    1
   136    79    80    2
   137    81    83    1
   138    81    82    1
   139    84    82    1
   140   116   117    1
   141    93    94    1
   142   114   115    2
   143   127   126    2
   144   223   222    2
   145   167   164    1
   146   120   121    2
   147   148   145    1
   148   126   125    1
   149   224   221    1
   150   144   145    1
   151   128   125    1
   152   128   129    1
   153   166   165    2
   154   164   165    1
   155   164   163    1
   156   218   219   ar
   157   218   216   ar
   158    94    95    1
   159    94    97    1
   160    95    96    2
   161   222   221    1
   162   145   146    1
   163   130   129   ar
   164   130   132   ar
   165   125   124    1
   166   177   176   ar
   167   177   175   ar
   168   129   131   ar
   169   219   217   ar
   170   221   220    1
   171   216   215   ar
   172    97    98    1
   173   176   174   ar
   174    98    99    1
   175   132   133   ar
   176   175   173   ar
   177   131   133   ar
   178   131   134   ar
   179   146   147    2
   180   217   215   ar
   181   215   214    1
   182   133   135   ar
   183   134   136   ar
   184   174   173   ar
   185   157   156    1
   186   157   158    1
   187   157   160    1
   188   100    99    1
   189   162   160    1
   190   159   158    2
   191   173   172    1
   192   161   160    1
   193   135   137   ar
   194   214   211    1
   195   136   137   ar
   196   213   212    2
   197   212   211    1
   198   168   169    1
   199   201   199    1
   200   172   169    1
   201   211   210    1
   202   200   199    1
   203   169   170    1
   204   199   198    1
   205   205   204    2
   206   204   203    1
   207   206   203    1
   208   206   207    1
   209   170   171    2
   210   198   195    1
   211   193   191    1
   212   203   202    1
   213   208   207    1
   214   191   190    1
   215   184   183    1
   216   197   196    2
   217   192   190    1
   218   207   209    1
   219   195   196    1
   220   195   194    1
   221   190   187    1
   222   182   183    1
   223   182   179    1
   224   187   186    1
   225   187   188    1
   226   183   185    1
   227   189   188    2
   228   186   180   am
   229   181   180    2
   230   180   179    1
   231   179   178    1
