@<TRIPOS>MOLECULE
tmp/3wthA01.pdb
 98 96 0 0 0
SMALL
GASTEIGER

@<TRIPOS>ATOM
      1  N         51.2850  -19.1780  -18.6870 N.3    35  LYS35      -0.1245
      2  CA        52.3260  -18.6570  -17.7950 C.3    35  LYS35       0.1561
      3  C         51.7260  -17.5320  -16.9520 C.2    35  LYS35       0.2260
      4  O         51.6470  -16.3810  -17.3930 O.2    35  LYS35      -0.2867
      5  CB        53.5140  -18.1110  -18.5850 C.3    35  LYS35       0.0271
      6  CG        54.7720  -18.9560  -18.4590 C.3    35  LYS35       0.0035
      7  CD        55.1370  -19.1950  -16.9910 C.3    35  LYS35       0.0206
      8  CE        56.2750  -20.1870  -16.8630 C.3    35  LYS35       0.1093
      9  NZ        56.1850  -20.9500  -15.5860 N.3    35  LYS35      -0.1314
     10  N         50.2250  -15.2990  -19.8380 N.3    54  TRP54      -0.1241
     11  CA        50.6920  -15.3850  -21.2150 C.3    54  TRP54       0.1605
     12  C         50.2310  -16.7440  -21.6820 C.2    54  TRP54       0.2264
     13  O         50.4870  -17.7530  -21.0250 O.2    54  TRP54      -0.2867
     14  CB        52.2140  -15.3350  -21.2950 C.3    54  TRP54       0.0550
     15  CG        52.8130  -14.0500  -20.8430 C.ar   54  TRP54       0.0003
     16  CD1       52.1810  -12.8350  -20.7270 C.ar   54  TRP54       0.0946
     17  CD2       54.1730  -13.8360  -20.4620 C.ar   54  TRP54       0.0152
     18  NE1       53.0710  -11.8820  -20.2920 N.ar   54  TRP54      -0.2442
     19  CE2       54.3000  -12.4680  -20.1200 C.ar   54  TRP54       0.0810
     20  CE3       55.2980  -14.6660  -20.3750 C.ar   54  TRP54       0.0012
     21  CZ2       55.5110  -11.9100  -19.6960 C.ar   54  TRP54       0.0191
     22  CZ3       56.5070  -14.1080  -19.9530 C.ar   54  TRP54       0.0001
     23  CH2       56.5980  -12.7430  -19.6190 C.ar   54  TRP54       0.0015
     24  N         50.9400  -19.2860  -24.2580 N.3    56  ARG56      -0.1245
     25  CA        51.8250  -19.7480  -25.3220 C.3    56  ARG56       0.1563
     26  C         51.0940  -20.7650  -26.1870 C.2    56  ARG56       0.2260
     27  O         50.6680  -21.8170  -25.7100 O.2    56  ARG56      -0.2867
     28  CB        53.0920  -20.3670  -24.7400 C.3    56  ARG56       0.0307
     29  CG        54.1670  -20.7110  -25.7600 C.3    56  ARG56       0.0489
     30  CD        55.2790  -21.5220  -25.0930 C.3    56  ARG56       0.2205
     31  NE        56.3320  -21.9360  -26.0220 N.pl3  56  ARG56      -0.0865
     32  CZ        57.1710  -21.1030  -26.6370 C.cat  56  ARG56       0.5346
     33  NH1       57.0870  -19.7900  -26.4310 N.pl3  56  ARG56       0.1354
     34  NH2       58.1040  -21.5870  -27.4530 N.pl3  56  ARG56       0.1354
     35  N         50.2630  -10.1050  -32.7400 N.3   103  LEU103     -0.1231
     36  CA        51.1940  -10.5840  -33.7440 C.3   103  LEU103      0.1693
     37  C         51.7100  -11.9750  -33.3890 C.2   103  LEU103      0.2592
     38  O         51.9620  -12.2780  -32.2200 O.2   103  LEU103     -0.2718
     39  CB        52.3800   -9.6120  -33.8640 C.3   103  LEU103      0.0284
     40  CG        52.0390   -8.1600  -34.2250 C.3   103  LEU103      0.0019
     41  CD1       53.3190   -7.3210  -34.2720 C.3   103  LEU103      0.0001
     42  CD2       51.3220   -8.1210  -35.5540 C.3   103  LEU103      0.0001
     43  N         51.8400  -12.8340  -34.3940 N.am  104  ALA104     -0.1966
     44  CA        52.3660  -14.1670  -34.1540 C.3   104  ALA104      0.1728
     45  C         53.7280  -14.1970  -34.7860 C.2   104  ALA104      0.2616
     46  O         54.1230  -13.2870  -35.5280 O.2   104  ALA104     -0.2715
     47  CB        51.4900  -15.2350  -34.7730 C.3   104  ALA104      0.0334
     48  N         54.4530  -15.2550  -34.4800 N.am  105  ARG105     -0.1977
     49  CA        55.7830  -15.4250  -35.0110 C.3   105  ARG105      0.1597
     50  C         55.7140  -16.6060  -35.9600 C.2   105  ARG105      0.2287
     51  O         55.1940  -17.6670  -35.6080 O.2   105  ARG105     -0.2864
     52  CB        56.7410  -15.7020  -33.8560 C.3   105  ARG105      0.0334
     53  CG        58.1920  -15.4840  -34.1710 C.3   105  ARG105      0.0492
     54  CD        58.5310  -14.0070  -34.2600 C.3   105  ARG105      0.2205
     55  NE        59.9620  -13.8410  -34.5200 N.pl3 105  ARG105     -0.0865
     56  CZ        60.5320  -12.7010  -34.8930 C.cat 105  ARG105      0.5346
     57  NH1       59.7970  -11.6110  -35.0570 N.pl3 105  ARG105      0.1354
     58  NH2       61.8360  -12.6500  -35.1010 N.pl3 105  ARG105      0.1354
     59  N         53.8990  -19.4950  -33.8520 N.3   113  LEU113     -0.1231
     60  CA        53.8960  -19.2100  -32.4070 C.3   113  LEU113      0.1693
     61  C         53.1450  -17.9190  -32.0580 C.2   113  LEU113      0.2592
     62  O         53.4790  -16.8300  -32.5400 O.2   113  LEU113     -0.2718
     63  CB        55.3280  -19.0910  -31.8850 C.3   113  LEU113      0.0284
     64  CG        55.4030  -18.7150  -30.3990 C.3   113  LEU113      0.0019
     65  CD1       54.6330  -19.7340  -29.5500 C.3   113  LEU113      0.0001
     66  CD2       56.8630  -18.6620  -29.9740 C.3   113  LEU113      0.0001
     67  N         52.1350  -18.0410  -31.2060 N.am  114  TYR114     -0.1962
     68  CA        51.3440  -16.8810  -30.7840 C.3   114  TYR114      0.1771
     69  C         51.2530  -16.8760  -29.2660 C.2   114  TYR114      0.2619
     70  O         50.7290  -17.8110  -28.6660 O.2   114  TYR114     -0.2715
     71  CB        49.9480  -16.9400  -31.4280 C.3   114  TYR114      0.0574
     72  CG        49.0370  -15.7910  -31.0690 C.ar  114  TYR114     -0.0198
     73  CD1       49.5080  -14.4800  -31.0450 C.ar  114  TYR114     -0.0009
     74  CD2       47.7040  -16.0200  -30.7330 C.ar  114  TYR114     -0.0009
     75  CE1       48.6760  -13.4290  -30.6890 C.ar  114  TYR114      0.0417
     76  CE2       46.8570  -14.9760  -30.3760 C.ar  114  TYR114      0.0417
     77  CZ        47.3500  -13.6790  -30.3530 C.ar  114  TYR114      0.1957
     78  OH        46.5410  -12.6310  -29.9800 O.3   114  TYR114     -0.2866
     79  N         51.7820  -15.8200  -28.6540 N.am  115  MET115     -0.1977
     80  CA        51.7940  -15.7030  -27.1960 C.3   115  MET115      0.1605
     81  C         51.2920  -14.3560  -26.7040 C.2   115  MET115      0.2287
     82  O         52.0800  -13.4470  -26.4100 O.2   115  MET115     -0.2864
     83  CB        53.2080  -15.9060  -26.6700 C.3   115  MET115      0.0413
     84  CG        53.2630  -16.3060  -25.2070 C.3   115  MET115      0.0598
     85  SD        54.9460  -16.2120  -24.6190 S.3   115  MET115     -0.1393
     86  CE        55.8760  -17.0660  -25.9680 C.3   115  MET115      0.0692
     87  N         57.6660  -15.6260  -13.8530 N.3   165  TYR165     -0.1241
     88  CA        57.3430  -14.3250  -14.4330 C.3   165  TYR165      0.1605
     89  C         56.1670  -13.6930  -13.7010 C.2   165  TYR165      0.2264
     90  O         55.5760  -12.7210  -14.1740 O.2   165  TYR165     -0.2867
     91  CB        57.0090  -14.4720  -15.9240 C.3   165  TYR165      0.0534
     92  CG        58.1540  -15.0170  -16.7450 C.ar  165  TYR165     -0.0201
     93  CD1       59.2990  -14.2490  -16.9820 C.ar  165  TYR165     -0.0009
     94  CD2       58.1180  -16.3210  -17.2370 C.ar  165  TYR165     -0.0009
     95  CE1       60.3840  -14.7710  -17.6870 C.ar  165  TYR165      0.0417
     96  CE2       59.1900  -16.8560  -17.9400 C.ar  165  TYR165      0.0417
     97  CZ        60.3230  -16.0810  -18.1620 C.ar  165  TYR165      0.1957
     98  OH        61.3960  -16.6290  -18.8410 O.3   165  TYR165     -0.2866
@<TRIPOS>BOND
     1    50    51    2
     2    50    49    1
     3    42    40    1
     4    46    45    2
     5    58    56    1
     6    57    56    1
     7    49    48    1
     8    49    52    1
     9    56    55    2
    10    45    48   am
    11    45    44    1
    12    47    44    1
    13    55    54    1
    14    43    44    1
    15    43    37   am
    16    41    40    1
    17    54    53    1
    18    40    39    1
    19    53    52    1
    20    39    36    1
    21    59    60    1
    22    36    37    1
    23    36    35    1
    24    37    38    2
    25    62    61    2
    26    60    61    1
    27    60    63    1
    28    61    67   am
    29    63    64    1
    30    71    72    1
    31    71    68    1
    32    67    68    1
    33    72    73   ar
    34    72    74   ar
    35    73    75   ar
    36    68    69    1
    37    74    76   ar
    38    75    77   ar
    39    64    66    1
    40    64    65    1
    41    76    77   ar
    42    77    78    1
    43    69    70    2
    44    69    79   am
    45    79    80    1
    46    34    32    1
    47    80    81    1
    48    80    83    1
    49    81    82    2
    50    83    84    1
    51    32    33    1
    52    32    31    2
    53    26    27    2
    54    26    25    1
    55    31    30    1
    56    86    85    1
    57    29    30    1
    58    29    28    1
    59    25    28    1
    60    25    24    1
    61    84    85    1
    62    12    11    1
    63    12    13    2
    64    14    11    1
    65    14    15    1
    66    11    10    1
    67    15    16   ar
    68    15    17   ar
    69    16    18   ar
    70    17    20   ar
    71    17    19   ar
    72    20    22   ar
    73    18    19   ar
    74    19    21   ar
    75    22    23   ar
    76    21    23   ar
    77    98    97    1
    78     1     2    1
    79     5     6    1
    80     5     2    1
    81     6     7    1
    82    97    96   ar
    83    97    95   ar
    84    96    94   ar
    85     2     3    1
    86    95    93   ar
    87     4     3    2
    88    94    92   ar
    89     7     8    1
    90    93    92   ar
    91     8     9    1
    92    92    91    1
    93    91    88    1
    94    88    87    1
    95    88    89    1
    96    90    89    2
