@<TRIPOS>MOLECULE
tmp/3wtiA01.pdb
 98 96 0 0 0
SMALL
GASTEIGER

@<TRIPOS>ATOM
      1  N         51.1230  -18.8460  -19.2620 N.3    34  LYS34      -0.1245
      2  CA        52.1240  -18.4240  -18.2890 C.3    34  LYS34       0.1561
      3  C         51.5280  -17.2830  -17.4800 C.2    34  LYS34       0.2260
      4  O         51.2790  -16.1970  -18.0100 O.2    34  LYS34      -0.2867
      5  CB        53.4030  -17.9830  -18.9940 C.3    34  LYS34       0.0271
      6  CG        53.9830  -19.0450  -19.9190 C.3    34  LYS34       0.0035
      7  CD        54.7050  -20.1490  -19.1480 C.3    34  LYS34       0.0206
      8  CE        54.8340  -21.4350  -19.9630 C.3    34  LYS34       0.1093
      9  NZ        55.2100  -21.2060  -21.3920 N.3    34  LYS34      -0.1314
     10  N         49.7580  -15.0650  -20.2820 N.3    53  TRP53      -0.1241
     11  CA        50.2170  -15.1770  -21.6490 C.3    53  TRP53       0.1605
     12  C         49.8490  -16.5520  -22.1580 C.2    53  TRP53       0.2264
     13  O         50.2700  -17.5520  -21.5870 O.2    53  TRP53      -0.2867
     14  CB        51.7240  -14.9990  -21.7230 C.3    53  TRP53       0.0550
     15  CG        52.2060  -13.6540  -21.3100 C.ar   53  TRP53       0.0003
     16  CD1       51.4750  -12.5120  -21.2030 C.ar   53  TRP53       0.0946
     17  CD2       53.5500  -13.3000  -20.9950 C.ar   53  TRP53       0.0152
     18  NE1       52.2770  -11.4660  -20.8170 N.ar   53  TRP53      -0.2442
     19  CE2       53.5590  -11.9270  -20.6830 C.ar   53  TRP53       0.0810
     20  CE3       54.7480  -14.0180  -20.9280 C.ar   53  TRP53       0.0012
     21  CZ2       54.7170  -11.2560  -20.3130 C.ar   53  TRP53       0.0191
     22  CZ3       55.8990  -13.3540  -20.5590 C.ar   53  TRP53       0.0001
     23  CH2       55.8770  -11.9820  -20.2570 C.ar   53  TRP53       0.0015
     24  N         50.6080  -18.9460  -24.6720 N.3    55  ARG55      -0.1245
     25  CA        51.5200  -19.4280  -25.7010 C.3    55  ARG55       0.1563
     26  C         50.8260  -20.4850  -26.5490 C.2    55  ARG55       0.2260
     27  O         50.4040  -21.5180  -26.0410 O.2    55  ARG55      -0.2867
     28  CB        52.7990  -19.9890  -25.0710 C.3    55  ARG55       0.0307
     29  CG        53.7020  -20.7490  -26.0300 C.3    55  ARG55       0.0489
     30  CD        55.0810  -20.9830  -25.4350 C.3    55  ARG55       0.2205
     31  NE        55.9690  -19.8520  -25.6960 N.pl3  55  ARG55      -0.0865
     32  CZ        56.6520  -19.6620  -26.8260 C.cat  55  ARG55       0.5346
     33  NH1       56.5760  -20.5400  -27.8260 N.pl3  55  ARG55       0.1354
     34  NH2       57.4260  -18.5880  -26.9610 N.pl3  55  ARG55       0.1354
     35  N         49.7350   -9.8410  -33.2730 N.3   102  LEU102     -0.1231
     36  CA        50.6660  -10.2850  -34.3020 C.3   102  LEU102      0.1693
     37  C         51.1570  -11.6700  -33.9390 C.2   102  LEU102      0.2592
     38  O         51.5200  -11.9200  -32.7920 O.2   102  LEU102     -0.2718
     39  CB        51.8850   -9.3630  -34.3740 C.3   102  LEU102      0.0284
     40  CG        51.6990   -7.8940  -34.7530 C.3   102  LEU102      0.0019
     41  CD1       53.0330   -7.1680  -34.6570 C.3   102  LEU102      0.0001
     42  CD2       51.1090   -7.7550  -36.1490 C.3   102  LEU102      0.0001
     43  N         51.1750  -12.5690  -34.9130 N.am  103  ALA103     -0.1966
     44  CA        51.7720  -13.8770  -34.7160 C.3   103  ALA103      0.1728
     45  C         53.1720  -13.8690  -35.2860 C.2   103  ALA103      0.2616
     46  O         53.5290  -13.0180  -36.0950 O.2   103  ALA103     -0.2715
     47  CB        50.9420  -14.9480  -35.3910 C.3   103  ALA103      0.0334
     48  N         53.9640  -14.8300  -34.8500 N.am  104  ARG104     -0.1977
     49  CA        55.3010  -15.0240  -35.3620 C.3   104  ARG104      0.1597
     50  C         55.2450  -16.2470  -36.2710 C.2   104  ARG104      0.2287
     51  O         54.6710  -17.2670  -35.8980 O.2   104  ARG104     -0.2864
     52  CB        56.2510  -15.2440  -34.1930 C.3   104  ARG104      0.0334
     53  CG        57.7100  -15.0440  -34.5200 C.3   104  ARG104      0.0492
     54  CD        58.0750  -13.5760  -34.6050 C.3   104  ARG104      0.2205
     55  NE        59.4920  -13.4480  -34.9240 N.pl3 104  ARG104     -0.0865
     56  CZ        60.0630  -12.3910  -35.4890 C.cat 104  ARG104      0.5346
     57  NH1       59.3550  -11.3130  -35.8130 N.pl3 104  ARG104      0.1354
     58  NH2       61.3660  -12.4170  -35.7320 N.pl3 104  ARG104      0.1354
     59  N         53.6540  -19.1730  -34.1100 N.3   112  LEU112     -0.1231
     60  CA        53.6970  -18.9110  -32.6740 C.3   112  LEU112      0.1693
     61  C         52.8960  -17.6500  -32.3740 C.2   112  LEU112      0.2592
     62  O         53.2370  -16.5760  -32.8560 O.2   112  LEU112     -0.2718
     63  CB        55.1400  -18.7180  -32.1940 C.3   112  LEU112      0.0284
     64  CG        55.3160  -18.1060  -30.7870 C.3   112  LEU112      0.0019
     65  CD1       54.6090  -18.9450  -29.7320 C.3   112  LEU112      0.0001
     66  CD2       56.7850  -17.9320  -30.4150 C.3   112  LEU112      0.0001
     67  N         51.8410  -17.7850  -31.5730 N.am  113  TYR113     -0.1962
     68  CA        51.0290  -16.6440  -31.1530 C.3   113  TYR113      0.1771
     69  C         50.8570  -16.6890  -29.6370 C.2   113  TYR113      0.2619
     70  O         50.4130  -17.7000  -29.0860 O.2   113  TYR113     -0.2715
     71  CB        49.6680  -16.6650  -31.8630 C.3   113  TYR113      0.0574
     72  CG        48.7250  -15.5360  -31.4720 C.ar  113  TYR113     -0.0198
     73  CD1       49.1240  -14.2080  -31.5410 C.ar  113  TYR113     -0.0009
     74  CD2       47.4280  -15.8020  -31.0480 C.ar  113  TYR113     -0.0009
     75  CE1       48.2640  -13.1840  -31.1900 C.ar  113  TYR113      0.0417
     76  CE2       46.5620  -14.7810  -30.6950 C.ar  113  TYR113      0.0417
     77  CZ        46.9830  -13.4730  -30.7700 C.ar  113  TYR113      0.1957
     78  OH        46.1140  -12.4600  -30.4250 O.3   113  TYR113     -0.2866
     79  N         51.2270  -15.5940  -28.9750 N.am  114  MET114     -0.1977
     80  CA        51.1760  -15.5000  -27.5180 C.3   114  MET114      0.1605
     81  C         50.6390  -14.1410  -27.0830 C.2   114  MET114      0.2287
     82  O         51.4150  -13.2230  -26.8050 O.2   114  MET114     -0.2864
     83  CB        52.5590  -15.7260  -26.9190 C.3   114  MET114      0.0413
     84  CG        52.5440  -15.8750  -25.4060 C.3   114  MET114      0.0598
     85  SD        54.1620  -15.6230  -24.6670 S.3   114  MET114     -0.1393
     86  CE        55.1250  -16.7920  -25.6150 C.3   114  MET114      0.0692
     87  N         57.2890  -15.3230  -14.5570 N.3   164  TYR164     -0.1241
     88  CA        56.8690  -14.0170  -15.0660 C.3   164  TYR164      0.1605
     89  C         55.7110  -13.4340  -14.2610 C.2   164  TYR164      0.2264
     90  O         55.0700  -12.4710  -14.6890 O.2   164  TYR164     -0.2867
     91  CB        56.4800  -14.1330  -16.5460 C.3   164  TYR164      0.0534
     92  CG        57.4310  -15.0020  -17.3290 C.ar  164  TYR164     -0.0201
     93  CD1       58.8080  -14.8370  -17.2020 C.ar  164  TYR164     -0.0009
     94  CD2       56.9610  -15.9990  -18.1850 C.ar  164  TYR164     -0.0009
     95  CE1       59.6910  -15.6380  -17.8990 C.ar  164  TYR164      0.0417
     96  CE2       57.8390  -16.8060  -18.8930 C.ar  164  TYR164      0.0417
     97  CZ        59.2060  -16.6190  -18.7450 C.ar  164  TYR164      0.1957
     98  OH        60.1100  -17.4050  -19.4330 O.3   164  TYR164     -0.2866
@<TRIPOS>BOND
     1    50    51    2
     2    50    49    1
     3    42    40    1
     4    46    45    2
     5    57    56    1
     6    58    56    1
     7    56    55    2
     8    47    44    1
     9    49    48    1
    10    49    52    1
    11    45    48   am
    12    45    44    1
    13    55    54    1
    14    43    44    1
    15    43    37   am
    16    40    41    1
    17    40    39    1
    18    54    53    1
    19    53    52    1
    20    39    36    1
    21    36    37    1
    22    36    35    1
    23    59    60    1
    24    37    38    2
    25    62    61    2
    26    60    61    1
    27    60    63    1
    28    61    67   am
    29    63    64    1
    30    71    72    1
    31    71    68    1
    32    67    68    1
    33    73    72   ar
    34    73    75   ar
    35    72    74   ar
    36    75    77   ar
    37    68    69    1
    38    74    76   ar
    39    64    66    1
    40    64    65    1
    41    77    76   ar
    42    77    78    1
    43    69    70    2
    44    69    79   am
    45    79    80    1
    46    33    32    1
    47    80    81    1
    48    80    83    1
    49    81    82    2
    50    34    32    1
    51    83    84    1
    52    32    31    2
    53    26    27    2
    54    26    25    1
    55    29    30    1
    56    29    28    1
    57    25    28    1
    58    25    24    1
    59    31    30    1
    60    86    85    1
    61    84    85    1
    62    12    11    1
    63    12    13    2
    64    14    11    1
    65    14    15    1
    66    11    10    1
    67     9     8    1
    68    15    16   ar
    69    15    17   ar
    70    16    18   ar
    71    17    20   ar
    72    17    19   ar
    73    20    22   ar
    74    18    19   ar
    75    19    21   ar
    76    22    23   ar
    77    21    23   ar
    78     8     7    1
    79     6     7    1
    80     6     5    1
    81    98    97    1
    82     1     2    1
    83     5     2    1
    84    96    97   ar
    85    96    94   ar
    86    97    95   ar
    87     2     3    1
    88    94    92   ar
    89     4     3    2
    90    95    93   ar
    91    92    93   ar
    92    92    91    1
    93    91    88    1
    94    88    87    1
    95    88    89    1
    96    90    89    2
