@<TRIPOS>MOLECULE
tmp/3wtjC01.pdb
 89 90 0 0 0
SMALL
GASTEIGER

@<TRIPOS>ATOM
      1  N         18.4980   15.3520  -27.7150 N.3    90  TYR90      -0.1241
      2  CA        19.1670   16.6020  -27.3720 C.3    90  TYR90       0.1605
      3  C         19.6170   16.7260  -25.9340 C.2    90  TYR90       0.2264
      4  O         20.5330   17.4950  -25.6360 O.2    90  TYR90      -0.2867
      5  CB        18.2560   17.7770  -27.7010 C.3    90  TYR90       0.0534
      6  CG        17.9710   17.9540  -29.1710 C.ar   90  TYR90      -0.0201
      7  CD1       17.0020   18.8600  -29.5930 C.ar   90  TYR90      -0.0009
      8  CD2       18.6550   17.2150  -30.1410 C.ar   90  TYR90      -0.0009
      9  CE1       16.7100   19.0290  -30.9300 C.ar   90  TYR90       0.0417
     10  CE2       18.3730   17.3760  -31.4890 C.ar   90  TYR90       0.0417
     11  CZ        17.3940   18.2860  -31.8770 C.ar   90  TYR90       0.1957
     12  OH        17.0850   18.4410  -33.2100 O.3    90  TYR90      -0.2866
     13  N         16.3610   15.6830  -35.5970 N.3   143  SER143     -0.1202
     14  CA        17.5360   15.6360  -36.4570 C.3   143  SER143      0.2020
     15  C         18.6280   16.5240  -35.8990 C.2   143  SER143      0.2619
     16  O         18.3570   17.5940  -35.3500 O.2   143  SER143     -0.2717
     17  CB        17.2060   16.0900  -37.8760 C.3   143  SER143      0.2103
     18  OG        18.3910   16.1470  -38.6610 O.3   143  SER143     -0.2182
     19  N         19.8660   16.0810  -36.0580 N.am  144  TRP144     -0.1961
     20  CA        20.9970   16.8300  -35.5540 C.3   144  TRP144      0.1771
     21  C         21.5190   17.8590  -36.5520 C.2   144  TRP144      0.2620
     22  O         21.9230   18.9520  -36.1580 O.2   144  TRP144     -0.2715
     23  CB        22.1250   15.8670  -35.1690 C.3   144  TRP144      0.0590
     24  CG        23.2190   16.5480  -34.4390 C.ar  144  TRP144      0.0006
     25  CD1       24.4710   16.8250  -34.9040 C.ar  144  TRP144      0.0946
     26  CD2       23.1450   17.1060  -33.1240 C.ar  144  TRP144      0.0152
     27  NE1       25.1820   17.5260  -33.9590 N.ar  144  TRP144     -0.2442
     28  CE2       24.3910   17.7130  -32.8570 C.ar  144  TRP144      0.0810
     29  CE3       22.1450   17.1560  -32.1470 C.ar  144  TRP144      0.0012
     30  CZ2       24.6670   18.3640  -31.6540 C.ar  144  TRP144      0.0191
     31  CZ3       22.4170   17.8070  -30.9460 C.ar  144  TRP144      0.0001
     32  CH2       23.6700   18.4020  -30.7120 C.ar  144  TRP144      0.0015
     33  N         21.5050   17.5090  -37.8380 N.am  145  THR145     -0.1951
     34  CA        22.0110   18.3960  -38.8950 C.3   145  THR145      0.1897
     35  C         21.0230   18.8070  -39.9850 C.2   145  THR145      0.2313
     36  O         21.3710   19.6120  -40.8510 O.2   145  THR145     -0.2863
     37  CB        23.2150   17.7750  -39.6190 C.3   145  THR145      0.1794
     38  OG1       22.7870   16.5980  -40.3050 O.3   145  THR145     -0.2208
     39  CG2       24.3200   17.4120  -38.6170 C.3   145  THR145      0.0378
     40  N         13.2620   23.4520  -32.2780 N.3   184  VAL184     -0.1231
     41  CA        14.3410   24.1180  -31.5580 C.3   184  VAL184      0.1692
     42  C         15.1570   25.0010  -32.4970 C.2   184  VAL184      0.2593
     43  O         15.1470   24.8010  -33.7100 O.2   184  VAL184     -0.2718
     44  CB        15.2950   23.0960  -30.9000 C.3   184  VAL184      0.0266
     45  CG1       14.5640   22.3250  -29.8040 C.3   184  VAL184      0.0020
     46  CG2       15.8300   22.1380  -31.9500 C.3   184  VAL184      0.0020
     47  N         15.8600   25.9770  -31.9250 N.am  185  THR185     -0.1939
     48  CA        16.7070   26.8900  -32.6920 C.3   185  THR185      0.2028
     49  C         17.6760   27.6180  -31.7690 C.2   185  THR185      0.2642
     50  O         17.3980   27.7970  -30.5860 O.2   185  THR185     -0.2714
     51  CB        15.8860   27.9740  -33.4240 C.3   185  THR185      0.1808
     52  OG1       14.9310   27.3570  -34.2940 O.3   185  THR185     -0.2208
     53  CG2       16.8080   28.8680  -34.2490 C.3   185  THR185      0.0379
     54  N         18.8140   28.0370  -32.3110 N.am  186  TYR186     -0.1973
     55  CA        19.7960   28.7760  -31.5280 C.3   186  TYR186      0.1639
     56  C         20.4290   29.9090  -32.3280 C.2   186  TYR186      0.2290
     57  O         20.2330   30.0230  -33.5380 O.2   186  TYR186     -0.2864
     58  CB        20.8960   27.8470  -30.9980 C.3   186  TYR186      0.0560
     59  CG        20.4820   27.0060  -29.8070 C.ar  186  TYR186     -0.0198
     60  CD1       20.0500   25.6880  -29.9720 C.ar  186  TYR186     -0.0009
     61  CD2       20.5000   27.5370  -28.5120 C.ar  186  TYR186     -0.0009
     62  CE1       19.6470   24.9170  -28.8790 C.ar  186  TYR186      0.0417
     63  CE2       20.0970   26.7740  -27.4100 C.ar  186  TYR186      0.0417
     64  CZ        19.6720   25.4670  -27.6040 C.ar  186  TYR186      0.1957
     65  OH        19.2660   24.7080  -26.5320 O.3   186  TYR186     -0.2866
     66  N         23.3990   30.1460  -32.9470 N.3   188  CYS188     -0.1221
     67  CA        24.4820   29.5640  -33.7370 C.3   188  CYS188      0.1808
     68  C         24.0340   29.4070  -35.1510 C.2   188  CYS188      0.2601
     69  O         24.7410   29.7030  -36.1130 O.2   188  CYS188     -0.2717
     70  CB        24.8290   28.1460  -33.2670 C.3   188  CYS188      0.0970
     71  SG        23.6140   26.7880  -33.5960 S.3   188  CYS188     -0.0800
     72  N         22.8110   28.9290  -35.2400 N.am  189  CYS189     -0.1970
     73  CA        22.2430   28.5680  -36.4960 C.3   189  CYS189      0.1712
     74  C         20.8760   29.2170  -36.7370 C.2   189  CYS189      0.2296
     75  O         19.9440   29.0450  -35.9480 O.2   189  CYS189     -0.2864
     76  CB        22.1920   27.0470  -36.4540 C.3   189  CYS189      0.0983
     77  SG        23.6340   26.2710  -35.5830 S.3   189  CYS189     -0.0798
     78  N         15.2140   23.3920  -36.2110 N.3   193  TYR193     -0.1241
     79  CA        15.1960   21.9300  -36.2880 C.3   193  TYR193      0.1605
     80  C         14.0270   21.3510  -35.5050 C.2   193  TYR193      0.2264
     81  O         13.8470   21.6640  -34.3350 O.2   193  TYR193     -0.2867
     82  CB        16.5080   21.3560  -35.7540 C.3   193  TYR193      0.0534
     83  CG        17.7300   21.9510  -36.4060 C.ar  193  TYR193     -0.0201
     84  CD1       18.1400   23.2470  -36.1080 C.ar  193  TYR193     -0.0009
     85  CD2       18.4700   21.2240  -37.3340 C.ar  193  TYR193     -0.0009
     86  CE1       19.2550   23.8030  -36.7160 C.ar  193  TYR193      0.0417
     87  CE2       19.5900   21.7690  -37.9490 C.ar  193  TYR193      0.0417
     88  CZ        19.9790   23.0560  -37.6370 C.ar  193  TYR193      0.1957
     89  OH        21.1000   23.5970  -38.2230 O.3   193  TYR193     -0.2866
@<TRIPOS>BOND
     1    36    35    2
     2    38    37    1
     3    35    34    1
     4    37    34    1
     5    37    39    1
     6    34    33    1
     7    18    17    1
     8    89    88    1
     9    87    88   ar
    10    87    85   ar
    11    17    14    1
    12    33    21   am
    13    88    86   ar
    14    85    83   ar
    15    74    73    1
    16    74    75    2
    17    86    84   ar
    18    21    22    2
    19    21    20    1
    20    73    76    1
    21    73    72    1
    22    14    15    1
    23    14    13    1
    24    76    77    1
    25    83    84   ar
    26    83    82    1
    27    79    78    1
    28    79    82    1
    29    79    80    1
    30    69    68    2
    31    19    15   am
    32    19    20    1
    33    15    16    2
    34    77    71    1
    35    20    23    1
    36    80    81    2
    37    72    68   am
    38    23    24    1
    39    68    67    1
    40    25    24   ar
    41    25    27   ar
    42    24    26   ar
    43    52    51    1
    44    53    51    1
    45    27    28   ar
    46    67    70    1
    47    67    66    1
    48    43    42    2
    49    71    70    1
    50    57    56    2
    51    51    48    1
    52    12    11    1
    53    26    28   ar
    54    26    29   ar
    55    28    30   ar
    56    48    47    1
    57    48    49    1
    58    42    47   am
    59    42    41    1
    60    56    55    1
    61    54    49   am
    62    54    55    1
    63    40    41    1
    64    29    31   ar
    65    46    44    1
    66    11    10   ar
    67    11     9   ar
    68    49    50    2
    69    30    32   ar
    70    41    44    1
    71    55    58    1
    72    10     8   ar
    73    58    59    1
    74    31    32   ar
    75     9     7   ar
    76    44    45    1
    77     8     6   ar
    78    60    59   ar
    79    60    62   ar
    80    59    61   ar
    81     7     6   ar
    82     6     5    1
    83    62    64   ar
    84    61    63   ar
    85     1     2    1
    86     5     2    1
    87    64    63   ar
    88    64    65    1
    89     2     3    1
    90     3     4    2
