@<TRIPOS>MOLECULE
tmp/3wtlE00.pdb
 96 94 0 0 0
SMALL
GASTEIGER

@<TRIPOS>ATOM
      1  N         56.3390   11.4700  -21.3540 N.3    35  LYS35      -0.1245
      2  CA        56.1130   12.7850  -20.7620 C.3    35  LYS35       0.1561
      3  C         54.8760   12.6230  -19.8870 C.2    35  LYS35       0.2260
      4  O         53.7550   12.5980  -20.3920 O.2    35  LYS35      -0.2867
      5  CB        55.8430   13.8360  -21.8420 C.3    35  LYS35       0.0271
      6  CG        57.0680   14.5860  -22.3530 C.3    35  LYS35       0.0035
      7  CD        58.0790   13.6750  -23.0300 C.3    35  LYS35       0.0206
      8  CE        59.0820   14.4890  -23.8400 C.3    35  LYS35       0.1093
      9  NZ        59.6700   15.6270  -23.0610 N.3    35  LYS35      -0.1314
     10  N         52.4530   11.1270  -22.4530 N.3    54  TRP54      -0.1241
     11  CA        52.6880   11.2640  -23.8830 C.3    54  TRP54       0.1605
     12  C         53.8470   10.3250  -24.1810 C.2    54  TRP54       0.2264
     13  O         54.9060   10.4110  -23.5620 O.2    54  TRP54      -0.2867
     14  CB        53.0910   12.6880  -24.2550 C.3    54  TRP54       0.0550
     15  CG        52.0460   13.6940  -23.9630 C.ar   54  TRP54       0.0003
     16  CD1       50.7210   13.4610  -23.7340 C.ar   54  TRP54       0.0946
     17  CD2       52.2250   15.1120  -23.8840 C.ar   54  TRP54       0.0152
     18  NE1       50.0650   14.6450  -23.5190 N.ar   54  TRP54      -0.2442
     19  CE2       50.9630   15.6760  -23.6050 C.ar   54  TRP54       0.0810
     20  CE3       53.3330   15.9600  -24.0230 C.ar   54  TRP54       0.0012
     21  CZ2       50.7730   17.0530  -23.4620 C.ar   54  TRP54       0.0191
     22  CZ3       53.1470   17.3300  -23.8800 C.ar   54  TRP54       0.0001
     23  CH2       51.8740   17.8630  -23.6020 C.ar   54  TRP54       0.0015
     24  N         56.3830    9.7990  -26.5580 N.3    56  GLN56      -0.1245
     25  CA        57.1430   10.3380  -27.6850 C.3    56  GLN56       0.1566
     26  C         57.9120    9.1940  -28.3470 C.2    56  GLN56       0.2260
     27  O         58.8090    8.6140  -27.7450 O.2    56  GLN56      -0.2867
     28  CB        58.1170   11.4130  -27.2040 C.3    56  GLN56       0.0367
     29  CG        58.5370   12.3660  -28.3090 C.3    56  GLN56       0.0905
     30  CD        59.5380   13.4050  -27.8530 C.2    56  GLN56       0.2608
     31  OE1       60.7490   13.1810  -27.9080 O.2    56  GLN56      -0.2717
     32  NE2       59.0360   14.5500  -27.3900 N.am   56  GLN56      -0.0878
     33  N         47.6280   10.3450  -35.4850 N.3   103  LEU103     -0.1231
     34  CA        48.3680   10.8160  -36.6420 C.3   103  LEU103      0.1693
     35  C         49.8460   10.8910  -36.2820 C.2   103  LEU103      0.2592
     36  O         50.2110   11.2850  -35.1680 O.2   103  LEU103     -0.2718
     37  CB        47.8720   12.2050  -37.0730 C.3   103  LEU103      0.0284
     38  CG        46.3650   12.3940  -37.2940 C.3   103  LEU103      0.0019
     39  CD1       46.0680   13.8480  -37.6420 C.3   103  LEU103      0.0001
     40  CD2       45.8800   11.4710  -38.4060 C.3   103  LEU103      0.0001
     41  N         50.6880   10.4830  -37.2230 N.am  104  ALA104     -0.1966
     42  CA        52.1210   10.5410  -37.0310 C.3   104  ALA104      0.1728
     43  C         52.6500   11.6500  -37.9310 C.2   104  ALA104      0.2616
     44  O         52.0290   12.0160  -38.9420 O.2   104  ALA104     -0.2715
     45  CB        52.7650    9.2280  -37.3960 C.3   104  ALA104      0.0334
     46  N         53.8050   12.1760  -37.5570 N.am  105  ARG105     -0.1977
     47  CA        54.4320   13.2430  -38.2960 C.3   105  ARG105      0.1597
     48  C         55.5960   12.6470  -39.0920 C.2   105  ARG105      0.2287
     49  O         56.4730   11.9730  -38.5370 O.2   105  ARG105     -0.2864
     50  CB        54.9050   14.2910  -37.2970 C.3   105  ARG105      0.0334
     51  CG        55.1420   15.6490  -37.8630 C.3   105  ARG105      0.0492
     52  CD        53.8720   16.3690  -38.2570 C.3   105  ARG105      0.2205
     53  NE        54.2510   17.6240  -38.8930 N.pl3 105  ARG105     -0.0865
     54  CZ        53.4220   18.4550  -39.5080 C.cat 105  ARG105      0.5346
     55  NH1       52.1260   18.1850  -39.5860 N.pl3 105  ARG105      0.1354
     56  NH2       53.9060   19.5600  -40.0530 N.pl3 105  ARG105      0.1354
     57  N         57.6970   10.5540  -36.4270 N.3   113  LEU113     -0.1231
     58  CA        57.4290   10.9100  -35.0350 C.3   113  LEU113      0.1693
     59  C         55.9580   10.6470  -34.7530 C.2   113  LEU113      0.2592
     60  O         55.0790   11.0850  -35.5120 O.2   113  LEU113     -0.2718
     61  CB        57.7280   12.3860  -34.7610 C.3   113  LEU113      0.0284
     62  CG        57.0980   12.9440  -33.4740 C.3   113  LEU113      0.0019
     63  CD1       57.6400   12.2010  -32.2660 C.3   113  LEU113      0.0001
     64  CD2       57.3820   14.4370  -33.3530 C.3   113  LEU113      0.0001
     65  N         55.6980    9.9200  -33.6710 N.am  114  TYR114     -0.1962
     66  CA        54.3440    9.5960  -33.2590 C.3   114  TYR114      0.1771
     67  C         54.2890    9.7830  -31.7460 C.2   114  TYR114      0.2619
     68  O         55.0090    9.1230  -30.9990 O.2   114  TYR114     -0.2715
     69  CB        53.9940    8.1570  -33.6550 C.3   114  TYR114      0.0574
     70  CG        52.6150    7.7330  -33.2110 C.ar  114  TYR114     -0.0198
     71  CD1       51.5110    8.5630  -33.4060 C.ar  114  TYR114     -0.0009
     72  CD2       52.4130    6.5080  -32.5850 C.ar  114  TYR114     -0.0009
     73  CE1       50.2450    8.1810  -32.9780 C.ar  114  TYR114      0.0417
     74  CE2       51.1570    6.1140  -32.1610 C.ar  114  TYR114      0.0417
     75  CZ        50.0760    6.9500  -32.3510 C.ar  114  TYR114      0.1957
     76  OH        48.8360    6.5680  -31.8810 O.3   114  TYR114     -0.2866
     77  N         53.4430   10.7010  -31.3000 N.am  115  MET115     -0.1977
     78  CA        53.3430   10.9810  -29.8800 C.3   115  MET115      0.1605
     79  C         51.9230   11.0040  -29.3230 C.2   115  MET115      0.2287
     80  O         51.3300   12.0610  -29.1300 O.2   115  MET115     -0.2864
     81  CB        54.0290   12.3110  -29.5760 C.3   115  MET115      0.0413
     82  CG        54.3250   12.5190  -28.1100 C.3   115  MET115      0.0598
     83  SD        54.8830   14.1830  -27.7770 S.3   115  MET115     -0.1393
     84  CE        56.1300   14.3640  -29.0880 C.3   115  MET115      0.0692
     85  N         55.1640   19.0570  -18.1020 N.3   165  TYR165     -0.1241
     86  CA        53.8120   18.9930  -18.6280 C.3   165  TYR165      0.1605
     87  C         52.8730   18.2820  -17.6570 C.2   165  TYR165      0.2264
     88  O         51.6890   18.0920  -17.9490 O.2   165  TYR165     -0.2867
     89  CB        53.8170   18.2540  -19.9660 C.3   165  TYR165      0.0534
     90  CG        54.7740   18.8140  -20.9950 C.ar  165  TYR165     -0.0201
     91  CD1       54.5960   20.0920  -21.5250 C.ar  165  TYR165     -0.0009
     92  CD2       55.8410   18.0510  -21.4610 C.ar  165  TYR165     -0.0009
     93  CE1       55.4560   20.5910  -22.4980 C.ar  165  TYR165      0.0417
     94  CE2       56.7100   18.5410  -22.4320 C.ar  165  TYR165      0.0417
     95  CZ        56.5130   19.8080  -22.9480 C.ar  165  TYR165      0.1957
     96  OH        57.3710   20.2850  -23.9200 O.3   165  TYR165     -0.2866
@<TRIPOS>BOND
     1    56    54    1
     2    55    54    1
     3    54    53    2
     4    48    49    2
     5    48    47    1
     6    44    43    2
     7    53    52    1
     8    40    38    1
     9    47    46    1
    10    47    50    1
    11    52    51    1
    12    43    46   am
    13    43    42    1
    14    51    50    1
    15    39    38    1
    16    45    42    1
    17    38    37    1
    18    41    42    1
    19    41    35   am
    20    37    34    1
    21    34    35    1
    22    34    33    1
    23    57    58    1
    24    35    36    2
    25    60    59    2
    26    58    61    1
    27    58    59    1
    28    61    62    1
    29    59    65   am
    30    65    66    1
    31    69    66    1
    32    69    70    1
    33    62    64    1
    34    62    63    1
    35    71    70   ar
    36    71    73   ar
    37    66    67    1
    38    70    72   ar
    39    73    75   ar
    40    72    74   ar
    41    75    74   ar
    42    75    76    1
    43    67    77   am
    44    67    68    2
    45    77    78    1
    46    78    81    1
    47    78    79    1
    48    81    82    1
    49    79    80    2
    50    84    83    1
    51    26    27    2
    52    26    25    1
    53    29    30    1
    54    29    28    1
    55    82    83    1
    56    31    30    2
    57    30    32   am
    58    25    28    1
    59    25    24    1
    60    14    15    1
    61    14    11    1
    62    12    11    1
    63    12    13    2
    64    20    17   ar
    65    20    22   ar
    66    15    17   ar
    67    15    16   ar
    68    96    95    1
    69    17    19   ar
    70    11    10    1
    71    22    23   ar
    72     8     9    1
    73     8     7    1
    74    16    18   ar
    75    19    18   ar
    76    19    21   ar
    77    23    21   ar
    78     7     6    1
    79    95    93   ar
    80    95    94   ar
    81    93    91   ar
    82    94    92   ar
    83     6     5    1
    84     5     2    1
    85    91    90   ar
    86    92    90   ar
    87     1     2    1
    88    90    89    1
    89     2     3    1
    90     4     3    2
    91    89    86    1
    92    86    85    1
    93    86    87    1
    94    88    87    2
