@<TRIPOS>MOLECULE
tmp/3wu2S03.pdb
 110 107 0 0 0
SMALL
GASTEIGER

@<TRIPOS>ATOM
      1  N        -38.9210  -88.2520   65.8950 N.3    16  SER16      -0.1217
      2  CA       -39.0380  -87.1490   64.9240 C.3    16  SER16       0.1889
      3  C        -37.9250  -87.3080   63.8730 C.2    16  SER16       0.2288
      4  O        -38.1810  -87.2480   62.6670 O.2    16  SER16      -0.2866
      5  CB       -38.9760  -85.8010   65.6560 C.3    16  SER16       0.2089
      6  OG       -40.1230  -85.6570   66.4970 O.3    16  SER16      -0.2183
      7  N        -38.7880  -90.2700   61.5700 N.3    19  MET19      -0.1230
      8  CA       -39.8410  -89.8010   60.6850 C.3    19  MET19       0.1702
      9  C        -39.3400  -88.7980   59.6210 C.2    19  MET19       0.2592
     10  O        -39.7650  -88.8380   58.4520 O.2    19  MET19      -0.2718
     11  CB       -40.9600  -89.0890   61.4800 C.3    19  MET19       0.0401
     12  CG       -41.7050  -89.9360   62.5190 C.3    19  MET19       0.0596
     13  SD       -42.8070  -91.1320   61.7560 S.3    19  MET19      -0.1393
     14  CE       -44.3220  -90.2370   61.4420 C.3    19  MET19       0.0692
     15  N        -38.4950  -87.8680   60.0400 N.am   20  VAL20      -0.1980
     16  CA       -37.9740  -86.8640   59.1080 C.3    20  VAL20       0.1595
     17  C        -37.2740  -87.5340   57.9230 C.2    20  VAL20       0.2287
     18  O        -37.5280  -87.1740   56.7600 O.2    20  VAL20      -0.2864
     19  CB       -37.0890  -85.8370   59.8520 C.3    20  VAL20       0.0276
     20  CG1      -36.0690  -85.1830   58.9440 C.3    20  VAL20       0.0022
     21  CG2      -37.9810  -84.8020   60.5310 C.3    20  VAL20       0.0022
     22  N        -40.3670  -90.7090   56.3610 N.3    23  VAL23      -0.1245
     23  CA       -41.6090  -90.4010   55.6280 C.3    23  VAL23       0.1561
     24  C        -41.3410  -90.0840   54.1360 C.2    23  VAL23       0.2260
     25  O        -41.9520  -90.7080   53.2700 O.2    23  VAL23      -0.2867
     26  CB       -42.4500  -89.3240   56.3260 C.3    23  VAL23       0.0252
     27  CG1      -43.6610  -88.9550   55.4960 C.3    23  VAL23       0.0019
     28  CG2      -42.8430  -89.7870   57.7140 C.3    23  VAL23       0.0019
     29  N        -42.4850  -92.4820   51.0630 N.3    27  TYR27      -0.1241
     30  CA       -43.3660  -91.8850   50.0440 C.3    27  TYR27       0.1605
     31  C        -42.8470  -91.9760   48.6190 C.2    27  TYR27       0.2264
     32  O        -43.6510  -92.0990   47.6940 O.2    27  TYR27      -0.2867
     33  CB       -43.5930  -90.4050   50.3150 C.3    27  TYR27       0.0534
     34  CG       -44.6130  -90.0610   51.3570 C.ar   27  TYR27      -0.0201
     35  CD1      -45.4960  -91.0200   51.8760 C.ar   27  TYR27      -0.0009
     36  CD2      -44.7330  -88.7420   51.8030 C.ar   27  TYR27      -0.0009
     37  CE1      -46.4510  -90.6660   52.8280 C.ar   27  TYR27       0.0417
     38  CE2      -45.6760  -88.3860   52.7440 C.ar   27  TYR27       0.0417
     39  CZ       -46.5350  -89.3390   53.2530 C.ar   27  TYR27       0.1957
     40  OH       -47.4680  -88.9580   54.1810 O.3    27  TYR27      -0.2866
     41  N        -44.2410 -100.5010   49.9340 N.3    33  TRP33      -0.1241
     42  CA       -45.1170  -99.3880   50.3130 C.3    33  TRP33       0.1605
     43  C        -46.2380  -99.7570   51.2720 C.2    33  TRP33       0.2264
     44  O        -46.7550  -98.9030   52.0140 O.2    33  TRP33      -0.2867
     45  CB       -45.6690  -98.6950   49.0670 C.3    33  TRP33       0.0550
     46  CG       -46.8580  -97.7940   49.3540 C.ar   33  TRP33       0.0003
     47  CD1      -48.1760  -97.9470   48.9120 C.ar   33  TRP33       0.0946
     48  CD2      -46.8860  -96.5720   50.1860 C.ar   33  TRP33       0.0152
     49  NE1      -48.9880  -96.9350   49.3880 N.ar   33  TRP33      -0.2442
     50  CE2      -48.2850  -96.0820   50.1570 C.ar   33  TRP33       0.0810
     51  CE3      -45.9360  -95.8620   50.9210 C.ar   33  TRP33       0.0012
     52  CZ2      -48.6780  -94.9360   50.8270 C.ar   33  TRP33       0.0191
     53  CZ3      -46.3530  -94.7140   51.5980 C.ar   33  TRP33       0.0001
     54  CH2      -47.6950  -94.2670   51.5490 C.ar   33  TRP33       0.0015
     55  N        -46.8110  -97.6990   54.7690 N.3    37  LYS37      -0.1245
     56  CA       -47.9840  -96.9020   55.0830 C.3    37  LYS37       0.1561
     57  C        -48.4320  -97.1300   56.5320 C.2    37  LYS37       0.2260
     58  O        -48.9110  -96.1910   57.2050 O.2    37  LYS37      -0.2867
     59  CB       -49.1090  -97.1790   54.0800 C.3    37  LYS37       0.0271
     60  CG       -50.3800  -96.3750   54.3110 C.3    37  LYS37       0.0035
     61  CD       -51.4190  -96.7790   53.2970 C.3    37  LYS37       0.0206
     62  CE       -52.6350  -95.8910   53.3930 C.3    37  LYS37       0.1093
     63  NZ       -53.4720  -96.1340   52.1900 N.3    37  LYS37      -0.1314
     64  N        -45.8550  -95.5880   58.9160 N.3    40  ILE40      -0.1231
     65  CA       -46.0790  -94.1440   58.9210 C.3    40  ILE40       0.1692
     66  C        -47.2790  -93.8030   59.8040 C.2    40  ILE40       0.2592
     67  O        -47.1800  -92.9130   60.6560 O.2    40  ILE40      -0.2718
     68  CB       -46.1480  -93.5700   57.4770 C.3    40  ILE40       0.0266
     69  CG1      -44.7590  -93.6640   56.8400 C.3    40  ILE40       0.0019
     70  CG2      -46.6560  -92.1350   57.4590 C.3    40  ILE40       0.0020
     71  CD1      -44.7380  -93.5190   55.3350 C.3    40  ILE40       0.0001
     72  N        -48.3720  -94.5510   59.6540 N.am   41  PHE41      -0.1976
     73  CA       -49.5250  -94.4120   60.5510 C.3    41  PHE41       0.1639
     74  C        -49.1490  -94.6440   62.0050 C.2    41  PHE41       0.2290
     75  O        -49.6520  -93.9430   62.8860 O.2    41  PHE41      -0.2864
     76  CB       -50.6450  -95.3930   60.1910 C.3    41  PHE41       0.0560
     77  CG       -51.7060  -94.8170   59.3040 C.ar   41  PHE41      -0.0200
     78  CD1      -52.6900  -93.9700   59.8240 C.ar   41  PHE41      -0.0042
     79  CD2      -51.7510  -95.1490   57.9430 C.ar   41  PHE41      -0.0042
     80  CE1      -53.6830  -93.4450   59.0010 C.ar   41  PHE41      -0.0003
     81  CE2      -52.7420  -94.6350   57.1170 C.ar   41  PHE41      -0.0003
     82  CZ       -53.7100  -93.7820   57.6460 C.ar   41  PHE41      -0.0000
     83  N        -46.9710  -91.8290   63.3610 N.3    44  SER44      -0.1217
     84  CA       -47.7800  -90.6040   63.5200 C.3    44  SER44       0.1889
     85  C        -48.6000  -90.5890   64.7990 C.2    44  SER44       0.2288
     86  O        -48.5380  -89.6220   65.5690 O.2    44  SER44      -0.2866
     87  CB       -48.7060  -90.3500   62.3240 C.3    44  SER44       0.2089
     88  OG       -47.9650  -90.1760   61.1280 O.3    44  SER44      -0.2183
     89  N        -46.1370  -90.4190   67.5660 N.3    47  TRP47      -0.1227
     90  CA       -45.5410  -89.0680   67.6430 C.3    47  TRP47       0.1737
     91  C        -46.4950  -88.1560   68.3550 C.2    47  TRP47       0.2595
     92  O        -46.1410  -87.5100   69.3370 O.2    47  TRP47      -0.2718
     93  CB       -45.1940  -88.5700   66.2390 C.3    47  TRP47       0.0564
     94  CG       -44.4660  -87.2540   66.2390 C.ar   47  TRP47       0.0003
     95  CD1      -43.0810  -87.0370   66.2620 C.ar   47  TRP47       0.0946
     96  CD2      -45.0730  -85.9250   66.2360 C.ar   47  TRP47       0.0152
     97  NE1      -42.7980  -85.6910   66.2770 N.ar   47  TRP47      -0.2442
     98  CE2      -43.9550  -84.9630   66.2490 C.ar   47  TRP47       0.0810
     99  CE3      -46.3860  -85.4440   66.1810 C.ar   47  TRP47       0.0012
    100  CZ2      -44.1680  -83.5880   66.2160 C.ar   47  TRP47       0.0191
    101  CZ3      -46.5840  -84.0560   66.1430 C.ar   47  TRP47       0.0001
    102  CH2      -45.5020  -83.1530   66.1510 C.ar   47  TRP47       0.0015
    103  N        -47.7580  -88.1610   67.9360 N.am   48  ILE48      -0.1980
    104  CA       -48.8130  -87.3970   68.6060 C.3    48  ILE48       0.1595
    105  C        -48.9600  -87.7540   70.0980 C.2    48  ILE48       0.2287
    106  O        -49.2040  -86.8660   70.9210 O.2    48  ILE48      -0.2864
    107  CB       -50.1710  -87.6120   67.8990 C.3    48  ILE48       0.0276
    108  CG1      -50.1220  -87.0440   66.4800 C.3    48  ILE48       0.0022
    109  CG2      -51.3220  -86.9810   68.6710 C.3    48  ILE48       0.0022
    110  CD1      -51.4080  -87.2010   65.7040 C.3    48  ILE48       0.0001
@<TRIPOS>BOND
     1    32    31    2
     2    31    30    1
     3    47    46   ar
     4    47    49   ar
     5    45    46    1
     6    45    42    1
     7    46    48   ar
     8    49    50   ar
     9    41    42    1
    10    30    33    1
    11    30    29    1
    12    50    48   ar
    13    50    52   ar
    14    48    51   ar
    15    42    43    1
    16    33    34    1
    17    52    54   ar
    18    51    53   ar
    19    43    44    2
    20    34    36   ar
    21    34    35   ar
    22    54    53   ar
    23    36    38   ar
    24    35    37   ar
    25    63    62    1
    26    38    39   ar
    27    37    39   ar
    28    39    40    1
    29    25    24    2
    30    61    62    1
    31    61    60    1
    32    59    60    1
    33    59    56    1
    34    24    23    1
    35    55    56    1
    36    56    57    1
    37    71    69    1
    38    27    26    1
    39    23    26    1
    40    23    22    1
    41    26    28    1
    42    57    58    2
    43    18    17    2
    44    69    68    1
    45    81    82   ar
    46    81    79   ar
    47    70    68    1
    48    68    65    1
    49    82    80   ar
    50    17    16    1
    51    79    77   ar
    52    10     9    2
    53    64    65    1
    54    65    66    1
    55    20    19    1
    56    80    78   ar
    57    16    19    1
    58    16    15    1
    59    77    78   ar
    60    77    76    1
    61     9    15   am
    62     9     8    1
    63    72    66   am
    64    72    73    1
    65    66    67    2
    66    19    21    1
    67    76    73    1
    68    73    74    1
    69     8    11    1
    70     8     7    1
    71    88    87    1
    72    14    13    1
    73    11    12    1
    74    13    12    1
    75    74    75    2
    76    87    84    1
    77     4     3    2
    78    83    84    1
    79    84    85    1
    80     3     2    1
    81    85    86    2
    82     2     5    1
    83     2     1    1
    84     5     6    1
    85   110   108    1
    86   101   102   ar
    87   101    99   ar
    88   102   100   ar
    89    99    96   ar
    90   100    98   ar
    91    96    94   ar
    92    96    98   ar
    93    93    94    1
    94    93    90    1
    95    94    95   ar
    96    98    97   ar
    97    95    97   ar
    98   108   107    1
    99    89    90    1
   100    90    91    1
   101   107   104    1
   102   107   109    1
   103   103    91   am
   104   103   104    1
   105    91    92    2
   106   104   105    1
   107   105   106    2
