@<TRIPOS>MOLECULE
tmp/3wu2D03.pdb
 94 92 0 0 0
SMALL
GASTEIGER

@<TRIPOS>ATOM
      1  N          4.4470  -66.3810   35.1380 N.3    28  PRO28      -0.2116
      2  CA         5.2240  -66.2110   36.3500 C.3    28  PRO28       0.1372
      3  C          4.8390  -64.8630   37.0370 C.2    28  PRO28       0.2244
      4  O          4.7140  -64.7890   38.2650 O.2    28  PRO28      -0.2868
      5  CB         6.6920  -66.0940   35.8520 C.3    28  PRO28       0.0268
      6  CG         6.6350  -66.1890   34.3630 C.3    28  PRO28       0.0207
      7  CD         5.2600  -66.6490   33.9480 C.3    28  PRO28       0.0892
      8  N          1.3530  -65.0500   38.6190 N.3    31  TYR31      -0.1227
      9  CA         1.3510  -65.9830   39.7290 C.3    31  TYR31       0.1736
     10  C          2.0130  -65.3640   40.9320 C.2    31  TYR31       0.2595
     11  O          1.5200  -65.5110   42.0590 O.2    31  TYR31      -0.2718
     12  CB         2.1190  -67.2700   39.3370 C.3    31  TYR31       0.0548
     13  CG         2.0690  -68.3380   40.4110 C.ar   31  TYR31      -0.0200
     14  CD1        0.8310  -68.8340   40.8930 C.ar   31  TYR31      -0.0009
     15  CD2        3.2460  -68.8790   40.9400 C.ar   31  TYR31      -0.0009
     16  CE1        0.8130  -69.8360   41.8690 C.ar   31  TYR31       0.0417
     17  CE2        3.2140  -69.9020   41.9060 C.ar   31  TYR31       0.0417
     18  CZ         2.0210  -70.3460   42.3710 C.ar   31  TYR31       0.1957
     19  OH         1.9980  -71.3320   43.3260 O.3    31  TYR31      -0.2866
     20  N          3.1430  -64.6750   40.7150 N.am   32  LEU32      -0.1980
     21  CA         3.8670  -64.0910   41.8510 C.3    32  LEU32       0.1596
     22  C          3.0700  -62.8870   42.4470 C.2    32  LEU32       0.2287
     23  O          2.9470  -62.7480   43.6770 O.2    32  LEU32      -0.2864
     24  CB         5.3080  -63.6470   41.4370 C.3    32  LEU32       0.0297
     25  CG         6.2870  -64.8360   41.1560 C.3    32  LEU32       0.0022
     26  CD1        7.6970  -64.4120   40.7300 C.3    32  LEU32       0.0001
     27  CD2        6.2820  -65.8410   42.2920 C.3    32  LEU32       0.0001
     28  N          0.2230  -64.2830   50.1790 N.3    39  THR39      -0.1218
     29  CA         1.2100  -64.4930   51.2430 C.3    39  THR39       0.1862
     30  C          1.2470  -63.3430   52.2530 C.2    39  THR39       0.2287
     31  O          1.2570  -63.5610   53.4550 O.2    39  THR39      -0.2866
     32  CB         2.6190  -64.7110   50.6250 C.3    39  THR39       0.1770
     33  OG1        2.5760  -65.8560   49.7620 O.3    39  THR39      -0.2211
     34  CG2        3.6800  -64.8370   51.7010 C.3    39  THR39       0.0375
     35  N          0.1080  -63.6310   56.2540 N.3    43  PHE43      -0.1241
     36  CA         1.1750  -63.7550   57.2530 C.3    43  PHE43       0.1605
     37  C          1.9430  -62.5090   57.6000 C.2    43  PHE43       0.2264
     38  O          2.6790  -62.5200   58.5900 O.2    43  PHE43      -0.2867
     39  CB         2.2590  -64.7300   56.6950 C.3    43  PHE43       0.0534
     40  CG         1.7470  -66.1260   56.5420 C.ar   43  PHE43      -0.0203
     41  CD1        1.6670  -66.7130   55.2750 C.ar   43  PHE43      -0.0042
     42  CD2        1.3030  -66.8340   57.6530 C.ar   43  PHE43      -0.0042
     43  CE1        1.1870  -68.0220   55.1220 C.ar   43  PHE43      -0.0003
     44  CE2        0.7810  -68.1310   57.5120 C.ar   43  PHE43      -0.0003
     45  CZ         0.7350  -68.7200   56.2390 C.ar   43  PHE43      -0.0000
     46  N         14.8920  -57.7510   46.8280 N.3    81  LEU81      -0.1245
     47  CA        15.2840  -58.6430   47.9360 C.3    81  LEU81       0.1561
     48  C         16.8140  -58.5400   48.1740 C.2    81  LEU81       0.2260
     49  O         17.2580  -58.4360   49.3310 O.2    81  LEU81      -0.2867
     50  CB        14.8320  -60.0890   47.6920 C.3    81  LEU81       0.0270
     51  CG        15.3340  -61.1130   48.7230 C.3    81  LEU81       0.0019
     52  CD1       14.9560  -60.8070   50.1820 C.3    81  LEU81       0.0001
     53  CD2       14.8690  -62.4720   48.2820 C.3    81  LEU81       0.0001
     54  N         19.3350  -59.1770   51.0520 N.3    88  GLY88      -0.1210
     55  CA        19.1360  -60.6200   50.9130 C.3    88  GLY88       0.1956
     56  C         18.3280  -61.3080   52.0140 C.2    88  GLY88       0.2612
     57  O         18.0270  -62.4950   51.9070 O.2    88  GLY88      -0.2717
     58  N         17.9320  -60.5710   53.0420 N.am   89  ASP89      -0.1959
     59  CA        17.2270  -61.1320   54.1730 C.3    89  ASP89       0.1840
     60  C         15.6980  -61.0630   53.9580 C.2    89  ASP89       0.2622
     61  O         15.0750  -59.9780   53.9830 O.2    89  ASP89      -0.2715
     62  CB        17.6650  -60.3730   55.4210 C.3    89  ASP89       0.1450
     63  CG        17.1040  -60.9320   56.7050 C.2    89  ASP89       0.3671
     64  OD1       17.8280  -60.7880   57.6930 O.co2  89  ASP89      -0.2456
     65  OD2       15.9770  -61.4470   56.8190 O.co2  89  ASP89      -0.2456
     66  N         15.1280  -62.2370   53.7540 N.am   90  PHE90      -0.1960
     67  CA        13.7800  -62.3610   53.3280 C.3    90  PHE90       0.1771
     68  C         12.8470  -61.8500   54.4250 C.2    90  PHE90       0.2620
     69  O         11.8930  -61.1580   54.1150 O.2    90  PHE90      -0.2715
     70  CB        13.4690  -63.7890   52.9610 C.3    90  PHE90       0.0574
     71  CG        12.0110  -64.0240   52.7400 C.ar   90  PHE90      -0.0200
     72  CD1       11.4470  -63.7990   51.4710 C.ar   90  PHE90      -0.0042
     73  CD2       11.2160  -64.4150   53.8050 C.ar   90  PHE90      -0.0042
     74  CE1       10.0680  -63.9560   51.2980 C.ar   90  PHE90      -0.0003
     75  CE2        9.8430  -64.5810   53.6370 C.ar   90  PHE90      -0.0003
     76  CZ         9.2930  -64.3700   52.3700 C.ar   90  PHE90      -0.0000
     77  N         13.1510  -62.1740   55.6860 N.am   91  THR91      -0.1937
     78  CA        12.4010  -61.7020   56.8340 C.3    91  THR91       0.2028
     79  C         12.4040  -60.1480   56.9170 C.2    91  THR91       0.2642
     80  O         11.3390  -59.5220   56.9530 O.2    91  THR91      -0.2714
     81  CB        12.8670  -62.4010   58.1670 C.3    91  THR91       0.1808
     82  OG1       12.6950  -63.8290   58.0150 O.3    91  THR91      -0.2208
     83  CG2       11.9900  -61.9340   59.3600 C.3    91  THR91       0.0379
     84  N         13.5900  -59.5350   56.9040 N.am   92  ARG92      -0.1977
     85  CA        13.7160  -58.1110   56.9880 C.3    92  ARG92       0.1597
     86  C         13.0090  -57.4680   55.7600 C.2    92  ARG92       0.2287
     87  O         12.3620  -56.4310   55.8980 O.2    92  ARG92      -0.2864
     88  CB        15.1990  -57.7040   57.0270 C.3    92  ARG92       0.0334
     89  CG        15.8990  -58.1810   58.2970 C.3    92  ARG92       0.0492
     90  CD        15.5180  -57.3690   59.5360 C.3    92  ARG92       0.2205
     91  NE        16.1660  -57.9980   60.6760 N.pl3  92  ARG92      -0.0865
     92  CZ        15.5700  -58.8260   61.5100 C.cat  92  ARG92       0.5346
     93  NH1       14.2630  -59.0960   61.3870 N.pl3  92  ARG92       0.1354
     94  NH2       16.2920  -59.3620   62.5030 N.pl3  92  ARG92       0.1354
@<TRIPOS>BOND
     1     7     6    1
     2     7     1    1
     3     6     5    1
     4     1     2    1
     5     5     2    1
     6     2     3    1
     7     3     4    2
     8     8     9    1
     9    12     9    1
    10    12    13    1
    11     9    10    1
    12    13    14   ar
    13    13    15   ar
    14    20    10   am
    15    20    21    1
    16    26    25    1
    17    14    16   ar
    18    10    11    2
    19    15    17   ar
    20    25    24    1
    21    25    27    1
    22    24    21    1
    23    21    22    1
    24    16    18   ar
    25    17    18   ar
    26    18    19    1
    27    22    23    2
    28    46    47    1
    29    50    47    1
    30    50    51    1
    31    47    48    1
    32    48    49    2
    33    53    51    1
    34    51    52    1
    35    33    32    1
    36    28    29    1
    37    32    29    1
    38    32    34    1
    39    55    54    1
    40    55    56    1
    41    29    30    1
    42    74    72   ar
    43    74    76   ar
    44    72    71   ar
    45    57    56    2
    46    56    58   am
    47    30    31    2
    48    76    75   ar
    49    71    70    1
    50    71    73   ar
    51    70    67    1
    52    58    59    1
    53    67    66    1
    54    67    68    1
    55    75    73   ar
    56    66    60   am
    57    60    61    2
    58    60    59    1
    59    69    68    2
    60    59    62    1
    61    68    77   am
    62    43    41   ar
    63    43    45   ar
    64    41    40   ar
    65    62    63    1
    66    77    78    1
    67    86    87    2
    68    86    85    1
    69    45    44   ar
    70    35    36    1
    71    40    39    1
    72    40    42   ar
    73    39    36    1
    74    63    65   ar
    75    63    64   ar
    76    78    79    1
    77    78    81    1
    78    84    79   am
    79    84    85    1
    80    79    80    2
    81    85    88    1
    82    88    89    1
    83    36    37    1
    84    44    42   ar
    85    37    38    2
    86    82    81    1
    87    81    83    1
    88    89    90    1
    89    90    91    1
    90    91    92    2
    91    93    92    1
    92    92    94    1
