@<TRIPOS>MOLECULE
tmp/3wu2U21.pdb
 96 90 0 0 0
SMALL
GASTEIGER

@<TRIPOS>ATOM
      1  N        -58.7530   -3.3690   14.3850 N.3   147  LEU147     -0.1245
      2  CA       -59.3890   -3.8070   15.6370 C.3   147  LEU147      0.1561
      3  C        -58.4260   -3.7130   16.8140 C.2   147  LEU147      0.2260
      4  O        -58.7850   -3.2220   17.8970 O.2   147  LEU147     -0.2867
      5  CB       -59.8950   -5.2350   15.5470 C.3   147  LEU147      0.0270
      6  CG       -60.9840   -5.6010   14.5500 C.3   147  LEU147      0.0019
      7  CD1      -60.9850   -7.1050   14.4760 C.3   147  LEU147      0.0001
      8  CD2      -62.3410   -5.0690   14.9830 C.3   147  LEU147      0.0001
      9  N        -57.5440    0.0600   17.6310 N.3   150  PHE150     -0.1241
     10  CA       -58.7440    0.6190   18.3050 C.3   150  PHE150      0.1605
     11  C        -58.8080    0.1240   19.7520 C.2   150  PHE150      0.2264
     12  O        -58.8770    0.9450   20.6740 O.2   150  PHE150     -0.2867
     13  CB       -60.0310    0.1820   17.5640 C.3   150  PHE150      0.0534
     14  CG       -61.2920    0.5990   18.3030 C.ar  150  PHE150     -0.0203
     15  CD1      -62.0270   -0.3280   19.0560 C.ar  150  PHE150     -0.0042
     16  CD2      -61.6790    1.9320   18.3130 C.ar  150  PHE150     -0.0042
     17  CE1      -63.1530    0.0770   19.7960 C.ar  150  PHE150     -0.0003
     18  CE2      -62.8120    2.3360   19.0320 C.ar  150  PHE150     -0.0003
     19  CZ       -63.5430    1.4000   19.7730 C.ar  150  PHE150     -0.0000
     20  N        -58.8330    2.2840   23.0140 N.3   154  ALA154     -0.1245
     21  CA       -60.1400    2.4380   23.7180 C.3   154  ALA154      0.1562
     22  C        -60.1790    1.7580   25.1120 C.2   154  ALA154      0.2260
     23  O        -60.8460    2.2590   26.0400 O.2   154  ALA154     -0.2867
     24  CB       -61.2400    1.8700   22.8300 C.3   154  ALA154      0.0290
     25  N        -57.0000    4.1120   27.8630 N.3   158  THR158     -0.1218
     26  CA       -57.9810    4.8330   28.6890 C.3   158  THR158      0.1862
     27  C        -58.1020    4.3290   30.1210 C.2   158  THR158      0.2287
     28  O        -58.6590    5.0350   30.9730 O.2   158  THR158     -0.2866
     29  CB       -59.3920    4.6680   28.1090 C.3   158  THR158      0.1770
     30  OG1      -59.6820    3.2600   27.9700 O.3   158  THR158     -0.2211
     31  CG2      -59.4880    5.3770   26.7090 C.3   158  THR158      0.0375
     32  N        -60.0990    1.9500   30.7620 N.3   160  LEU160     -0.1245
     33  CA       -61.4080    1.2580   30.7260 C.3   160  LEU160      0.1561
     34  C        -61.2480   -0.2550   30.8720 C.2   160  LEU160      0.2260
     35  O        -62.0670   -0.9580   31.5080 O.2   160  LEU160     -0.2867
     36  CB       -62.1060    1.5900   29.4250 C.3   160  LEU160      0.0270
     37  CG       -63.5340    1.1890   29.0970 C.3   160  LEU160      0.0019
     38  CD1      -64.4630    1.2780   30.3040 C.3   160  LEU160      0.0001
     39  CD2      -63.9840    2.1190   27.9710 C.3   160  LEU160      0.0001
     40  N        -55.6080    7.5660   30.5160 N.3   180  VAL180     -0.1231
     41  CA       -55.5940    8.8230   29.7990 C.3   180  VAL180      0.1692
     42  C        -56.8230    8.9140   28.8840 C.2   180  VAL180      0.2592
     43  O        -57.0760    7.9820   28.1080 O.2   180  VAL180     -0.2718
     44  CB       -54.3000    8.9650   28.9400 C.3   180  VAL180      0.0266
     45  CG1      -54.3450   10.2610   28.1110 C.3   180  VAL180      0.0020
     46  CG2      -53.0830    8.9750   29.8680 C.3   180  VAL180      0.0020
     47  N        -57.5920   10.0130   28.9700 N.am  181  ALA181     -0.1966
     48  CA       -58.7790   10.2130   28.0760 C.3   181  ALA181      0.1713
     49  C        -58.3230   10.7660   26.7300 C.2   181  ALA181      0.2458
     50  O        -57.3740   11.5180   26.7020 O.2   181  ALA181     -0.2730
     51  CB       -59.7980   11.2090   28.7290 C.3   181  ALA181      0.0333
     52  N        -58.9910   10.3970   25.6190 N.am  182  PRO182     -0.2727
     53  CA       -58.6640   10.9420   24.2970 C.3   182  PRO182      0.1402
     54  C        -58.8780   12.4450   24.2430 C.2   182  PRO182      0.2269
     55  O        -59.8190   12.9650   24.8620 O.2   182  PRO182     -0.2865
     56  CB       -59.6050   10.2040   23.3480 C.3   182  PRO182      0.0296
     57  CG       -60.7440    9.7160   24.2180 C.3   182  PRO182      0.0237
     58  CD       -60.1240    9.4300   25.5580 C.3   182  PRO182      0.0939
     59  N        -59.8680   15.2560   21.7290 N.3   184  TRP184     -0.1241
     60  CA       -60.5380   15.3200   20.4290 C.3   184  TRP184      0.1605
     61  C        -60.4230   16.6300   19.7260 C.2   184  TRP184      0.2264
     62  O        -60.8200   16.7370   18.5570 O.2   184  TRP184     -0.2867
     63  CB       -61.9950   14.8560   20.5350 C.3   184  TRP184      0.0550
     64  CG       -62.1160   13.3940   20.8770 C.ar  184  TRP184      0.0003
     65  CD1      -62.6110   12.8440   22.0500 C.ar  184  TRP184      0.0946
     66  CD2      -61.7100   12.2430   20.0450 C.ar  184  TRP184      0.0152
     67  NE1      -62.5390   11.4790   22.0050 N.ar  184  TRP184     -0.2442
     68  CE2      -62.0160   11.0530   20.8200 C.ar  184  TRP184      0.0810
     69  CE3      -61.1030   12.0990   18.7950 C.ar  184  TRP184      0.0012
     70  CZ2      -61.7410    9.7630   20.3440 C.ar  184  TRP184      0.0191
     71  CZ3      -60.8640   10.8020   18.3050 C.ar  184  TRP184      0.0001
     72  CH2      -61.1640    9.6610   19.0640 C.ar  184  TRP184      0.0015
     73  N        -57.8110    5.3680   18.8280 N.3   202  ILE202     -0.1245
     74  CA       -59.2780    5.1690   18.6350 C.3   202  ILE202      0.1561
     75  C        -59.6090    5.5110   17.1660 C.2   202  ILE202      0.2260
     76  O        -60.1230    4.6900   16.4190 O.2   202  ILE202     -0.2867
     77  CB       -60.0750    6.0070   19.6470 C.3   202  ILE202      0.0252
     78  CG1      -59.8550    5.4040   21.0510 C.3   202  ILE202      0.0019
     79  CG2      -61.5840    5.9810   19.3080 C.3   202  ILE202      0.0019
     80  CD1      -60.3370    6.2460   22.2310 C.3   202  ILE202      0.0001
     81  N        -60.3940    2.9180   13.9560 N.3   206  ILE206     -0.1245
     82  CA       -61.7050    2.8190   13.2340 C.3   206  ILE206      0.1561
     83  C        -61.4510    2.9650   11.7180 C.2   206  ILE206      0.2260
     84  O        -61.9840    2.2030   10.8850 O.2   206  ILE206     -0.2867
     85  CB       -62.6420    3.9240   13.7670 C.3   206  ILE206      0.0252
     86  CG1      -63.0300    3.6290   15.2230 C.3   206  ILE206      0.0019
     87  CG2      -63.8080    4.1850   12.7800 C.3   206  ILE206      0.0019
     88  CD1      -63.4300    4.8770   16.0210 C.3   206  ILE206      0.0001
     89  N        -60.2740   -0.2980   10.4840 N.3   209  ILE209     -0.1245
     90  CA       -61.4040   -1.2580   10.3440 C.3   209  ILE209      0.1561
     91  C        -62.1580   -0.9460    9.0270 C.2   209  ILE209      0.2260
     92  O        -62.3860   -1.8250    8.2180 O.2   209  ILE209     -0.2867
     93  CB       -62.3590   -1.2010   11.5490 C.3   209  ILE209      0.0252
     94  CG1      -61.6370   -1.7700   12.7770 C.3   209  ILE209      0.0019
     95  CG2      -63.6240   -2.0240   11.2770 C.3   209  ILE209      0.0019
     96  CD1      -62.2050   -1.2570   14.0840 C.3   209  ILE209      0.0001
@<TRIPOS>BOND
     1    92    91    2
     2    91    90    1
     3    90    89    1
     4    90    93    1
     5    84    83    2
     6    95    93    1
     7    93    94    1
     8    83    82    1
     9    94    96    1
    10    87    85    1
    11    82    85    1
    12    82    81    1
    13    85    86    1
    14     1     2    1
    15     7     6    1
    16     6     8    1
    17     6     5    1
    18    86    88    1
    19     5     2    1
    20     2     3    1
    21    76    75    2
    22     3     4    2
    23    75    74    1
    24    13    14    1
    25    13    10    1
    26     9    10    1
    27    14    16   ar
    28    14    15   ar
    29    10    11    1
    30    71    69   ar
    31    71    72   ar
    32    16    18   ar
    33    62    61    2
    34    74    73    1
    35    74    77    1
    36    69    66   ar
    37    18    19   ar
    38    15    17   ar
    39    72    70   ar
    40    79    77    1
    41    77    78    1
    42    61    60    1
    43    11    12    2
    44    19    17   ar
    45    66    68   ar
    46    66    64   ar
    47    70    68   ar
    48    60    63    1
    49    60    59    1
    50    63    64    1
    51    68    67   ar
    52    64    65   ar
    53    78    80    1
    54    67    65   ar
    55    24    21    1
    56    20    21    1
    57    56    57    1
    58    56    53    1
    59    21    22    1
    60    57    58    1
    61    54    53    1
    62    54    55    2
    63    53    52    1
    64    22    23    2
    65    58    52    1
    66    52    49   am
    67    50    49    2
    68    31    29    1
    69    49    48    1
    70    25    26    1
    71    30    29    1
    72    39    37    1
    73    48    51    1
    74    48    47    1
    75    43    42    2
    76    29    26    1
    77    45    44    1
    78    26    27    1
    79    42    47   am
    80    42    41    1
    81    44    41    1
    82    44    46    1
    83    37    36    1
    84    37    38    1
    85    36    33    1
    86    41    40    1
    87    27    28    2
    88    33    32    1
    89    33    34    1
    90    34    35    2
