@<TRIPOS>MOLECULE
tmp/3wucB01.pdb
 136 128 0 0 0
SMALL
GASTEIGER

@<TRIPOS>ATOM
      1  N        -26.7870   -9.1020   18.3890 N.3     3  MET3       -0.1245
      2  CA       -27.0100   -7.6170   18.3600 C.3     3  MET3        0.1570
      3  C        -25.7170   -6.8430   18.6400 C.2     3  MET3        0.2261
      4  O        -25.6570   -5.6250   18.3370 O.2     3  MET3       -0.2867
      5  CB       -28.1720   -7.1460   19.2600 C.3     3  MET3        0.0387
      6  CG       -29.4890   -7.7050   18.8060 C.3     3  MET3        0.0595
      7  SD       -29.9250   -7.0490   17.1640 S.3     3  MET3       -0.1393
      8  CE       -30.8160   -5.6060   17.7940 C.3     3  MET3        0.0692
      9  N        -21.6110   -6.6120   17.8620 N.3     5  MET5       -0.1245
     10  CA       -20.5590   -7.0020   16.9610 C.3     5  MET5        0.1570
     11  C        -19.3660   -7.5810   17.7410 C.2     5  MET5        0.2261
     12  O        -19.1820   -7.2490   18.9260 O.2     5  MET5       -0.2867
     13  CB       -20.1290   -5.7360   16.2470 C.3     5  MET5        0.0387
     14  CG       -21.2560   -5.1130   15.3790 C.3     5  MET5        0.0595
     15  SD       -20.8320   -3.6080   14.4970 S.3     5  MET5       -0.1393
     16  CE       -20.7240   -2.4730   15.9120 C.3     5  MET5        0.0692
     17  N        -23.8870   -6.6750   10.3510 N.3    34  ARG34      -0.1245
     18  CA       -23.4570   -5.2870   10.3200 C.3    34  ARG34       0.1563
     19  C        -21.9790   -5.2820   10.7120 C.2    34  ARG34       0.2260
     20  O        -21.4580   -6.2510   11.3320 O.2    34  ARG34      -0.2867
     21  CB       -24.2870   -4.4190   11.2730 C.3    34  ARG34       0.0307
     22  CG       -24.0110   -4.6560   12.7370 C.3    34  ARG34       0.0489
     23  CD       -24.8820   -3.7470   13.5340 C.3    34  ARG34       0.2205
     24  NE       -24.7140   -3.9060   14.9710 N.pl3  34  ARG34      -0.0865
     25  CZ       -24.5170   -2.9310   15.8220 C.cat  34  ARG34       0.5346
     26  NH1      -24.4600   -1.6290   15.5130 N.pl3  34  ARG34       0.1354
     27  NH2      -24.4330   -3.2910   17.1350 N.pl3  34  ARG34       0.1354
     28  N        -19.0580    7.1640   14.0350 N.3    49  HIS49      -0.1241
     29  CA       -19.3470    5.7360   14.0250 C.3    49  HIS49       0.1621
     30  C        -19.9720    5.4220   12.6870 C.2    49  HIS49       0.2264
     31  O        -21.0020    5.9830   12.3970 O.2    49  HIS49      -0.2867
     32  CB       -20.3500    5.4420   15.1480 C.3    49  HIS49       0.0745
     33  CG       -21.0470    4.1060   15.1120 C.ar   49  HIS49       0.0817
     34  ND1      -20.4540    2.8960   15.4050 N.ar   49  HIS49      -0.2268
     35  CD2      -22.3620    3.7950   14.9400 C.ar   49  HIS49       0.1154
     36  CE1      -21.3360    1.9270   15.3980 C.ar   49  HIS49       0.1986
     37  NE2      -22.5090    2.4510   15.1330 N.ar   49  HIS49      -0.2212
     38  N        -21.4180    2.6390   10.3560 N.3    51  ASN51      -0.1240
     39  CA       -21.9760    1.3870   10.6210 C.3    51  ASN51       0.1653
     40  C        -22.8500    0.8230    9.4600 C.2    51  ASN51       0.2266
     41  O        -24.0760    0.8780    9.4860 O.2    51  ASN51      -0.2867
     42  CB       -22.7810    1.4440   11.9200 C.3    51  ASN51       0.1155
     43  CG       -23.2940    0.0820   12.4410 C.2    51  ASN51       0.2627
     44  OD1      -24.4110    0.0980   13.0780 O.2    51  ASN51      -0.2716
     45  ND2      -22.6180   -1.0470   12.2030 N.am   51  ASN51      -0.0877
     46  N        -25.1170   -1.6110    7.7730 N.3    53  ARG53      -0.1245
     47  CA       -26.0070   -2.6460    8.2660 C.3    53  ARG53       0.1563
     48  C        -26.6010   -3.4270    7.1100 C.2    53  ARG53       0.2260
     49  O        -27.3420   -2.8540    6.2890 O.2    53  ARG53      -0.2867
     50  CB       -27.1600   -2.0540    9.0130 C.3    53  ARG53       0.0307
     51  CG       -26.6200   -1.3820   10.3190 C.3    53  ARG53       0.0489
     52  CD       -27.6340   -0.4460   10.9930 C.3    53  ARG53       0.2205
     53  NE       -27.0990    0.0450   12.2770 N.pl3  53  ARG53      -0.0865
     54  CZ       -27.8490    0.5160   13.2940 C.cat  53  ARG53       0.5346
     55  NH1      -29.1940    0.6440   13.1530 N.pl3  53  ARG53       0.1354
     56  NH2      -27.2630    0.8880   14.3920 N.pl3  53  ARG53       0.1354
     57  N        -30.1430   -4.9790   10.4770 N.3    56  TYR56      -0.1227
     58  CA       -30.0860   -4.7230   11.8960 C.3    56  TYR56       0.1736
     59  C        -31.1230   -3.7130   12.2320 C.2    56  TYR56       0.2596
     60  O        -31.2690   -2.6950   11.5790 O.2    56  TYR56      -0.2718
     61  CB       -28.6700   -4.2560   12.2720 C.3    56  TYR56       0.0548
     62  CG       -28.4320   -4.0270   13.7200 C.ar   56  TYR56      -0.0200
     63  CD1      -27.9560   -5.0580   14.4980 C.ar   56  TYR56      -0.0009
     64  CD2      -28.6690   -2.7840   14.2880 C.ar   56  TYR56      -0.0009
     65  CE1      -27.7540   -4.8600   15.8180 C.ar   56  TYR56       0.0417
     66  CE2      -28.4650   -2.5540   15.6400 C.ar   56  TYR56       0.0417
     67  CZ       -27.9770   -3.6230   16.3800 C.ar   56  TYR56       0.1957
     68  OH       -27.7370   -3.5410   17.7030 O.3    56  TYR56      -0.2866
     69  N        -31.8640   -3.9550   13.3140 N.am   57  SER57      -0.1938
     70  CA       -32.9160   -3.0700   13.7230 C.3    57  SER57       0.2055
     71  C        -33.8900   -2.8870   12.5600 C.2    57  SER57       0.2643
     72  O        -34.1780   -3.8630   11.8630 O.2    57  SER57      -0.2714
     73  CB       -32.3840   -1.7500   14.2990 C.3    57  SER57       0.2130
     74  OG       -33.4220   -0.8430   14.6760 O.3    57  SER57      -0.2179
     75  N        -34.3310   -1.6680   12.2990 N.am   58  VAL58      -0.1963
     76  CA       -35.2060   -1.3920   11.1640 C.3    58  VAL58       0.1727
     77  C        -34.4690   -1.2350    9.8190 C.2    58  VAL58       0.2616
     78  O        -35.0570   -0.8660    8.7990 O.2    58  VAL58      -0.2715
     79  CB       -36.0100   -0.0690   11.4120 C.3    58  VAL58       0.0290
     80  CG1      -36.8830   -0.2200   12.6570 C.3    58  VAL58       0.0023
     81  CG2      -35.0620    1.1110   11.5990 C.3    58  VAL58       0.0023
     82  N        -33.1620   -1.4740    9.8080 N.am   59  ASP59      -0.1971
     83  CA       -32.3120   -1.1180    8.6950 C.3    59  ASP59       0.1709
     84  C        -31.8480   -2.3310    7.9080 C.2    59  ASP59       0.2293
     85  O        -31.3820   -3.3420    8.4610 O.2    59  ASP59      -0.2864
     86  CB       -31.0730   -0.4030    9.2320 C.3    59  ASP59       0.1436
     87  CG       -31.4340    0.8560    9.9250 C.2    59  ASP59       0.3671
     88  OD1      -32.1420    1.7230    9.3370 O.co2  59  ASP59      -0.2456
     89  OD2      -31.0000    1.0050   11.0840 O.co2  59  ASP59      -0.2456
     90  N        -25.6080    3.4470    8.6840 N.3    64  VAL64      -0.1245
     91  CA       -25.8990    4.3040    9.7930 C.3    64  VAL64       0.1561
     92  C        -24.6310    5.0050   10.2400 C.2    64  VAL64       0.2260
     93  O        -23.6180    4.2750   10.4950 O.2    64  VAL64      -0.2867
     94  CB       -26.5390    3.5020   10.9500 C.3    64  VAL64       0.0252
     95  CG1      -26.5740    4.3060   12.2250 C.3    64  VAL64       0.0019
     96  CG2      -27.9620    3.0820   10.5880 C.3    64  VAL64       0.0019
     97  N        -23.2530    7.8210   13.2140 N.3    66  ASN66      -0.1240
     98  CA       -23.6660    8.5660   14.4040 C.3    66  ASN66       0.1653
     99  C        -22.4130    9.0410   15.0990 C.2    66  ASN66       0.2266
    100  O        -21.3120    8.7260   14.6750 O.2    66  ASN66      -0.2867
    101  CB       -24.5130    7.6560   15.3420 C.3    66  ASN66       0.1155
    102  CG       -25.4990    8.4440   16.1790 C.2    66  ASN66       0.2627
    103  OD1      -25.4120    9.6680   16.3220 O.2    66  ASN66      -0.2716
    104  ND2      -26.4270    7.6720   16.7940 N.am   66  ASN66      -0.0877
    105  N        -25.3440    7.8840   22.5810 N.3    73  TRP73      -0.1241
    106  CA       -25.4800    8.0940   21.1060 C.3    73  TRP73       0.1605
    107  C        -26.3150    9.3360   20.7980 C.2    73  TRP73       0.2264
    108  O        -27.2310    9.6760   21.5440 O.2    73  TRP73      -0.2867
    109  CB       -26.1500    6.9170   20.4930 C.3    73  TRP73       0.0550
    110  CG       -25.3970    5.6290   20.4980 C.ar   73  TRP73       0.0003
    111  CD1      -25.6710    4.5220   21.2190 C.ar   73  TRP73       0.0946
    112  CD2      -24.2070    5.3240   19.7500 C.ar   73  TRP73       0.0152
    113  NE1      -24.7750    3.5350   20.9960 N.ar   73  TRP73      -0.2442
    114  CE2      -23.8400    4.0130   20.0810 C.ar   73  TRP73       0.0810
    115  CE3      -23.4160    6.0540   18.8380 C.ar   73  TRP73       0.0012
    116  CZ2      -22.7180    3.3440   19.4820 C.ar   73  TRP73       0.0191
    117  CZ3      -22.2660    5.4030   18.2960 C.ar   73  TRP73       0.0001
    118  CH2      -21.9320    4.1010   18.6570 C.ar   73  TRP73       0.0015
    119  N        -28.9510    9.4510   14.5800 N.3    76  GLU76      -0.1245
    120  CA       -28.4410    8.6650   13.4500 C.3    76  GLU76       0.1567
    121  C        -28.6500    9.4360   12.1520 C.2    76  GLU76       0.2260
    122  O        -29.6910   10.0600   11.8990 O.2    76  GLU76      -0.2867
    123  CB       -29.1240    7.3590   13.3650 C.3    76  GLU76       0.0388
    124  CG       -28.7140    6.3550   14.4190 C.3    76  GLU76       0.1160
    125  CD       -29.4960    5.0820   14.4830 C.2    76  GLU76       0.3649
    126  OE1      -30.4690    4.8180   13.6920 O.co2  76  GLU76      -0.2457
    127  OE2      -29.0730    4.2600   15.2960 O.co2  76  GLU76      -0.2457
    128  N        -28.6520    8.3460    8.0790 N.3    78  LYS78      -0.1245
    129  CA       -28.6830    7.1270    7.3210 C.3    78  LYS78       0.1561
    130  C        -28.4190    7.4270    5.8420 C.2    78  LYS78       0.2260
    131  O        -28.8800    8.4790    5.3320 O.2    78  LYS78      -0.2867
    132  CB       -30.0160    6.4180    7.4730 C.3    78  LYS78       0.0271
    133  CG       -30.3690    6.0720    8.9230 C.3    78  LYS78       0.0035
    134  CD       -31.6930    5.3500    9.0410 C.3    78  LYS78       0.0206
    135  CE       -32.1390    5.0840   10.4610 C.3    78  LYS78       0.1093
    136  NZ       -33.0870    3.9290   10.5640 N.3    78  LYS78      -0.1314
@<TRIPOS>BOND
     1   131   130    2
     2   130   129    1
     3    49    48    2
     4    48    47    1
     5   129   132    1
     6   129   128    1
     7   132   133    1
     8    46    47    1
     9    84    85    2
    10    84    83    1
    11    47    50    1
    12    90    91    1
    13    83    86    1
    14    83    82    1
    15    78    77    2
    16   133   134    1
    17    50    51    1
    18   134   135    1
    19    86    87    1
    20    88    87   ar
    21    40    41    2
    22    40    39    1
    23    91    92    1
    24    91    94    1
    25    82    77   am
    26    77    76    1
    27    87    89   ar
    28    92    93    2
    29    51    52    1
    30    18    17    1
    31    18    19    1
    32    18    21    1
    33    38    39    1
    34   135   136    1
    35    57    58    1
    36    96    94    1
    37    39    42    1
    38    19    20    2
    39    94    95    1
    40    52    53    1
    41    76    79    1
    42    76    75    1
    43    21    22    1
    44    79    81    1
    45    79    80    1
    46    60    59    2
    47    72    71    2
    48    58    59    1
    49    58    61    1
    50   122   121    2
    51    42    43    1
    52   121   120    1
    53    45    43   am
    54    59    69   am
    55    61    62    1
    56    53    54    2
    57    75    71   am
    58    31    30    2
    59    43    44    2
    60    71    70    1
    61    30    29    1
    62    22    23    1
    63    55    54    1
    64    97    98    1
    65    54    56    1
    66    69    70    1
    67   123   120    1
    68   123   124    1
    69   120   119    1
    70    23    24    1
    71   126   125   ar
    72    62    64   ar
    73    62    63   ar
    74    70    73    1
    75    29    28    1
    76    29    32    1
    77    64    66   ar
    78    73    74    1
    79    98    99    1
    80    98   101    1
    81   124   125    1
    82   125   127   ar
    83    15    14    1
    84    15    16    1
    85    63    65   ar
    86   100    99    2
    87    35    33   ar
    88    35    37   ar
    89    24    25    2
    90    33    32    1
    91    33    34   ar
    92    37    36   ar
    93   101   102    1
    94    14    13    1
    95    36    34   ar
    96    26    25    1
    97    66    67   ar
    98    65    67   ar
    99    25    27    1
   100   102   103    2
   101   102   104   am
   102    13    10    1
   103    67    68    1
   104    10    11    1
   105    10     9    1
   106     7     8    1
   107     7     6    1
   108    11    12    2
   109   117   118   ar
   110   117   115   ar
   111     4     3    2
   112     2     1    1
   113     2     3    1
   114     2     5    1
   115   118   116   ar
   116     6     5    1
   117   115   112   ar
   118   116   114   ar
   119   112   114   ar
   120   112   110   ar
   121   114   113   ar
   122   109   110    1
   123   109   106    1
   124   110   111   ar
   125   107   106    1
   126   107   108    2
   127   113   111   ar
   128   106   105    1
