@<TRIPOS>MOLECULE
tmp/3wucB02.pdb
 95 88 0 0 0
SMALL
GASTEIGER

@<TRIPOS>ATOM
      1  N        -24.7050   -7.5490   19.1700 N.3     4  ASP4       -0.1225
      2  CA       -23.4040   -6.9840   19.4370 C.3     4  ASP4        0.1805
      3  C        -22.5070   -7.4960   18.2770 C.2     4  ASP4        0.2597
      4  O        -22.5510   -8.6440   17.8780 O.2     4  ASP4       -0.2718
      5  CB       -22.7890   -7.3530   20.7800 C.3     4  ASP4        0.1424
      6  CG       -23.1050   -6.3560   21.8350 C.2     4  ASP4        0.3668
      7  OD1      -22.8340   -5.1570   21.6200 O.co2   4  ASP4       -0.2456
      8  OD2      -23.6650   -6.7580   22.8730 O.co2   4  ASP4       -0.2456
      9  N        -21.6110   -6.6120   17.8620 N.am    5  MET5       -0.1979
     10  CA       -20.5590   -7.0020   16.9610 C.3     5  MET5        0.1605
     11  C        -19.3660   -7.5810   17.7410 C.2     5  MET5        0.2287
     12  O        -19.1820   -7.2490   18.9260 O.2     5  MET5       -0.2864
     13  CB       -20.1290   -5.7360   16.2470 C.3     5  MET5        0.0413
     14  CG       -21.2560   -5.1130   15.3790 C.3     5  MET5        0.0598
     15  SD       -20.8320   -3.6080   14.4970 S.3     5  MET5       -0.1393
     16  CE       -20.7240   -2.4730   15.9120 C.3     5  MET5        0.0692
     17  N        -23.8870   -6.6750   10.3510 N.3    34  ARG34      -0.1245
     18  CA       -23.4570   -5.2870   10.3200 C.3    34  ARG34       0.1563
     19  C        -21.9790   -5.2820   10.7120 C.2    34  ARG34       0.2260
     20  O        -21.4580   -6.2510   11.3320 O.2    34  ARG34      -0.2867
     21  CB       -24.2870   -4.4190   11.2730 C.3    34  ARG34       0.0307
     22  CG       -24.0110   -4.6560   12.7370 C.3    34  ARG34       0.0489
     23  CD       -24.8820   -3.7470   13.5340 C.3    34  ARG34       0.2205
     24  NE       -24.7140   -3.9060   14.9710 N.pl3  34  ARG34      -0.0865
     25  CZ       -24.5170   -2.9310   15.8220 C.cat  34  ARG34       0.5346
     26  NH1      -24.4600   -1.6290   15.5130 N.pl3  34  ARG34       0.1354
     27  NH2      -24.4330   -3.2910   17.1350 N.pl3  34  ARG34       0.1354
     28  N        -18.6580   -2.0790   11.6580 N.3    36  ALA36      -0.1245
     29  CA       -18.4310   -0.6950   11.9210 C.3    36  ALA36       0.1562
     30  C        -16.9780   -0.3420   11.9540 C.2    36  ALA36       0.2260
     31  O        -16.1380   -1.1910   12.3980 O.2    36  ALA36      -0.2867
     32  CB       -19.0230   -0.2780   13.2820 C.3    36  ALA36       0.0290
     33  N        -15.1070    2.9900   13.7270 N.3    38  ASP38      -0.1239
     34  CA       -15.3490    4.0680   14.6510 C.3    38  ASP38       0.1674
     35  C        -14.1140    4.9130   14.8270 C.2    38  ASP38       0.2266
     36  O        -12.9650    4.4230   14.9150 O.2    38  ASP38      -0.2867
     37  CB       -15.6370    3.5400   16.0530 C.3    38  ASP38       0.1410
     38  CG       -16.8950    2.7240   16.1570 C.2    38  ASP38       0.3668
     39  OD1      -17.8720    2.9720   15.3840 O.co2  38  ASP38      -0.2456
     40  OD2      -16.9410    1.8380   17.0320 O.co2  38  ASP38      -0.2456
     41  N        -13.6980    4.9040   23.2680 N.3    43  SER43      -0.1217
     42  CA       -14.8710    4.1660   22.8750 C.3    43  SER43       0.1889
     43  C        -16.1990    4.8580   23.3270 C.2    43  SER43       0.2288
     44  O        -17.2760    4.5760   22.7880 O.2    43  SER43      -0.2866
     45  CB       -14.8400    2.7140   23.3250 C.3    43  SER43       0.2089
     46  OG       -14.9500    2.6860   24.7340 O.3    43  SER43      -0.2183
     47  N        -17.1070    9.2160   20.3300 N.3    46  LEU46      -0.1245
     48  CA       -16.9430    8.9310   18.8640 C.3    46  LEU46       0.1561
     49  C        -17.3890   10.1360   18.0580 C.2    46  LEU46       0.2260
     50  O        -18.5360   10.5600   18.1110 O.2    46  LEU46      -0.2867
     51  CB       -17.6420    7.7000   18.4830 C.3    46  LEU46       0.0270
     52  CG       -17.3490    6.3490   19.2090 C.3    46  LEU46       0.0019
     53  CD1      -18.1690    5.1690   18.8170 C.3    46  LEU46       0.0001
     54  CD2      -15.8290    6.1140   19.0410 C.3    46  LEU46       0.0001
     55  N        -19.0580    7.1640   14.0350 N.3    49  HIS49      -0.1241
     56  CA       -19.3470    5.7360   14.0250 C.3    49  HIS49       0.1621
     57  C        -19.9720    5.4220   12.6870 C.2    49  HIS49       0.2264
     58  O        -21.0020    5.9830   12.3970 O.2    49  HIS49      -0.2867
     59  CB       -20.3500    5.4420   15.1480 C.3    49  HIS49       0.0745
     60  CG       -21.0470    4.1060   15.1120 C.ar   49  HIS49       0.0817
     61  ND1      -20.4540    2.8960   15.4050 N.ar   49  HIS49      -0.2268
     62  CD2      -22.3620    3.7950   14.9400 C.ar   49  HIS49       0.1154
     63  CE1      -21.3360    1.9270   15.3980 C.ar   49  HIS49       0.1986
     64  NE2      -22.5090    2.4510   15.1330 N.ar   49  HIS49      -0.2212
     65  N        -21.0130    9.7030   19.3650 N.3    68  LYS68      -0.1245
     66  CA       -21.3380    9.2180   20.7380 C.3    68  LYS68       0.1561
     67  C        -20.5560   10.1720   21.6650 C.2    68  LYS68       0.2260
     68  O        -19.3820   10.5630   21.4120 O.2    68  LYS68      -0.2867
     69  CB       -20.7920    7.8240   20.9350 C.3    68  LYS68       0.0271
     70  CG       -21.4740    7.0930   22.0570 C.3    68  LYS68       0.0035
     71  CD       -21.0070    5.6540   22.1890 C.3    68  LYS68       0.0206
     72  CE       -21.9860    4.7900   22.9930 C.3    68  LYS68       0.1093
     73  NZ       -21.4900    3.4520   23.3240 N.3    68  LYS68      -0.1314
     74  N        -25.3440    7.8840   22.5810 N.3    73  TRP73      -0.1241
     75  CA       -25.4800    8.0940   21.1060 C.3    73  TRP73       0.1605
     76  C        -26.3150    9.3360   20.7980 C.2    73  TRP73       0.2264
     77  O        -27.2310    9.6760   21.5440 O.2    73  TRP73      -0.2867
     78  CB       -26.1500    6.9170   20.4930 C.3    73  TRP73       0.0550
     79  CG       -25.3970    5.6290   20.4980 C.ar   73  TRP73       0.0003
     80  CD1      -25.6710    4.5220   21.2190 C.ar   73  TRP73       0.0946
     81  CD2      -24.2070    5.3240   19.7500 C.ar   73  TRP73       0.0152
     82  NE1      -24.7750    3.5350   20.9960 N.ar   73  TRP73      -0.2442
     83  CE2      -23.8400    4.0130   20.0810 C.ar   73  TRP73       0.0810
     84  CE3      -23.4160    6.0540   18.8380 C.ar   73  TRP73       0.0012
     85  CZ2      -22.7180    3.3440   19.4820 C.ar   73  TRP73       0.0191
     86  CZ3      -22.2660    5.4030   18.2960 C.ar   73  TRP73       0.0001
     87  CH2      -21.9320    4.1010   18.6570 C.ar   73  TRP73       0.0015
     88  N        -15.1090   -3.2970   14.1340 N.3   127  ASN127     -0.1240
     89  CA       -16.0310   -4.2520   14.7120 C.3   127  ASN127      0.1653
     90  C        -16.6480   -5.0390   13.5350 C.2   127  ASN127      0.2266
     91  O        -17.1830   -4.4570   12.5480 O.2   127  ASN127     -0.2867
     92  CB       -17.1140   -3.5340   15.5580 C.3   127  ASN127      0.1155
     93  CG       -16.5390   -2.8630   16.8370 C.2   127  ASN127      0.2627
     94  OD1      -15.7150   -3.4190   17.4930 O.2   127  ASN127     -0.2716
     95  ND2      -16.9930   -1.7070   17.1560 N.am  127  ASN127     -0.0877
@<TRIPOS>BOND
     1    18    17    1
     2    18    19    1
     3    18    21    1
     4    19    20    2
     5    21    22    1
     6    28    29    1
     7    29    30    1
     8    29    32    1
     9    30    31    2
    10    58    57    2
    11    91    90    2
    12    57    56    1
    13    22    23    1
    14    23    24    1
    15    90    89    1
    16    33    34    1
    17    56    55    1
    18    56    59    1
    19    88    89    1
    20    15    14    1
    21    15    16    1
    22    34    35    1
    23    34    37    1
    24    89    92    1
    25    35    36    2
    26    62    60   ar
    27    62    64   ar
    28    24    25    2
    29    60    59    1
    30    60    61   ar
    31    64    63   ar
    32    14    13    1
    33    39    38   ar
    34    63    61   ar
    35    26    25    1
    36    92    93    1
    37    25    27    1
    38    37    38    1
    39    38    40   ar
    40    13    10    1
    41    93    95   am
    42    93    94    2
    43    10    11    1
    44    10     9    1
    45    11    12    2
    46     9     3   am
    47     4     3    2
    48    49    50    2
    49    49    48    1
    50     3     2    1
    51    86    87   ar
    52    86    84   ar
    53    51    48    1
    54    51    52    1
    55    87    85   ar
    56    53    52    1
    57    84    81   ar
    58    48    47    1
    59    54    52    1
    60     1     2    1
    61    65    66    1
    62     2     5    1
    63    85    83   ar
    64    81    83   ar
    65    81    79   ar
    66    83    82   ar
    67    78    79    1
    68    78    75    1
    69    79    80   ar
    70    66    69    1
    71    66    67    1
    72     5     6    1
    73    76    75    1
    74    76    77    2
    75    69    70    1
    76    82    80   ar
    77    75    74    1
    78    68    67    2
    79     7     6   ar
    80     6     8   ar
    81    70    71    1
    82    71    72    1
    83    44    43    2
    84    42    41    1
    85    42    45    1
    86    42    43    1
    87    72    73    1
    88    45    46    1
