@<TRIPOS>MOLECULE
tmp/3wudA00.pdb
 98 93 0 0 0
SMALL
GASTEIGER

@<TRIPOS>ATOM
      1  N         -7.1940  -21.8870  -15.1530 N.3    43  HIS43      -0.1241
      2  CA        -5.8090  -21.9870  -15.4700 C.3    43  HIS43       0.1621
      3  C         -5.5970  -20.7930  -16.3650 C.2    43  HIS43       0.2264
      4  O         -6.1830  -20.7310  -17.4660 O.2    43  HIS43      -0.2867
      5  CB        -5.5060  -23.3050  -16.1970 C.3    43  HIS43       0.0745
      6  CG        -4.1430  -23.3780  -16.8430 C.ar   43  HIS43       0.0817
      7  ND1       -2.9840  -23.5870  -16.1340 N.ar   43  HIS43      -0.2268
      8  CD2       -3.7970  -23.3540  -18.1420 C.ar   43  HIS43       0.1154
      9  CE1       -1.9700  -23.7050  -16.9900 C.ar   43  HIS43       0.1986
     10  NE2       -2.4620  -23.6190  -18.2070 N.ar   43  HIS43      -0.2212
     11  N         -2.9100  -18.6420  -18.2350 N.3    45  ASN45      -0.1240
     12  CA        -1.6040  -18.9200  -18.7950 C.3    45  ASN45       0.1653
     13  C         -1.1040  -17.9320  -19.9390 C.2    45  ASN45       0.2266
     14  O         -1.2720  -18.2260  -21.1140 O.2    45  ASN45      -0.2867
     15  CB        -1.6550  -20.3540  -19.3530 C.3    45  ASN45       0.1155
     16  CG        -0.3110  -20.8970  -19.8420 C.2    45  ASN45       0.2627
     17  OD1       -0.3100  -21.7430  -20.7240 O.2    45  ASN45      -0.2716
     18  ND2        0.7950  -20.4690  -19.2710 N.am   45  ASN45      -0.0877
     19  N          1.3540  -16.5150  -22.3740 N.3    47  ARG47      -0.1245
     20  CA         2.3230  -17.1670  -23.1320 C.3    47  ARG47       0.1563
     21  C          3.0610  -16.1250  -23.9920 C.2    47  ARG47       0.2260
     22  O          2.4370  -15.4960  -24.9020 O.2    47  ARG47      -0.2867
     23  CB         1.6850  -18.1700  -24.0910 C.3    47  ARG47       0.0307
     24  CG         0.9850  -19.2950  -23.3520 C.3    47  ARG47       0.0489
     25  CD         0.4470  -20.3840  -24.2760 C.3    47  ARG47       0.2205
     26  NE        -0.1690  -21.4790  -23.5030 N.pl3  47  ARG47      -0.0865
     27  CZ        -0.8770  -22.4730  -24.0640 C.cat  47  ARG47       0.5346
     28  NH1       -0.9960  -22.5380  -25.3710 N.pl3  47  ARG47       0.1354
     29  NH2       -1.3980  -23.4440  -23.3170 N.pl3  47  ARG47       0.1354
     30  N          4.9690  -20.0350  -26.3530 N.3    50  HIS50      -0.1226
     31  CA         4.7420  -21.3540  -25.7910 C.3    50  HIS50       0.1752
     32  C          3.6220  -22.0070  -26.5090 C.2    50  HIS50       0.2595
     33  O          2.6390  -21.3950  -26.8370 O.2    50  HIS50      -0.2718
     34  CB         4.4930  -21.2120  -24.2620 C.3    50  HIS50       0.0759
     35  CG         4.2180  -22.5070  -23.5890 C.ar   50  HIS50       0.0818
     36  ND1        5.1190  -23.5500  -23.5730 N.ar   50  HIS50      -0.2268
     37  CD2        3.1410  -22.9250  -22.8820 C.ar   50  HIS50       0.1154
     38  CE1        4.5830  -24.5770  -22.9300 C.ar   50  HIS50       0.1986
     39  NE2        3.4030  -24.2090  -22.4680 N.ar   50  HIS50      -0.2212
     40  N          3.8010  -23.2740  -26.8330 N.am   51  GLU51      -0.1979
     41  CA         2.7940  -24.0440  -27.5940 C.3    51  GLU51       0.1602
     42  C          2.3580  -23.3410  -28.8670 C.2    51  GLU51       0.2287
     43  O          1.2200  -23.4480  -29.2210 O.2    51  GLU51      -0.2864
     44  CB         1.5520  -24.3730  -26.7200 C.3    51  GLU51       0.0415
     45  CG         1.8580  -25.1080  -25.4330 C.3    51  GLU51       0.1163
     46  CD         2.0840  -26.6100  -25.6080 C.2    51  GLU51       0.3649
     47  OE1        2.2280  -27.3190  -24.5820 O.co2  51  GLU51      -0.2457
     48  OE2        2.0510  -27.0900  -26.7500 O.co2  51  GLU51      -0.2457
     49  N         -3.7990  -17.8070  -22.6720 N.3    58  ILE58      -0.1245
     50  CA        -4.6750  -18.9840  -22.8750 C.3    58  ILE58       0.1561
     51  C         -5.2860  -19.2360  -21.5130 C.2    58  ILE58       0.2260
     52  O         -4.5580  -19.2410  -20.5230 O.2    58  ILE58      -0.2867
     53  CB        -3.8410  -20.1730  -23.2760 C.3    58  ILE58       0.0252
     54  CG1       -3.4820  -20.0910  -24.7550 C.3    58  ILE58       0.0019
     55  CG2       -4.6050  -21.4880  -23.0510 C.3    58  ILE58       0.0019
     56  CD1       -3.0470  -18.7490  -25.3060 C.3    58  ILE58       0.0001
     57  N         -8.0260  -21.9380  -19.3910 N.3    60  ASN60      -0.1240
     58  CA        -8.7970  -23.1470  -19.4620 C.3    60  ASN60       0.1653
     59  C         -9.2170  -23.5790  -18.0720 C.2    60  ASN60       0.2266
     60  O         -8.7950  -23.0170  -17.0910 O.2    60  ASN60      -0.2867
     61  CB        -7.9320  -24.2590  -20.0840 C.3    60  ASN60       0.1155
     62  CG        -8.7810  -25.3260  -20.8030 C.2    60  ASN60       0.2627
     63  OD1       -9.9320  -25.4750  -20.5690 O.2    60  ASN60      -0.2716
     64  ND2       -8.1600  -26.1370  -21.5920 N.am   60  ASN60      -0.0877
     65  N         -8.3590  -31.2730  -18.9700 N.3    67  TRP67      -0.1241
     66  CA        -8.5540  -29.9360  -19.5430 C.3    67  TRP67       0.1605
     67  C         -9.9510  -29.7510  -20.2000 C.2    67  TRP67       0.2264
     68  O        -10.4480  -30.6150  -20.9390 O.2    67  TRP67      -0.2867
     69  CB        -7.4490  -29.5550  -20.5490 C.3    67  TRP67       0.0550
     70  CG        -6.0920  -29.4550  -19.9720 C.ar   67  TRP67       0.0003
     71  CD1       -4.9790  -30.2770  -20.2460 C.ar   67  TRP67       0.0946
     72  CD2       -5.6640  -28.5550  -18.9620 C.ar   67  TRP67       0.0152
     73  NE1       -3.9350  -29.8830  -19.4820 N.ar   67  TRP67      -0.2442
     74  CE2       -4.3000  -28.7920  -18.7350 C.ar   67  TRP67       0.0810
     75  CE3       -6.2460  -27.4560  -18.3590 C.ar   67  TRP67       0.0012
     76  CZ2       -3.5570  -28.0480  -17.7950 C.ar   67  TRP67       0.0191
     77  CZ3       -5.5120  -26.7170  -17.4600 C.ar   67  TRP67       0.0001
     78  CH2       -4.2230  -26.9910  -17.1800 C.ar   67  TRP67       0.0015
     79  N        -10.2450  -24.4250  -24.3180 N.3    70  GLU70      -0.1245
     80  CA        -9.4590  -23.2150  -24.1110 C.3    70  GLU70       0.1567
     81  C        -10.1880  -21.9530  -24.5210 C.2    70  GLU70       0.2260
     82  O        -10.9390  -21.9740  -25.4990 O.2    70  GLU70      -0.2867
     83  CB        -8.1750  -23.2590  -24.9390 C.3    70  GLU70       0.0388
     84  CG        -7.1230  -24.1910  -24.4310 C.3    70  GLU70       0.1160
     85  CD        -5.8470  -24.2460  -25.2990 C.2    70  GLU70       0.3649
     86  OE1       -5.7370  -23.5970  -26.3440 O.co2  70  GLU70      -0.2457
     87  OE2       -4.9330  -24.9110  -24.8810 O.co2  70  GLU70      -0.2457
     88  N         -8.9460  -18.1080  -25.6070 N.3    72  ARG72      -0.1197
     89  CA        -7.7770  -17.3530  -26.0080 C.3    72  ARG72       0.1779
     90  C         -8.0640  -15.8210  -25.9780 C.2    72  ARG72       0.2305
     91  O         -9.0390  -15.3240  -26.5830 O.2    72  ARG72      -0.2863
     92  CB        -7.2430  -17.8130  -27.3720 C.2    72  ARG72      -0.0007
     93  CG        -5.9890  -18.6800  -27.3280 C.2    72  ARG72       0.0176
     94  CD        -5.5100  -19.2220  -28.7050 C.3    72  ARG72       0.2464
     95  NE        -4.4810  -20.2850  -28.5270 N.pl3  72  ARG72      -0.0815
     96  CZ        -4.7350  -21.5500  -28.1570 C.cat  72  ARG72       0.5349
     97  NH1       -6.0090  -21.9440  -28.0030 N.pl3  72  ARG72       0.1354
     98  NH2       -3.7260  -22.4480  -28.0030 N.pl3  72  ARG72       0.1354
@<TRIPOS>BOND
     1    43    42    2
     2    42    41    1
     3    94    95    1
     4    94    93    1
     5    95    96    2
     6    96    98    1
     7    96    97    1
     8    41    40    1
     9    41    44    1
    10    92    93    2
    11    92    89    1
    12    33    32    2
    13    40    32   am
    14    48    46   ar
    15    44    45    1
    16    91    90    2
    17    32    31    1
    18    30    31    1
    19    86    85   ar
    20    89    90    1
    21    89    88    1
    22    31    34    1
    23    46    45    1
    24    46    47   ar
    25    82    81    2
    26    28    27    1
    27    56    54    1
    28    85    87   ar
    29    85    84    1
    30    83    84    1
    31    83    80    1
    32    22    21    2
    33    54    53    1
    34    81    80    1
    35    79    80    1
    36    25    26    1
    37    25    24    1
    38    34    35    1
    39    23    24    1
    40    23    20    1
    41    27    26    2
    42    27    29    1
    43    21    20    1
    44    35    36   ar
    45    35    37   ar
    46    36    38   ar
    47    53    55    1
    48    53    50    1
    49    20    19    1
    50    38    39   ar
    51    37    39   ar
    52    50    49    1
    53    50    51    1
    54    64    62   am
    55    51    52    2
    56    14    13    2
    57    68    67    2
    58    62    63    2
    59    62    61    1
    60    17    16    2
    61    69    70    1
    62    69    66    1
    63    71    70   ar
    64    71    73   ar
    65    67    66    1
    66    61    58    1
    67    70    72   ar
    68    13    12    1
    69    16    15    1
    70    16    18   am
    71    66    65    1
    72    73    74   ar
    73    58    57    1
    74    58    59    1
    75    15    12    1
    76    72    74   ar
    77    72    75   ar
    78    12    11    1
    79    74    76   ar
    80    75    77   ar
    81    10     8   ar
    82    10     9   ar
    83     8     6   ar
    84    59    60    2
    85    76    78   ar
    86     4     3    2
    87    77    78   ar
    88     9     7   ar
    89     6     5    1
    90     6     7   ar
    91     3     2    1
    92     5     2    1
    93     2     1    1
