@<TRIPOS>MOLECULE
tmp/3wueA01.pdb
 142 137 0 0 0
SMALL
GASTEIGER

@<TRIPOS>ATOM
      1  N         13.6950    5.1860   10.7350 N.3    20  ASP20      -0.1239
      2  CA        14.0000    4.9150    9.3420 C.3    20  ASP20       0.1674
      3  C         13.6520    3.4610    9.0280 C.2    20  ASP20       0.2266
      4  O         13.7330    2.5920    9.8970 O.2    20  ASP20      -0.2867
      5  CB        15.4800    5.1980    9.0620 C.3    20  ASP20       0.1410
      6  CG        15.7680    5.3800    7.5830 C.2    20  ASP20       0.3668
      7  OD1       14.8050    5.4840    6.7860 O.co2  20  ASP20      -0.2456
      8  OD2       16.9600    5.4280    7.2130 O.co2  20  ASP20      -0.2456
      9  N         12.2080    9.6790    9.0730 N.3    43  GLY43      -0.1210
     10  CA        13.5880   10.1170    8.9670 C.3    43  GLY43       0.1956
     11  C         14.2260   10.3980    7.6230 C.2    43  GLY43       0.2611
     12  O         14.9370   11.3900    7.4800 O.2    43  GLY43      -0.2717
     13  N         13.9860    9.5460    6.6360 N.am   44  ASN44      -0.1974
     14  CA        14.6010    9.7390    5.3320 C.3    44  ASN44       0.1688
     15  C         13.7090    9.5950    4.1120 C.2    44  ASN44       0.2292
     16  O         13.8210   10.3720    3.1610 O.2    44  ASN44      -0.2864
     17  CB        15.7550    8.7460    5.1440 C.3    44  ASN44       0.1181
     18  CG        17.0420    9.2120    5.7770 C.2    44  ASN44       0.2629
     19  OD1       17.5380   10.3010    5.4760 O.2    44  ASN44      -0.2716
     20  ND2       17.6040    8.3830    6.6490 N.am   44  ASN44      -0.0877
     21  N         12.0110   12.3070    1.8590 N.3    47  LYS47      -0.1245
     22  CA        12.8970   13.2520    1.1880 C.3    47  LYS47       0.1561
     23  C         12.8800   13.0670   -0.3260 C.2    47  LYS47       0.2260
     24  O         12.6990   11.9530   -0.8330 O.2    47  LYS47      -0.2867
     25  CB        14.3280   13.1120    1.7170 C.3    47  LYS47       0.0271
     26  CG        14.4710   13.5280    3.1740 C.3    47  LYS47       0.0035
     27  CD        15.8260   13.1430    3.7250 C.3    47  LYS47       0.0206
     28  CE        15.9280   13.5310    5.1860 C.3    47  LYS47       0.1093
     29  NZ        17.1360   12.9540    5.8390 N.3    47  LYS47      -0.1314
     30  N          8.7040   15.0930    6.7500 N.3    80  HIS80      -0.1241
     31  CA        10.0390   15.6760    6.6510 C.3    80  HIS80       0.1621
     32  C         10.8100   15.1290    5.4370 C.2    80  HIS80       0.2264
     33  O         11.0020   13.9190    5.3390 O.2    80  HIS80      -0.2867
     34  CB        10.7670   15.3200    7.9510 C.3    80  HIS80       0.0745
     35  CG        12.1920   15.7590    8.0060 C.ar   80  HIS80       0.0817
     36  ND1       12.5610   17.0480    8.3310 N.ar   80  HIS80      -0.2268
     37  CD2       13.3420   15.0770    7.7950 C.ar   80  HIS80       0.1154
     38  CE1       13.8790   17.1390    8.3180 C.ar   80  HIS80       0.1986
     39  NE2       14.3770   15.9570    7.9960 N.ar   80  HIS80      -0.2212
     40  N         14.7500   20.9360    0.4060 N.3    84  TRP84      -0.1241
     41  CA        16.0340   20.8830    1.1010 C.3    84  TRP84       0.1605
     42  C         17.1380   20.7550    0.0620 C.2    84  TRP84       0.2264
     43  O         16.9570   20.0720   -0.9490 O.2    84  TRP84      -0.2867
     44  CB        16.0450   19.6740    2.0430 C.3    84  TRP84       0.0550
     45  CG        17.2220   19.5930    2.9780 C.ar   84  TRP84       0.0003
     46  CD1       17.8860   20.6380    3.5610 C.ar   84  TRP84       0.0946
     47  CD2       17.7890   18.4010    3.5330 C.ar   84  TRP84       0.0152
     48  NE1       18.8220   20.1690    4.4480 N.ar   84  TRP84      -0.2442
     49  CE2       18.7860   18.8010    4.4530 C.ar   84  TRP84       0.0810
     50  CE3       17.5480   17.0310    3.3450 C.ar   84  TRP84       0.0012
     51  CZ2       19.5470   17.8790    5.1900 C.ar   84  TRP84       0.0191
     52  CZ3       18.3060   16.1120    4.0780 C.ar   84  TRP84       0.0001
     53  CH2       19.2950   16.5450    4.9900 C.ar   84  TRP84       0.0015
     54  N         20.2250   15.6170   -0.0050 N.3    87  GLN87      -0.1245
     55  CA        19.4910   14.4210   -0.4130 C.3    87  GLN87       0.1566
     56  C         18.4920   14.7680   -1.5080 C.2    87  GLN87       0.2260
     57  O         17.3030   14.4370   -1.4440 O.2    87  GLN87      -0.2867
     58  CB        18.7940   13.7910    0.7970 C.3    87  GLN87       0.0367
     59  CG        19.7390   12.8990    1.6050 C.3    87  GLN87       0.0905
     60  CD        19.1310   12.3670    2.8800 C.2    87  GLN87       0.2608
     61  OE1       19.1030   13.0530    3.9010 O.2    87  GLN87      -0.2717
     62  NE2       18.6360   11.1340    2.8320 N.am   87  GLN87      -0.0878
     63  N         13.7330   23.3780    4.6200 N.3   126  ASN126     -0.1225
     64  CA        14.7340   23.0110    5.6070 C.3   126  ASN126      0.1785
     65  C         16.1150   23.6310    5.3410 C.2   126  ASN126      0.2597
     66  O         16.6050   23.6180    4.2120 O.2   126  ASN126     -0.2718
     67  CB        14.8280   21.4750    5.6240 C.3   126  ASN126      0.1169
     68  CG        15.6180   20.9350    6.8000 C.2   126  ASN126      0.2627
     69  OD1       15.4410   21.3680    7.9380 O.2   126  ASN126     -0.2716
     70  ND2       16.4790   19.9600    6.5310 N.am  126  ASN126     -0.0877
     71  N         16.7220   24.1770    6.3970 N.am  127  GLU127     -0.1979
     72  CA        18.0650   24.7720    6.3510 C.3   127  GLU127      0.1602
     73  C         18.3160   25.7370    5.2030 C.2   127  GLU127      0.2287
     74  O         19.2270   25.5310    4.4010 O.2   127  GLU127     -0.2864
     75  CB        19.1090   23.6520    6.3090 C.3   127  GLU127      0.0415
     76  CG        18.7280   22.4870    7.2030 C.3   127  GLU127      0.1163
     77  CD        19.7920   21.4070    7.2950 C.2   127  GLU127      0.3649
     78  OE1       20.6050   21.2490    6.3600 O.co2 127  GLU127     -0.2457
     79  OE2       19.7900   20.6940    8.3130 O.co2 127  GLU127     -0.2457
     80  N         15.7870   22.2850   15.0940 N.3   202  GLN202     -0.1245
     81  CA        16.3230   20.9300   15.0680 C.3   202  GLN202      0.1566
     82  C         16.9340   20.5130   16.4050 C.2   202  GLN202      0.2260
     83  O         16.7740   19.3710   16.8470 O.2   202  GLN202     -0.2867
     84  CB        17.3510   20.8020   13.9490 C.3   202  GLN202      0.0367
     85  CG        16.7420   20.8260   12.5590 C.3   202  GLN202      0.0905
     86  CD        17.7840   20.6200   11.4810 C.2   202  GLN202      0.2608
     87  OE1       18.8820   20.1350   11.7540 O.2   202  GLN202     -0.2717
     88  NE2       17.4440   20.9710   10.2460 N.am  202  GLN202     -0.0878
     89  N         20.1720   20.0540   17.3350 N.3   204  HIS204     -0.1241
     90  CA        21.2760   19.1030   17.3140 C.3   204  HIS204      0.1621
     91  C         22.2940   19.8520   18.1760 C.2   204  HIS204      0.2264
     92  O         23.0200   20.7240   17.6950 O.2   204  HIS204     -0.2867
     93  CB        21.7970   18.9190   15.8910 C.3   204  HIS204      0.0745
     94  CG        20.8920   18.0980   15.0270 C.ar  204  HIS204      0.0817
     95  ND1       20.6180   16.7720   15.2880 N.ar  204  HIS204     -0.2268
     96  CD2       20.1920   18.4150   13.9120 C.ar  204  HIS204      0.1154
     97  CE1       19.7890   16.3070   14.3700 C.ar  204  HIS204      0.1986
     98  NE2       19.5140   17.2840   13.5240 N.ar  204  HIS204     -0.2212
     99  N         14.5890   17.6800   16.0230 N.3   232  GLU232     -0.1245
    100  CA        15.5850   16.6250   15.8550 C.3   232  GLU232      0.1567
    101  C         16.5840   16.6380   16.9860 C.2   232  GLU232      0.2260
    102  O         17.8020   16.5600   16.7750 O.2   232  GLU232     -0.2867
    103  CB        16.3060   16.8190   14.5220 C.3   232  GLU232      0.0388
    104  CG        15.3600   17.1010   13.3690 C.3   232  GLU232      0.1160
    105  CD        16.1030   17.4390   12.1070 C.2   232  GLU232      0.3649
    106  OE1       17.2650   16.9970   11.9950 O.co2 232  GLU232     -0.2457
    107  OE2       15.5370   18.1260   11.2310 O.co2 232  GLU232     -0.2457
    108  N         16.1260   12.8230   17.3830 N.3   272  TRP272     -0.1241
    109  CA        16.5090   12.2570   16.0890 C.3   272  TRP272      0.1605
    110  C         16.9030   10.8070   16.3140 C.2   272  TRP272      0.2264
    111  O         18.0830   10.4460   16.3140 O.2   272  TRP272     -0.2867
    112  CB        17.6610   13.0400   15.4600 C.3   272  TRP272      0.0550
    113  CG        17.5700   13.0110   13.9720 C.ar  272  TRP272      0.0003
    114  CD1       18.5470   12.6560   13.0940 C.ar  272  TRP272      0.0946
    115  CD2       16.4110   13.3190   13.1840 C.ar  272  TRP272      0.0152
    116  NE1       18.0700   12.7190   11.8050 N.ar  272  TRP272     -0.2442
    117  CE2       16.7610   13.1220   11.8330 C.ar  272  TRP272      0.0810
    118  CE3       15.1100   13.7430   13.4930 C.ar  272  TRP272      0.0012
    119  CZ2       15.8560   13.3320   10.7870 C.ar  272  TRP272      0.0191
    120  CZ3       14.2130   13.9510   12.4560 C.ar  272  TRP272      0.0001
    121  CH2       14.5900   13.7450   11.1190 C.ar  272  TRP272      0.0015
    122  N         22.6560    9.1450   13.9240 N.3   280  TRP280     -0.1241
    123  CA        23.3700    9.6040   12.7330 C.3   280  TRP280      0.1605
    124  C         24.6600   10.3460   13.1010 C.2   280  TRP280      0.2264
    125  O         25.5270   10.5550   12.2520 O.2   280  TRP280     -0.2867
    126  CB        22.4830   10.5650   11.9380 C.3   280  TRP280      0.0550
    127  CG        22.3710   11.9100   12.6090 C.ar  280  TRP280      0.0003
    128  CD1       21.9590   12.1530   13.8870 C.ar  280  TRP280      0.0946
    129  CD2       22.7320   13.1830   12.0560 C.ar  280  TRP280      0.0152
    130  NE1       22.0450   13.4950   14.1690 N.ar  280  TRP280     -0.2442
    131  CE2       22.5160   14.1530   13.0630 C.ar  280  TRP280      0.0810
    132  CE3       23.2170   13.6000   10.8080 C.ar  280  TRP280      0.0012
    133  CZ2       22.7700   15.5200   12.8620 C.ar  280  TRP280      0.0191
    134  CZ3       23.4720   14.9610   10.6060 C.ar  280  TRP280      0.0001
    135  CH2       23.2460   15.9030   11.6320 C.ar  280  TRP280      0.0015
    136  N         28.5280   11.6720   10.9370 N.3   284  VAL284     -0.1245
    137  CA        28.7500   13.0450   10.5060 C.3   284  VAL284      0.1561
    138  C         29.7510   13.8070   11.3620 C.2   284  VAL284      0.2260
    139  O         30.4510   14.6900   10.8710 O.2   284  VAL284     -0.2867
    140  CB        27.4180   13.8240   10.4750 C.3   284  VAL284      0.0252
    141  CG1       27.6680   15.2750   10.1060 C.3   284  VAL284      0.0019
    142  CG2       26.4710   13.1820    9.4710 C.3   284  VAL284      0.0019
@<TRIPOS>BOND
     1    56    57    2
     2    56    55    1
     3    43    42    2
     4    24    23    2
     5    55    54    1
     6    55    58    1
     7    23    22    1
     8    42    41    1
     9    40    41    1
    10    58    59    1
    11    41    44    1
    12    22    25    1
    13    22    21    1
    14    59    60    1
    15    25    26    1
    16    44    45    1
    17    62    60   am
    18    60    61    2
    19    45    47   ar
    20    45    46   ar
    21    16    15    2
    22    26    27    1
    23    50    47   ar
    24    50    52   ar
    25    47    49   ar
    26    46    48   ar
    27    27    28    1
    28    52    53   ar
    29    15    14    1
    30    66    65    2
    31    74    73    2
    32    48    49   ar
    33    49    51   ar
    34    63    64    1
    35    53    51   ar
    36    17    14    1
    37    17    18    1
    38    28    29    1
    39    73    72    1
    40    14    13    1
    41    33    32    2
    42    65    64    1
    43    65    71   am
    44    32    31    1
    45    19    18    2
    46    64    67    1
    47    67    68    1
    48    18    20   am
    49    75    72    1
    50    75    76    1
    51    72    71    1
    52    78    77   ar
    53    70    68   am
    54    13    11   am
    55    31    30    1
    56    31    34    1
    57     7     6   ar
    58    68    69    2
    59    76    77    1
    60     8     6   ar
    61    77    79   ar
    62    12    11    2
    63     6     5    1
    64    11    10    1
    65    37    39   ar
    66    37    35   ar
    67    34    35    1
    68    39    38   ar
    69    35    36   ar
    70    38    36   ar
    71    10     9    1
    72     3     2    1
    73     3     4    2
    74     5     2    1
    75     2     1    1
    76   142   140    1
    77   141   140    1
    78    88    86   am
    79   140   137    1
    80   137   136    1
    81   137   138    1
    82   134   132   ar
    83   134   135   ar
    84   119   121   ar
    85   119   117   ar
    86   132   129   ar
    87   139   138    2
    88   121   120   ar
    89   107   105   ar
    90    86    87    2
    91    86    85    1
    92   135   133   ar
    93   116   117   ar
    94   116   114   ar
    95   117   115   ar
    96   126   127    1
    97   126   123    1
    98   106   105   ar
    99   129   127   ar
   100   129   131   ar
   101   105   104    1
   102   125   124    2
   103   120   118   ar
   104    85    84    1
   105   127   128   ar
   106   123   124    1
   107   123   122    1
   108   133   131   ar
   109   131   130   ar
   110   114   113   ar
   111   115   118   ar
   112   115   113   ar
   113   104   103    1
   114    98    96   ar
   115    98    97   ar
   116   128   130   ar
   117    96    94   ar
   118    84    81    1
   119   113   112    1
   120    97    95   ar
   121   103   100    1
   122    94    95   ar
   123    94    93    1
   124    81    80    1
   125    81    82    1
   126   112   109    1
   127   100    99    1
   128   100   101    1
   129    93    90    1
   130   109   110    1
   131   109   108    1
   132   111   110    2
   133    82    83    2
   134   102   101    2
   135    90    89    1
   136    90    91    1
   137    92    91    2
