@<TRIPOS>MOLECULE
tmp/3wueA00.pdb
 139 134 0 0 0
SMALL
GASTEIGER

@<TRIPOS>ATOM
      1  N         14.7500   20.9360    0.4060 N.3    84  TRP84      -0.1241
      2  CA        16.0340   20.8830    1.1010 C.3    84  TRP84       0.1605
      3  C         17.1380   20.7550    0.0620 C.2    84  TRP84       0.2264
      4  O         16.9570   20.0720   -0.9490 O.2    84  TRP84      -0.2867
      5  CB        16.0450   19.6740    2.0430 C.3    84  TRP84       0.0550
      6  CG        17.2220   19.5930    2.9780 C.ar   84  TRP84       0.0003
      7  CD1       17.8860   20.6380    3.5610 C.ar   84  TRP84       0.0946
      8  CD2       17.7890   18.4010    3.5330 C.ar   84  TRP84       0.0152
      9  NE1       18.8220   20.1690    4.4480 N.ar   84  TRP84      -0.2442
     10  CE2       18.7860   18.8010    4.4530 C.ar   84  TRP84       0.0810
     11  CE3       17.5480   17.0310    3.3450 C.ar   84  TRP84       0.0012
     12  CZ2       19.5470   17.8790    5.1900 C.ar   84  TRP84       0.0191
     13  CZ3       18.3060   16.1120    4.0780 C.ar   84  TRP84       0.0001
     14  CH2       19.2950   16.5450    4.9900 C.ar   84  TRP84       0.0015
     15  N         19.8830   19.2510    0.4500 N.3    86  ASN86      -0.1240
     16  CA        20.5220   17.9450    0.6250 C.3    86  ASN86       0.1653
     17  C         19.6210   16.7880    0.2000 C.2    86  ASN86       0.2266
     18  O         18.4050   16.9500    0.0880 O.2    86  ASN86      -0.2867
     19  CB        20.9100   17.7330    2.0870 C.3    86  ASN86       0.1155
     20  CG        22.3530   18.0560    2.3540 C.2    86  ASN86       0.2627
     21  OD1       23.2420   17.5690    1.6550 O.2    86  ASN86      -0.2716
     22  ND2       22.6040   18.8730    3.3730 N.am   86  ASN86      -0.0877
     23  N         16.7220   24.1770    6.3970 N.3   127  GLU127     -0.1245
     24  CA        18.0650   24.7720    6.3510 C.3   127  GLU127      0.1567
     25  C         18.3160   25.7370    5.2030 C.2   127  GLU127      0.2260
     26  O         19.2270   25.5310    4.4010 O.2   127  GLU127     -0.2867
     27  CB        19.1090   23.6520    6.3090 C.3   127  GLU127      0.0388
     28  CG        18.7280   22.4870    7.2030 C.3   127  GLU127      0.1160
     29  CD        19.7920   21.4070    7.2950 C.2   127  GLU127      0.3649
     30  OE1       20.6050   21.2490    6.3600 O.co2 127  GLU127     -0.2457
     31  OE2       19.7900   20.6940    8.3130 O.co2 127  GLU127     -0.2457
     32  N         25.0760   30.4080    8.7480 N.3   131  GLU131     -0.1245
     33  CA        25.2690   30.7980   10.1440 C.3   131  GLU131      0.1567
     34  C         25.2240   32.3050   10.4140 C.2   131  GLU131      0.2260
     35  O         24.8640   32.7240   11.5150 O.2   131  GLU131     -0.2867
     36  CB        26.5790   30.2140   10.6820 C.3   131  GLU131      0.0388
     37  CG        26.6520   28.6870   10.6070 C.3   131  GLU131      0.1160
     38  CD        25.4440   28.0000   11.2430 C.2   131  GLU131      0.3649
     39  OE1       25.2680   28.1050   12.4760 O.co2 131  GLU131     -0.2457
     40  OE2       24.6670   27.3590   10.5000 O.co2 131  GLU131     -0.2457
     41  N         18.7640   24.1770   11.8360 N.3   170  TYR170     -0.1227
     42  CA        19.6080   23.8840   12.9910 C.3   170  TYR170      0.1736
     43  C         20.3450   25.1600   13.4110 C.2   170  TYR170      0.2595
     44  O         20.4080   26.1350   12.6520 O.2   170  TYR170     -0.2718
     45  CB        20.6280   22.7850   12.6660 C.3   170  TYR170      0.0548
     46  CG        21.5860   23.1370   11.5480 C.ar  170  TYR170     -0.0200
     47  CD1       21.2420   22.9230   10.2120 C.ar  170  TYR170     -0.0009
     48  CD2       22.8330   23.7040   11.8260 C.ar  170  TYR170     -0.0009
     49  CE1       22.1130   23.2620    9.1830 C.ar  170  TYR170      0.0417
     50  CE2       23.7130   24.0500   10.8020 C.ar  170  TYR170      0.0417
     51  CZ        23.3480   23.8280    9.4840 C.ar  170  TYR170      0.1957
     52  OH        24.2090   24.1780    8.4640 O.3   170  TYR170     -0.2866
     53  N         20.9030   25.1350   14.6190 N.am  171  ASN171     -0.1974
     54  CA        21.6160   26.2710   15.1930 C.3   171  ASN171      0.1688
     55  C         20.7570   27.5320   15.2600 C.2   171  ASN171      0.2292
     56  O         21.2350   28.6400   15.0240 O.2   171  ASN171     -0.2864
     57  CB        22.9110   26.5590   14.4250 C.3   171  ASN171      0.1181
     58  CG        23.9650   25.4960   14.6520 C.2   171  ASN171      0.2629
     59  OD1       23.8390   24.6670   15.5580 O.2   171  ASN171     -0.2716
     60  ND2       25.0170   25.5130   13.8360 N.am  171  ASN171     -0.0877
     61  N         15.7870   22.2850   15.0940 N.3   202  GLN202     -0.1245
     62  CA        16.3230   20.9300   15.0680 C.3   202  GLN202      0.1566
     63  C         16.9340   20.5130   16.4050 C.2   202  GLN202      0.2260
     64  O         16.7740   19.3710   16.8470 O.2   202  GLN202     -0.2867
     65  CB        17.3510   20.8020   13.9490 C.3   202  GLN202      0.0367
     66  CG        16.7420   20.8260   12.5590 C.3   202  GLN202      0.0905
     67  CD        17.7840   20.6200   11.4810 C.2   202  GLN202      0.2608
     68  OE1       18.8820   20.1350   11.7540 O.2   202  GLN202     -0.2717
     69  NE2       17.4440   20.9710   10.2460 N.am  202  GLN202     -0.0878
     70  N         20.1720   20.0540   17.3350 N.3   204  HIS204     -0.1241
     71  CA        21.2760   19.1030   17.3140 C.3   204  HIS204      0.1621
     72  C         22.2940   19.8520   18.1760 C.2   204  HIS204      0.2264
     73  O         23.0200   20.7240   17.6950 O.2   204  HIS204     -0.2867
     74  CB        21.7970   18.9190   15.8910 C.3   204  HIS204      0.0745
     75  CG        20.8920   18.0980   15.0270 C.ar  204  HIS204      0.0817
     76  ND1       20.6180   16.7720   15.2880 N.ar  204  HIS204     -0.2268
     77  CD2       20.1920   18.4150   13.9120 C.ar  204  HIS204      0.1154
     78  CE1       19.7890   16.3070   14.3700 C.ar  204  HIS204      0.1986
     79  NE2       19.5140   17.2840   13.5240 N.ar  204  HIS204     -0.2212
     80  N         25.3060   20.2230   21.5140 N.3   206  ILE206     -0.1245
     81  CA        26.5580   19.6760   22.0130 C.3   206  ILE206      0.1561
     82  C         26.4920   19.7270   23.5350 C.2   206  ILE206      0.2260
     83  O         26.1980   20.7730   24.1110 O.2   206  ILE206     -0.2867
     84  CB        27.7650   20.5050   21.5140 C.3   206  ILE206      0.0252
     85  CG1       27.7980   20.4890   19.9820 C.3   206  ILE206      0.0019
     86  CG2       29.0670   19.9380   22.0840 C.3   206  ILE206      0.0019
     87  CD1       28.9250   21.3010   19.3800 C.3   206  ILE206      0.0001
     88  N         14.5890   17.6800   16.0230 N.3   232  GLU232     -0.1245
     89  CA        15.5850   16.6250   15.8550 C.3   232  GLU232      0.1567
     90  C         16.5840   16.6380   16.9860 C.2   232  GLU232      0.2260
     91  O         17.8020   16.5600   16.7750 O.2   232  GLU232     -0.2867
     92  CB        16.3060   16.8190   14.5220 C.3   232  GLU232      0.0388
     93  CG        15.3600   17.1010   13.3690 C.3   232  GLU232      0.1160
     94  CD        16.1030   17.4390   12.1070 C.2   232  GLU232      0.3649
     95  OE1       17.2650   16.9970   11.9950 O.co2 232  GLU232     -0.2457
     96  OE2       15.5370   18.1260   11.2310 O.co2 232  GLU232     -0.2457
     97  N         25.1070   15.5960   21.4870 N.3   236  ARG236     -0.1245
     98  CA        26.3260   14.8170   21.3410 C.3   236  ARG236      0.1563
     99  C         27.4740   15.2180   22.2560 C.2   236  ARG236      0.2260
    100  O         27.5310   16.3390   22.7680 O.2   236  ARG236     -0.2867
    101  CB        26.7930   14.8450   19.8820 C.3   236  ARG236      0.0307
    102  CG        27.1850   16.2190   19.3430 C.3   236  ARG236      0.0489
    103  CD        27.5570   16.0950   17.8710 C.3   236  ARG236      0.2205
    104  NE        28.1430   17.3090   17.3010 N.pl3 236  ARG236     -0.0865
    105  CZ        27.4570   18.3890   16.9320 C.cat 236  ARG236      0.5346
    106  NH1       26.1370   18.4290   17.0670 N.pl3 236  ARG236      0.1354
    107  NH2       28.0970   19.4310   16.4120 N.pl3 236  ARG236      0.1354
    108  N         22.6560    9.1450   13.9240 N.3   280  TRP280     -0.1241
    109  CA        23.3700    9.6040   12.7330 C.3   280  TRP280      0.1605
    110  C         24.6600   10.3460   13.1010 C.2   280  TRP280      0.2264
    111  O         25.5270   10.5550   12.2520 O.2   280  TRP280     -0.2867
    112  CB        22.4830   10.5650   11.9380 C.3   280  TRP280      0.0550
    113  CG        22.3710   11.9100   12.6090 C.ar  280  TRP280      0.0003
    114  CD1       21.9590   12.1530   13.8870 C.ar  280  TRP280      0.0946
    115  CD2       22.7320   13.1830   12.0560 C.ar  280  TRP280      0.0152
    116  NE1       22.0450   13.4950   14.1690 N.ar  280  TRP280     -0.2442
    117  CE2       22.5160   14.1530   13.0630 C.ar  280  TRP280      0.0810
    118  CE3       23.2170   13.6000   10.8080 C.ar  280  TRP280      0.0012
    119  CZ2       22.7700   15.5200   12.8620 C.ar  280  TRP280      0.0191
    120  CZ3       23.4720   14.9610   10.6060 C.ar  280  TRP280      0.0001
    121  CH2       23.2460   15.9030   11.6320 C.ar  280  TRP280      0.0015
    122  N         28.5280   11.6720   10.9370 N.3   284  VAL284     -0.1231
    123  CA        28.7500   13.0450   10.5060 C.3   284  VAL284      0.1692
    124  C         29.7510   13.8070   11.3620 C.2   284  VAL284      0.2592
    125  O         30.4510   14.6900   10.8710 O.2   284  VAL284     -0.2718
    126  CB        27.4180   13.8240   10.4750 C.3   284  VAL284      0.0266
    127  CG1       27.6680   15.2750   10.1060 C.3   284  VAL284      0.0020
    128  CG2       26.4710   13.1820    9.4710 C.3   284  VAL284      0.0020
    129  N         29.8190   13.4630   12.6400 N.am  285  PHE285     -0.1976
    130  CA        30.7260   14.1310   13.5580 C.3   285  PHE285      0.1639
    131  C         31.7540   13.1450   14.0970 C.2   285  PHE285      0.2290
    132  O         31.5700   12.5470   15.1590 O.2   285  PHE285     -0.2864
    133  CB        29.9210   14.7440   14.6970 C.3   285  PHE285      0.0560
    134  CG        28.8360   15.6670   14.2310 C.ar  285  PHE285     -0.0200
    135  CD1       29.1410   16.9470   13.7880 C.ar  285  PHE285     -0.0042
    136  CD2       27.5110   15.2450   14.2040 C.ar  285  PHE285     -0.0042
    137  CE1       28.1420   17.7970   13.3230 C.ar  285  PHE285     -0.0003
    138  CE2       26.5030   16.0850   13.7400 C.ar  285  PHE285     -0.0003
    139  CZ        26.8210   17.3650   13.2980 C.ar  285  PHE285     -0.0000
@<TRIPOS>BOND
     1     4     3    2
     2     3     2    1
     3    18    17    2
     4    17    16    1
     5     1     2    1
     6    15    16    1
     7    16    19    1
     8     2     5    1
     9    21    20    2
    10     5     6    1
    11    19    20    1
    12    20    22   am
    13     6     8   ar
    14     6     7   ar
    15    11     8   ar
    16    11    13   ar
    17     8    10   ar
    18     7     9   ar
    19    13    14   ar
    20    26    25    2
    21     9    10   ar
    22    10    12   ar
    23    14    12   ar
    24    25    24    1
    25    27    24    1
    26    27    28    1
    27    24    23    1
    28    30    29   ar
    29    28    29    1
    30    29    31   ar
    31    52    51    1
    32    32    33    1
    33    49    51   ar
    34    49    47   ar
    35   128   126    1
    36    51    50   ar
    37   127   126    1
    38    33    34    1
    39    33    36    1
    40    47    46   ar
    41    69    67   am
    42    34    35    2
    43   126   123    1
    44    40    38   ar
    45   123   122    1
    46   123   124    1
    47   120   118   ar
    48   120   121   ar
    49    37    36    1
    50    37    38    1
    51    50    48   ar
    52   118   115   ar
    53   125   124    2
    54    96    94   ar
    55    38    39   ar
    56   124   129   am
    57    67    68    2
    58    67    66    1
    59    46    48   ar
    60    46    45    1
    61   121   119   ar
    62    41    42    1
    63   112   113    1
    64   112   109    1
    65    95    94   ar
    66   115   113   ar
    67   115   117   ar
    68    94    93    1
    69   111   110    2
    70    66    65    1
    71   113   114   ar
    72   129   130    1
    73    44    43    2
    74    45    42    1
    75   109   110    1
    76   109   108    1
    77   119   117   ar
    78    42    43    1
    79   117   116   ar
    80   139   137   ar
    81   139   138   ar
    82   137   135   ar
    83    93    92    1
    84    43    53   am
    85    79    77   ar
    86    79    78   ar
    87   130   131    1
    88   130   133    1
    89   138   136   ar
    90   135   134   ar
    91    60    58   am
    92   114   116   ar
    93    77    75   ar
    94    65    62    1
    95   131   132    2
    96   136   134   ar
    97   134   133    1
    98    78    76   ar
    99    57    58    1
   100    57    54    1
   101    92    89    1
   102    53    54    1
   103    58    59    2
   104    56    55    2
   105    75    76   ar
   106    75    74    1
   107    62    61    1
   108    62    63    1
   109    54    55    1
   110    89    88    1
   111    89    90    1
   112    74    71    1
   113    63    64    2
   114   107   105    1
   115    91    90    2
   116   105   106    1
   117   105   104    2
   118   104   103    1
   119    71    70    1
   120    71    72    1
   121    73    72    2
   122   103   102    1
   123   102   101    1
   124    87    85    1
   125   101    98    1
   126    85    84    1
   127    98    97    1
   128    98    99    1
   129    84    81    1
   130    84    86    1
   131    80    81    1
   132    81    82    1
   133    99   100    2
   134    82    83    2
