@<TRIPOS>MOLECULE
tmp/3wuhB00.pdb
 165 152 0 0 0
SMALL
GASTEIGER

@<TRIPOS>ATOM
      1  N        154.0840   56.3790  137.6690 N.3    14  ASP14      -0.1239
      2  CA       152.6360   56.2760  137.5470 C.3    14  ASP14       0.1674
      3  C        151.9250   56.9690  138.7010 C.2    14  ASP14       0.2266
      4  O        152.1290   56.6240  139.8650 O.2    14  ASP14      -0.2867
      5  CB       152.2110   54.8080  137.4840 C.3    14  ASP14       0.1410
      6  CG       152.9630   54.0280  136.4240 C.2    14  ASP14       0.3668
      7  OD1      153.1730   54.5710  135.3180 O.co2  14  ASP14      -0.2456
      8  OD2      153.3490   52.8720  136.7000 O.co2  14  ASP14      -0.2456
      9  N        145.0640   54.6670  138.0700 N.3    36  LYS36      -0.1245
     10  CA       146.4900   54.6510  137.7750 C.3    36  LYS36       0.1561
     11  C        146.7700   55.3350  136.4410 C.2    36  LYS36       0.2260
     12  O        146.5950   54.7390  135.3780 O.2    36  LYS36      -0.2867
     13  CB       147.0180   53.2150  137.7650 C.3    36  LYS36       0.0271
     14  CG       148.5130   53.1020  137.5310 C.3    36  LYS36       0.0035
     15  CD       148.9990   51.6750  137.7320 C.3    36  LYS36       0.0206
     16  CE       150.4980   51.5670  137.4980 C.3    36  LYS36       0.1093
     17  NZ       151.0250   50.2070  137.7970 N.3    36  LYS36      -0.1314
     18  N        160.3910   43.6690  141.1690 N.3   131  SER131     -0.1202
     19  CA       159.7090   44.5880  140.2680 C.3   131  SER131      0.2020
     20  C        160.6900   45.2230  139.2880 C.2   131  SER131      0.2619
     21  O        161.8460   44.8070  139.1950 O.2   131  SER131     -0.2717
     22  CB       158.9800   45.6720  141.0620 C.3   131  SER131      0.2103
     23  OG       159.8940   46.4730  141.7890 O.3   131  SER131     -0.2182
     24  N        160.2220   46.2340  138.5620 N.am  132  GLY132     -0.1942
     25  CA       161.0570   46.9300  137.6020 C.3   132  GLY132      0.2014
     26  C        161.9520   47.9650  138.2570 C.2   132  GLY132      0.2639
     27  O        162.8500   48.5160  137.6180 O.2   132  GLY132     -0.2714
     28  N        161.7060   48.2300  139.5360 N.am  133  GLY133     -0.1954
     29  CA       162.4860   49.2040  140.2760 C.3   133  GLY133      0.1869
     30  C        163.0170   48.6550  141.5850 C.2   133  GLY133      0.2309
     31  O        163.8800   49.2620  142.2190 O.2   133  GLY133     -0.2863
     32  N        163.4690   43.3080  136.4670 N.3   158  GLY158     -0.1225
     33  CA       162.5790   43.8130  135.4390 C.3   158  GLY158      0.1811
     34  C        163.2790   44.7580  134.4850 C.2   158  GLY158      0.2280
     35  O        163.0480   44.7190  133.2790 O.2   158  GLY158     -0.2866
     36  N        165.7090   42.3110  132.4700 N.3   161  LEU161     -0.1231
     37  CA       165.0040   41.4660  131.5100 C.3   161  LEU161      0.1693
     38  C        164.4490   42.2720  130.3370 C.2   161  LEU161      0.2592
     39  O        164.4550   41.8060  129.2010 O.2   161  LEU161     -0.2718
     40  CB       163.8670   40.6990  132.1960 C.3   161  LEU161      0.0284
     41  CG       164.1850   39.3320  132.8140 C.3   161  LEU161      0.0019
     42  CD1      165.4480   38.7240  132.2100 C.3   161  LEU161      0.0001
     43  CD2      164.2860   39.4070  134.3300 C.3   161  LEU161      0.0001
     44  N        163.9800   43.4850  130.6170 N.am  162  ASP162     -0.1974
     45  CA       163.3800   44.3300  129.5900 C.3   162  ASP162      0.1709
     46  C        164.4140   44.7780  128.5540 C.2   162  ASP162      0.2293
     47  O        164.1530   44.7190  127.3550 O.2   162  ASP162     -0.2864
     48  CB       162.7030   45.5510  130.2210 C.3   162  ASP162      0.1436
     49  CG       161.3400   45.2280  130.8050 C.2   162  ASP162      0.3671
     50  OD1      161.1390   44.0890  131.2770 O.co2 162  ASP162     -0.2456
     51  OD2      160.4640   46.1180  130.7950 O.co2 162  ASP162     -0.2456
     52  N        155.0630   45.7710  128.8770 N.3   174  MET174     -0.1245
     53  CA       155.7870   44.7760  129.6580 C.3   174  MET174      0.1570
     54  C        156.5570   43.8360  128.7350 C.2   174  MET174      0.2261
     55  O        156.0390   42.8010  128.3150 O.2   174  MET174     -0.2867
     56  CB       154.8230   43.9860  130.5460 C.3   174  MET174      0.0387
     57  CG       153.8910   44.8450  131.4030 C.3   174  MET174      0.0595
     58  SD       154.6230   45.4670  132.9330 S.3   174  MET174     -0.1393
     59  CE       155.4050   46.9850  132.3880 C.3   174  MET174      0.0692
     60  N        159.3770   42.0060  129.2930 N.3   176  ALA176     -0.1231
     61  CA       159.7520   40.7400  129.9130 C.3   176  ALA176      0.1694
     62  C        158.5670   39.7780  129.9700 C.2   176  ALA176      0.2591
     63  O        158.7430   38.5600  129.9360 O.2   176  ALA176     -0.2718
     64  CB       160.3100   40.9780  131.3040 C.3   176  ALA176      0.0304
     65  N        157.3610   40.3320  130.0570 N.am  177  ARG177     -0.1980
     66  CA       156.1500   39.5240  130.0130 C.3   177  ARG177      0.1597
     67  C        155.9240   39.0010  128.6000 C.2   177  ARG177      0.2287
     68  O        155.3890   37.9100  128.4070 O.2   177  ARG177     -0.2864
     69  CB       154.9390   40.3310  130.4830 C.3   177  ARG177      0.0334
     70  CG       154.9670   40.4670  131.9820 C.3   177  ARG177      0.0492
     71  CD       154.4760   39.2170  132.6760 C.3   177  ARG177      0.2205
     72  NE       153.1710   38.7630  132.2200 N.pl3 177  ARG177     -0.0865
     73  CZ       152.9440   37.5720  131.6640 C.cat 177  ARG177      0.5346
     74  NH1      153.9380   36.6990  131.4590 N.pl3 177  ARG177      0.1354
     75  NH2      151.6890   37.2850  131.2770 N.pl3 177  ARG177      0.1354
     76  N        158.4710   38.4940  126.5340 N.3   179  MET179     -0.1230
     77  CA       159.5480   37.5300  126.3570 C.3   179  MET179      0.1702
     78  C        159.1630   36.2140  127.0210 C.2   179  MET179      0.2592
     79  O        159.5980   35.1420  126.6000 O.2   179  MET179     -0.2718
     80  CB       160.8640   38.0610  126.9320 C.3   179  MET179      0.0401
     81  CG       162.0710   37.1840  126.6250 C.3   179  MET179      0.0596
     82  SD       163.6290   37.8650  127.2300 S.3   179  MET179     -0.1393
     83  CE       163.3130   37.9320  128.9920 C.3   179  MET179      0.0692
     84  N        158.3350   36.3030  128.0600 N.am  180  GLU180     -0.1979
     85  CA       157.8030   35.1150  128.7140 C.3   180  GLU180      0.1602
     86  C        156.4870   34.7090  128.0560 C.2   180  GLU180      0.2287
     87  O        155.5300   34.3230  128.7290 O.2   180  GLU180     -0.2864
     88  CB       157.6020   35.3500  130.2130 C.3   180  GLU180      0.0415
     89  CG       157.6720   34.0750  131.0460 C.3   180  GLU180      0.1163
     90  CD       156.4740   33.9010  131.9590 C.2   180  GLU180      0.3649
     91  OE1      155.7000   34.8680  132.1180 O.co2 180  GLU180     -0.2457
     92  OE2      156.3060   32.7960  132.5160 O.co2 180  GLU180     -0.2457
     93  N        166.6160   34.0510  130.9260 N.3   244  GLN244     -0.1245
     94  CA       165.6920   34.0590  132.0520 C.3   244  GLN244      0.1566
     95  C        166.1650   33.1250  133.1600 C.2   244  GLN244      0.2260
     96  O        166.0660   33.4480  134.3440 O.2   244  GLN244     -0.2867
     97  CB       164.2890   33.6600  131.5940 C.3   244  GLN244      0.0367
     98  CG       163.1960   34.5960  132.0740 C.3   244  GLN244      0.0905
     99  CD       161.8080   34.0760  131.7600 C.2   244  GLN244      0.2608
    100  OE1      160.8180   34.7980  131.8820 O.2   244  GLN244     -0.2717
    101  NE2      161.7280   32.8130  131.3580 N.am  244  GLN244     -0.0878
    102  N        167.2160   34.1680  136.9920 N.3   248  PHE248     -0.1241
    103  CA       166.4930   33.5540  138.0960 C.3   248  PHE248      0.1605
    104  C        167.4260   32.7160  138.9620 C.2   248  PHE248      0.2264
    105  O        167.2700   32.6670  140.1820 O.2   248  PHE248     -0.2867
    106  CB       165.3400   32.7000  137.5690 C.3   248  PHE248      0.0534
    107  CG       164.2290   33.5030  136.9590 C.ar  248  PHE248     -0.0203
    108  CD1      164.0420   34.8260  137.3210 C.ar  248  PHE248     -0.0042
    109  CD2      163.3760   32.9410  136.0240 C.ar  248  PHE248     -0.0042
    110  CE1      163.0260   35.5740  136.7670 C.ar  248  PHE248     -0.0003
    111  CE2      162.3560   33.6860  135.4650 C.ar  248  PHE248     -0.0003
    112  CZ       162.1810   35.0050  135.8370 C.ar  248  PHE248     -0.0000
    113  N        155.9700   42.5230  139.4880 N.3   277  GLY277     -0.1210
    114  CA       155.6080   42.1690  138.1280 C.3   277  GLY277      0.1956
    115  C        156.2530   40.8790  137.6630 C.2   277  GLY277      0.2611
    116  O        155.6600   40.1160  136.9000 O.2   277  GLY277     -0.2717
    117  N        157.4710   40.6310  138.1330 N.am  278  VAL278     -0.1979
    118  CA       158.2190   39.4420  137.7440 C.3   278  VAL278      0.1595
    119  C        157.7070   38.2110  138.4950 C.2   278  VAL278      0.2287
    120  O        157.9680   37.0750  138.1010 O.2   278  VAL278     -0.2864
    121  CB       159.7300   39.6260  138.0010 C.3   278  VAL278      0.0276
    122  CG1      160.5370   38.5530  137.2830 C.3   278  VAL278      0.0022
    123  CG2      160.1740   41.0060  137.5430 C.3   278  VAL278      0.0022
    124  N        154.7690   37.1800  138.5930 N.3   280  SER280     -0.1202
    125  CA       153.7520   36.5240  137.7800 C.3   280  SER280      0.2020
    126  C        154.3750   35.5410  136.7910 C.2   280  SER280      0.2618
    127  O        153.6670   34.7750  136.1380 O.2   280  SER280     -0.2717
    128  CB       152.9120   37.5630  137.0340 C.3   280  SER280      0.2103
    129  OG       153.7250   38.3980  136.2290 O.3   280  SER280     -0.2182
    130  N        155.6990   35.5720  136.6840 N.am  281  ASN281     -0.1974
    131  CA       156.4200   34.6310  135.8340 C.3   281  ASN281      0.1688
    132  C        156.3340   33.2220  136.4090 C.2   281  ASN281      0.2292
    133  O        156.8480   32.9540  137.4950 O.2   281  ASN281     -0.2864
    134  CB       157.8830   35.0600  135.6810 C.3   281  ASN281      0.1181
    135  CG       158.5950   34.3350  134.5530 C.2   281  ASN281      0.2629
    136  OD1      158.4480   33.1260  134.3810 O.2   281  ASN281     -0.2716
    137  ND2      159.3730   35.0790  133.7740 N.am  281  ASN281     -0.0877
    138  N        148.7870   40.1120  139.7470 N.3   300  MET300     -0.1245
    139  CA       149.7340   40.9750  139.0460 C.3   300  MET300      0.1570
    140  C        149.2690   42.4300  139.0180 C.2   300  MET300      0.2261
    141  O        150.0830   43.3510  138.9410 O.2   300  MET300     -0.2867
    142  CB       149.9600   40.4640  137.6200 C.3   300  MET300      0.0387
    143  CG       151.0760   41.1710  136.8670 C.3   300  MET300      0.0595
    144  SD       151.4490   40.3910  135.2860 S.3   300  MET300     -0.1393
    145  CE       149.8330   40.4060  134.5120 C.3   300  MET300      0.0692
    146  N        150.4750   43.5400  142.1610 N.3   303  CYS303     -0.1221
    147  CA       151.9230   43.4080  142.2410 C.3   303  CYS303      0.1808
    148  C        152.6170   44.6860  141.7910 C.2   303  CYS303      0.2602
    149  O        153.5850   45.1300  142.4080 O.2   303  CYS303     -0.2717
    150  CB       152.4010   42.2270  141.3960 C.3   303  CYS303      0.0970
    151  SG       151.9650   40.6080  142.0610 S.3   303  CYS303     -0.0800
    152  N        152.1170   45.2720  140.7080 N.am  304  SER304     -0.1938
    153  CA       152.6700   46.5150  140.1870 C.3   304  SER304      0.2055
    154  C        152.4400   47.6540  141.1700 C.2   304  SER304      0.2643
    155  O        151.6360   47.5310  142.0960 O.2   304  SER304     -0.2714
    156  CB       152.0520   46.8530  138.8290 C.3   304  SER304      0.2130
    157  OG       152.2860   45.8160  137.8910 O.3   304  SER304     -0.2179
    158  N        153.1520   48.7580  140.9710 N.am  305  ASP305     -0.1971
    159  CA       152.9900   49.9270  141.8250 C.3   305  ASP305      0.1709
    160  C        151.5620   50.4540  141.7500 C.2   305  ASP305      0.2293
    161  O        151.0650   50.7920  140.6750 O.2   305  ASP305     -0.2864
    162  CB       153.9790   51.0280  141.4370 C.3   305  ASP305      0.1436
    163  CG       155.3870   50.7400  141.9190 C.2   305  ASP305      0.3671
    164  OD1      155.5360   49.9740  142.8930 O.co2 305  ASP305     -0.2456
    165  OD2      156.3450   51.2840  141.3290 O.co2 305  ASP305     -0.2456
@<TRIPOS>BOND
     1    77    76    1
     2    77    80    1
     3    77    78    1
     4    79    78    2
     5    81    80    1
     6    81    82    1
     7    78    84   am
     8    82    83    1
     9    47    46    2
    10    86    85    1
    11    86    87    2
    12    84    85    1
    13    55    54    2
    14    68    67    2
    15    46    45    1
    16    67    66    1
    17    85    88    1
    18    54    53    1
    19    52    53    1
    20    39    38    2
    21    60    61    1
    22    45    48    1
    23    45    44    1
    24    53    56    1
    25    61    62    1
    26    61    64    1
    27    63    62    2
    28    62    65   am
    29    66    65    1
    30    66    69    1
    31    88    89    1
    32    48    49    1
    33    38    44   am
    34    38    37    1
    35    69    70    1
    36    56    57    1
    37    51    49   ar
    38    49    50   ar
    39    93    94    1
    40    89    90    1
    41    75    73    1
    42   101    99   am
    43    57    58    1
    44    74    73    1
    45    37    40    1
    46    37    36    1
    47    97    94    1
    48    97    98    1
    49    73    72    2
    50    99   100    2
    51    99    98    1
    52    90    91   ar
    53    90    92   ar
    54    70    71    1
    55    94    95    1
    56    40    41    1
    57    42    41    1
    58    72    71    1
    59    59    58    1
    60    41    43    1
    61    95    96    2
    62    35    34    2
    63   137   135   am
    64   136   135    2
    65    34    33    1
    66   145   144    1
    67   135   134    1
    68   144   143    1
    69     7     6   ar
    70    12    11    2
    71    33    32    1
    72   111   112   ar
    73   111   109   ar
    74   134   131    1
    75   131   132    1
    76   131   130    1
    77   112   110   ar
    78   109   107   ar
    79   127   126    2
    80   129   128    1
    81   132   133    2
    82     6     8   ar
    83     6     5    1
    84    11    10    1
    85   130   126   am
    86   110   108   ar
    87   126   125    1
    88   143   142    1
    89   116   115    2
    90   107   108   ar
    91   107   106    1
    92   102   103    1
    93   128   125    1
    94   122   121    1
    95     5     2    1
    96    16    15    1
    97    16    17    1
    98    14    15    1
    99    14    13    1
   100   123   121    1
   101     2     1    1
   102     2     3    1
   103   106   103    1
   104    25    26    1
   105    25    24    1
   106    27    26    2
   107   142   139    1
   108   115   114    1
   109   115   117   am
   110   118   121    1
   111   118   117    1
   112   118   119    1
   113    13    10    1
   114    10     9    1
   115   125   124    1
   116   157   156    1
   117   103   104    1
   118   120   119    2
   119   114   113    1
   120    26    28   am
   121    24    20   am
   122     3     4    2
   123   156   153    1
   124   141   140    2
   125   104   105    2
   126   140   139    1
   127   139   138    1
   128    21    20    2
   129    20    19    1
   130    28    29    1
   131   153   152    1
   132   153   154    1
   133    19    22    1
   134    19    18    1
   135    29    30    1
   136   161   160    2
   137   152   148   am
   138   158   154   am
   139   158   159    1
   140    22    23    1
   141   154   155    2
   142   165   163   ar
   143   150   151    1
   144   150   147    1
   145   162   159    1
   146   162   163    1
   147    30    31    2
   148   160   159    1
   149   148   147    1
   150   148   149    2
   151   163   164   ar
   152   146   147    1
