@<TRIPOS>MOLECULE
tmp/3wv1B00.pdb
 224 225 0 0 0
SMALL
GASTEIGER

@<TRIPOS>ATOM
      1  N          0.5830  -22.4460  -29.0910 N.3    35  LYS35      -0.1245
      2  CA         0.2890  -23.5210  -28.1630 C.3    35  LYS35       0.1561
      3  C          1.3720  -23.6470  -27.0980 C.2    35  LYS35       0.2260
      4  O          1.0660  -23.8940  -25.9220 O.2    35  LYS35      -0.2867
      5  CB         0.0790  -24.8510  -28.9110 C.3    35  LYS35       0.0271
      6  CG        -0.5380  -25.9160  -28.0430 C.3    35  LYS35       0.0035
      7  CD        -0.5710  -27.2920  -28.6760 C.3    35  LYS35       0.0206
      8  CE        -1.3410  -28.2370  -27.7460 C.3    35  LYS35       0.1093
      9  NZ        -1.6170  -29.5720  -28.3410 N.3    35  LYS35      -0.1314
     10  N         19.0730  -29.2540  -30.4890 N.3    80  LEU80      -0.1231
     11  CA        17.8220  -29.0630  -31.2100 C.3    80  LEU80       0.1693
     12  C         17.4370  -27.5990  -31.2750 C.2    80  LEU80       0.2591
     13  O         16.8810  -27.1410  -32.2740 O.2    80  LEU80      -0.2718
     14  CB        16.6870  -29.8460  -30.5430 C.3    80  LEU80       0.0284
     15  CG        16.8670  -31.3360  -30.2610 C.3    80  LEU80       0.0019
     16  CD1       15.6930  -31.8370  -29.4240 C.3    80  LEU80       0.0001
     17  CD2       16.9900  -32.1210  -31.5590 C.3    80  LEU80       0.0001
     18  N         17.7170  -26.8950  -30.1820 N.am   81  ALA81      -0.1980
     19  CA        17.2870  -25.5240  -29.9670 C.3    81  ALA81       0.1597
     20  C         17.9210  -25.0170  -28.6760 C.2    81  ALA81       0.2287
     21  O         18.3580  -25.8060  -27.8410 O.2    81  ALA81      -0.2864
     22  CB        15.7750  -25.4550  -29.8680 C.3    81  ALA81       0.0319
     23  N          4.5460  -31.5570  -36.5860 N.3   104  SER104     -0.1217
     24  CA         3.4450  -31.5160  -35.6340 C.3   104  SER104      0.1889
     25  C          3.0640  -32.9310  -35.1960 C.2   104  SER104      0.2288
     26  O          1.9160  -33.1640  -34.8600 O.2   104  SER104     -0.2866
     27  CB         2.2210  -30.8410  -36.2660 C.3   104  SER104      0.2089
     28  OG         2.5200  -29.5110  -36.6720 O.3   104  SER104     -0.2183
     29  N          9.0500  -32.6820  -32.5710 N.3   110  ASN110     -0.1240
     30  CA         7.7740  -32.0080  -32.5140 C.3   110  ASN110      0.1653
     31  C          8.0600  -30.5780  -32.0950 C.2   110  ASN110      0.2266
     32  O          8.6030  -30.3440  -31.0090 O.2   110  ASN110     -0.2867
     33  CB         6.8560  -32.7340  -31.5270 C.3   110  ASN110      0.1155
     34  CG         5.4920  -32.1200  -31.4330 C.2   110  ASN110      0.2627
     35  OD1        5.2900  -31.1580  -30.6860 O.2   110  ASN110     -0.2716
     36  ND2        4.5310  -32.6830  -32.1690 N.am  110  ASN110     -0.0877
     37  N          6.1500  -27.8850  -31.3250 N.3   112  PHE112     -0.1227
     38  CA         5.4100  -27.4280  -30.1450 C.3   112  PHE112      0.1736
     39  C          6.0980  -27.8720  -28.8430 C.2   112  PHE112      0.2595
     40  O          6.2720  -27.0750  -27.9220 O.2   112  PHE112     -0.2718
     41  CB         3.9630  -27.9380  -30.1700 C.3   112  PHE112      0.0547
     42  CG         3.3920  -28.1500  -28.7960 C.ar  112  PHE112     -0.0202
     43  CD1        3.0510  -27.0620  -27.9950 C.ar  112  PHE112     -0.0042
     44  CD2        3.2480  -29.4350  -28.2750 C.ar  112  PHE112     -0.0042
     45  CE1        2.5410  -27.2530  -26.7060 C.ar  112  PHE112     -0.0003
     46  CE2        2.7410  -29.6290  -26.9880 C.ar  112  PHE112     -0.0003
     47  CZ         2.4040  -28.5280  -26.2050 C.ar  112  PHE112     -0.0000
     48  N          6.4780  -29.1480  -28.7820 N.am  113  LEU113     -0.1966
     49  CA         7.0510  -29.7410  -27.5840 C.3   113  LEU113      0.1728
     50  C          8.4100  -29.1130  -27.2490 C.2   113  LEU113      0.2616
     51  O          8.6920  -28.7700  -26.1000 O.2   113  LEU113     -0.2715
     52  CB         7.2040  -31.2450  -27.7940 C.3   113  LEU113      0.0311
     53  CG         7.3610  -32.1430  -26.5640 C.3   113  LEU113      0.0022
     54  CD1        6.3620  -31.7790  -25.4550 C.3   113  LEU113      0.0001
     55  CD2        7.2090  -33.6100  -26.9990 C.3   113  LEU113      0.0001
     56  N          9.2390  -28.9620  -28.2690 N.am  114  VAL114     -0.1977
     57  CA        10.5470  -28.3260  -28.1060 C.3   114  VAL114      0.1596
     58  C         10.3580  -26.8550  -27.7440 C.2   114  VAL114      0.2287
     59  O         10.9560  -26.3870  -26.7760 O.2   114  VAL114     -0.2864
     60  CB        11.4490  -28.5410  -29.3320 C.3   114  VAL114      0.0276
     61  CG1       12.8010  -27.8500  -29.1480 C.3   114  VAL114      0.0022
     62  CG2       11.6640  -30.0230  -29.5490 C.3   114  VAL114      0.0022
     63  N          9.2400  -26.3630  -24.0250 N.3   117  HIS117     -0.1226
     64  CA        10.4440  -26.5230  -23.2290 C.3   117  HIS117      0.1752
     65  C         11.3400  -25.2800  -23.2780 C.2   117  HIS117      0.2595
     66  O         11.7380  -24.7360  -22.2350 O.2   117  HIS117     -0.2718
     67  CB        11.2000  -27.7450  -23.7690 C.3   117  HIS117      0.0759
     68  CG        12.4960  -28.0180  -23.0730 C.ar  117  HIS117      0.0818
     69  ND1       12.6400  -29.0140  -22.1300 N.ar  117  HIS117     -0.2268
     70  CD2       13.7060  -27.4190  -23.1780 C.ar  117  HIS117      0.1154
     71  CE1       13.8860  -29.0200  -21.6880 C.ar  117  HIS117      0.1986
     72  NE2       14.5500  -28.0570  -22.3020 N.ar  117  HIS117     -0.2212
     73  N         11.6420  -24.8250  -24.4910 N.am  118  GLU118     -0.1979
     74  CA        12.5280  -23.6820  -24.6760 C.3   118  GLU118      0.1602
     75  C         11.9540  -22.4110  -24.0700 C.2   118  GLU118      0.2287
     76  O         12.6940  -21.6370  -23.4870 O.2   118  GLU118     -0.2864
     77  CB        12.8940  -23.4760  -26.1500 C.3   118  GLU118      0.0415
     78  CG        13.5760  -24.6860  -26.8050 C.3   118  GLU118      0.1163
     79  CD        14.9390  -25.0340  -26.1970 C.2   118  GLU118      0.3649
     80  OE1       15.5850  -24.1600  -25.5720 O.co2 118  GLU118     -0.2457
     81  OE2       15.3760  -26.1880  -26.3660 O.co2 118  GLU118     -0.2457
     82  N         12.1820  -36.9750  -14.4410 N.3   131  PRO131     -0.2102
     83  CA        12.2680  -37.5240  -15.7990 C.3   131  PRO131      0.1504
     84  C         10.9770  -37.3660  -16.5970 C.2   131  PRO131      0.2576
     85  O         10.9810  -37.5460  -17.8150 O.2   131  PRO131     -0.2718
     86  CB        12.5640  -39.0090  -15.5590 C.3   131  PRO131      0.0282
     87  CG        11.9640  -39.3040  -14.2450 C.3   131  PRO131      0.0208
     88  CD        12.1740  -38.0450  -13.4240 C.3   131  PRO131      0.0893
     89  N          9.8820  -37.0410  -15.9130 N.am  132  GLY132     -0.1943
     90  CA         8.6060  -36.8040  -16.5790 C.3   132  GLY132      0.2014
     91  C          8.2720  -35.3410  -16.8140 C.2   132  GLY132      0.2639
     92  O          7.2310  -35.0300  -17.3880 O.2   132  GLY132     -0.2714
     93  N          9.1460  -34.4440  -16.3700 N.am  133  ALA133     -0.1963
     94  CA         8.9170  -33.0050  -16.5120 C.3   133  ALA133      0.1728
     95  C          9.1340  -32.5250  -17.9410 C.2   133  ALA133      0.2616
     96  O          9.9570  -33.0710  -18.6830 O.2   133  ALA133     -0.2715
     97  CB         9.7940  -32.2270  -15.5480 C.3   133  ALA133      0.0334
     98  N          8.3820  -31.5020  -18.3280 N.am  134  LEU134     -0.1977
     99  CA         8.6190  -30.8160  -19.5980 C.3   134  LEU134      0.1596
    100  C         10.0580  -30.2910  -19.6540 C.2   134  LEU134      0.2287
    101  O         10.6920  -30.2980  -20.7130 O.2   134  LEU134     -0.2864
    102  CB         7.6360  -29.6510  -19.7830 C.3   134  LEU134      0.0297
    103  CG         7.8740  -28.7590  -21.0150 C.3   134  LEU134      0.0022
    104  CD1        7.7830  -29.5560  -22.3390 C.3   134  LEU134      0.0001
    105  CD2        6.9160  -27.5900  -21.0320 C.3   134  LEU134      0.0001
    106  N         12.7710  -31.4610  -18.3520 N.3   136  PHE136     -0.1228
    107  CA        13.8320  -32.4780  -18.2700 C.3   136  PHE136      0.1721
    108  C         14.7910  -32.2590  -19.4510 C.2   136  PHE136      0.2437
    109  O         14.3480  -31.8130  -20.5070 O.2   136  PHE136     -0.2733
    110  CB        13.2230  -33.8870  -18.2870 C.3   136  PHE136      0.0547
    111  CG        14.1940  -34.9820  -17.9290 C.ar  136  PHE136     -0.0202
    112  CD1       14.7180  -35.0810  -16.6350 C.ar  136  PHE136     -0.0042
    113  CD2       14.5810  -35.9170  -18.8840 C.ar  136  PHE136     -0.0042
    114  CE1       15.6280  -36.0940  -16.3120 C.ar  136  PHE136     -0.0003
    115  CE2       15.4750  -36.9350  -18.5750 C.ar  136  PHE136     -0.0003
    116  CZ        16.0050  -37.0250  -17.2890 C.ar  136  PHE136     -0.0000
    117  N         16.1090  -32.5070  -19.2670 N.am  137  PRO137     -0.2718
    118  CA        17.0400  -32.2250  -20.3800 C.3   137  PRO137      0.1535
    119  C         17.0240  -33.1540  -21.6090 C.2   137  PRO137      0.2598
    120  O         17.6670  -32.8370  -22.6010 O.2   137  PRO137     -0.2715
    121  CB        18.4190  -32.2270  -19.7020 C.3   137  PRO137      0.0310
    122  CG        18.2520  -33.0600  -18.4980 C.3   137  PRO137      0.0237
    123  CD        16.8200  -32.9590  -18.0550 C.3   137  PRO137      0.0939
    124  N         16.3010  -34.2710  -21.5640 N.am  138  ILE138     -0.1964
    125  CA        16.2480  -35.1860  -22.7190 C.3   138  ILE138      0.1727
    126  C         14.8570  -35.2420  -23.3590 C.2   138  ILE138      0.2616
    127  O         13.8580  -35.4800  -22.6750 O.2   138  ILE138     -0.2715
    128  CB        16.7850  -36.6080  -22.3730 C.3   138  ILE138      0.0290
    129  CG1       18.3150  -36.5930  -22.2650 C.3   138  ILE138      0.0022
    130  CG2       16.3580  -37.6510  -23.4140 C.3   138  ILE138      0.0023
    131  CD1       19.0550  -36.2410  -23.5690 C.3   138  ILE138      0.0001
    132  N         14.8110  -35.0060  -24.6740 N.am  139  TYR139     -0.1960
    133  CA        13.5890  -35.1250  -25.4750 C.3   139  TYR139      0.1771
    134  C         13.0740  -36.5710  -25.5840 C.2   139  TYR139      0.2620
    135  O         13.7890  -37.4640  -26.0180 O.2   139  TYR139     -0.2715
    136  CB        13.8150  -34.5470  -26.8880 C.3   139  TYR139      0.0574
    137  CG        12.6130  -34.6370  -27.8050 C.ar  139  TYR139     -0.0198
    138  CD1       11.7000  -33.5880  -27.8880 C.ar  139  TYR139     -0.0009
    139  CD2       12.3960  -35.7600  -28.6020 C.ar  139  TYR139     -0.0009
    140  CE1       10.5920  -33.6570  -28.7340 C.ar  139  TYR139      0.0417
    141  CE2       11.2970  -35.8410  -29.4520 C.ar  139  TYR139      0.0417
    142  CZ        10.3970  -34.7840  -29.5120 C.ar  139  TYR139      0.1957
    143  OH         9.3050  -34.8490  -30.3550 O.3   139  TYR139     -0.2866
    144  N         11.8230  -36.7860  -25.1900 N.am  140  THR140     -0.1937
    145  CA        11.1130  -38.0220  -25.5020 C.3   140  THR140      0.2028
    146  C          9.7260  -37.6540  -26.0150 C.2   140  THR140      0.2642
    147  O          9.1090  -36.7020  -25.5230 O.2   140  THR140     -0.2714
    148  CB        10.9640  -38.9880  -24.2720 C.3   140  THR140      0.1808
    149  OG1       10.0270  -38.4470  -23.3300 O.3   140  THR140     -0.2208
    150  CG2       12.3090  -39.2600  -23.5770 C.3   140  THR140      0.0379
    151  N          9.2430  -38.3890  -27.0070 N.am  141  TYR141     -0.1959
    152  CA         7.8670  -38.2190  -27.4660 C.3   141  TYR141      0.1771
    153  C          6.9700  -39.2960  -26.8550 C.2   141  TYR141      0.2620
    154  O          7.0690  -40.4780  -27.2160 O.2   141  TYR141     -0.2715
    155  CB         7.7880  -38.2380  -28.9930 C.3   141  TYR141      0.0574
    156  CG         6.4640  -37.7600  -29.5330 C.ar  141  TYR141     -0.0198
    157  CD1        5.4190  -38.6540  -29.7340 C.ar  141  TYR141     -0.0009
    158  CD2        6.2480  -36.4090  -29.8340 C.ar  141  TYR141     -0.0009
    159  CE1        4.1980  -38.2340  -30.2270 C.ar  141  TYR141      0.0417
    160  CE2        5.0220  -35.9730  -30.3350 C.ar  141  TYR141      0.0417
    161  CZ         4.0020  -36.9010  -30.5270 C.ar  141  TYR141      0.1957
    162  OH         2.7740  -36.5240  -31.0150 O.3   141  TYR141     -0.2866
    163  N          6.1030  -38.8710  -25.9300 N.am  142  THR142     -0.1937
    164  CA         5.2440  -39.7810  -25.1520 C.3   142  THR142      0.2028
    165  C          4.0220  -40.3180  -25.9120 C.2   142  THR142      0.2643
    166  O          3.4340  -41.3290  -25.5150 O.2   142  THR142     -0.2714
    167  CB         4.7710  -39.1470  -23.8080 C.3   142  THR142      0.1808
    168  OG1        3.8820  -38.0570  -24.0710 O.3   142  THR142     -0.2208
    169  CG2        5.9490  -38.6720  -22.9830 C.3   142  THR142      0.0379
    170  N          3.6340  -39.6440  -26.9890 N.am  143  GLY143     -0.1939
    171  CA         2.5780  -40.1500  -27.8760 C.3   143  GLY143      0.2014
    172  C          1.1510  -39.7440  -27.5300 C.2   143  GLY143      0.2639
    173  O          0.2160  -40.0260  -28.3030 O.2   143  GLY143     -0.2714
    174  N          0.9920  -39.0880  -26.3760 N.am  144  LYS144     -0.1963
    175  CA        -0.3050  -38.6050  -25.8800 C.3   144  LYS144      0.1728
    176  C         -0.9370  -37.6380  -26.8750 C.2   144  LYS144      0.2617
    177  O         -0.2250  -36.8910  -27.5600 O.2   144  LYS144     -0.2715
    178  CB        -0.1310  -37.9150  -24.5250 C.3   144  LYS144      0.0311
    179  CG         0.4690  -38.8040  -23.4390 C.3   144  LYS144      0.0038
    180  CD         1.1930  -37.9970  -22.3510 C.3   144  LYS144      0.0206
    181  CE         0.2400  -37.2360  -21.4320 C.3   144  LYS144      0.1093
    182  NZ        -0.5950  -38.1510  -20.5980 N.3   144  LYS144     -0.1314
    183  N         -2.2680  -37.6690  -26.9680 N.am  145  SER145     -0.1936
    184  CA        -3.0010  -36.7570  -27.8510 C.3   145  SER145      0.2055
    185  C         -3.0020  -35.3480  -27.2470 C.2   145  SER145      0.2643
    186  O         -3.0130  -34.3420  -27.9730 O.2   145  SER145     -0.2714
    187  CB        -4.4520  -37.2280  -28.0800 C.3   145  SER145      0.2130
    188  OG        -4.5580  -38.6230  -28.3550 O.3   145  SER145     -0.2179
    189  N         -2.9870  -35.2890  -25.9140 N.am  146  HIS146     -0.1959
    190  CA        -3.1380  -34.0300  -25.1950 C.3   146  HIS146      0.1787
    191  C         -1.9560  -33.6930  -24.3090 C.2   146  HIS146      0.2620
    192  O         -1.5060  -34.5140  -23.5060 O.2   146  HIS146     -0.2715
    193  CB        -4.3980  -34.0610  -24.3440 C.3   146  HIS146      0.0785
    194  CG        -5.6570  -34.1190  -25.1450 C.ar  146  HIS146      0.0821
    195  ND1       -6.5740  -33.0930  -25.1580 N.ar  146  HIS146     -0.2267
    196  CD2       -6.1500  -35.0780  -25.9610 C.ar  146  HIS146      0.1154
    197  CE1       -7.5810  -33.4180  -25.9470 C.ar  146  HIS146      0.1986
    198  NE2       -7.3480  -34.6170  -26.4480 N.ar  146  HIS146     -0.2212
    199  N         -1.4720  -32.4670  -24.4460 N.am  147  PHE147     -0.1960
    200  CA        -0.4240  -32.0030  -23.5590 C.3   147  PHE147      0.1771
    201  C         -0.9980  -31.5960  -22.2220 C.2   147  PHE147      0.2619
    202  O         -1.9700  -30.8340  -22.1550 O.2   147  PHE147     -0.2715
    203  CB         0.3580  -30.8390  -24.1540 C.3   147  PHE147      0.0574
    204  CG         1.5280  -30.4300  -23.3180 C.ar  147  PHE147     -0.0200
    205  CD1        1.4040  -29.4200  -22.3750 C.ar  147  PHE147     -0.0042
    206  CD2        2.7500  -31.0740  -23.4510 C.ar  147  PHE147     -0.0042
    207  CE1        2.4930  -29.0430  -21.5930 C.ar  147  PHE147     -0.0003
    208  CE2        3.8360  -30.7030  -22.6740 C.ar  147  PHE147     -0.0003
    209  CZ         3.7050  -29.6960  -21.7420 C.ar  147  PHE147     -0.0000
    210  N         -0.3840  -32.1140  -21.1630 N.am  148  MET148     -0.1977
    211  CA        -0.6700  -31.6780  -19.8060 C.3   148  MET148      0.1605
    212  C          0.6680  -31.3100  -19.1800 C.2   148  MET148      0.2287
    213  O          1.6320  -32.0740  -19.2750 O.2   148  MET148     -0.2864
    214  CB        -1.3960  -32.7870  -19.0260 C.3   148  MET148      0.0413
    215  CG        -2.9320  -32.7860  -19.2240 C.3   148  MET148      0.0598
    216  SD        -3.8180  -34.3810  -19.1370 S.3   148  MET148     -0.1393
    217  CE        -3.4660  -35.0900  -20.7510 C.3   148  MET148      0.0692
    218  N          3.3110  -31.1750  -16.5070 N.3   150  PRO150     -0.2116
    219  CA         3.5630  -31.9350  -15.2790 C.3   150  PRO150      0.1372
    220  C          3.7030  -31.0290  -14.0680 C.2   150  PRO150      0.2244
    221  O          4.1470  -29.8820  -14.1930 O.2   150  PRO150     -0.2868
    222  CB         4.8730  -32.6630  -15.5790 C.3   150  PRO150      0.0268
    223  CG         4.9160  -32.7360  -17.0900 C.3   150  PRO150      0.0207
    224  CD         4.3800  -31.4010  -17.5010 C.3   150  PRO150      0.0892
@<TRIPOS>BOND
     1    28    27    1
     2    23    24    1
     3    27    24    1
     4    24    25    1
     5    25    26    2
     6    29    30    1
     7    30    31    1
     8    30    33    1
     9    13    12    2
    10    36    34   am
    11    31    32    2
    12    17    15    1
    13    33    34    1
    14    34    35    2
    15    37    38    1
    16    12    11    1
    17    12    18   am
    18    11    14    1
    19    11    10    1
    20   162   161    1
    21    14    15    1
    22   161   160   ar
    23   161   159   ar
    24   143   142    1
    25   160   158   ar
    26    15    16    1
    27   159   157   ar
    28    18    19    1
    29    41    38    1
    30    41    42    1
    31    38    39    1
    32    19    22    1
    33    19    20    1
    34   158   156   ar
    35   157   156   ar
    36    62    60    1
    37   156   155    1
    38   142   141   ar
    39   142   140   ar
    40   141   139   ar
    41    60    61    1
    42    60    57    1
    43     1     2    1
    44   155   152    1
    45     5     2    1
    46     5     6    1
    47    39    48   am
    48    39    40    2
    49    42    44   ar
    50    42    43   ar
    51    48    49    1
    52   140   138   ar
    53     7     6    1
    54     7     8    1
    55    20    21    2
    56   139   137   ar
    57   188   187    1
    58     9     8    1
    59   173   172    2
    60    44    46   ar
    61    56    57    1
    62    56    50   am
    63     2     3    1
    64    57    58    1
    65   187   184    1
    66    43    45   ar
    67   186   185    2
    68   138   137   ar
    69   171   172    1
    70   171   170    1
    71   184   185    1
    72   184   183    1
    73   137   136    1
    74    52    49    1
    75    52    53    1
    76    58    59    2
    77    49    50    1
    78   177   176    2
    79   172   174   am
    80   152   151    1
    81   152   153    1
    82    50    51    2
    83   185   189   am
    84   154   153    2
    85     3     4    2
    86   151   146   am
    87    55    53    1
    88   170   165   am
    89    46    47   ar
    90   183   176   am
    91   136   133    1
    92   176   175    1
    93   153   163   am
    94    78    79    1
    95    78    77    1
    96    45    47   ar
    97    53    54    1
    98   198   196   ar
    99   198   197   ar
   100   174   175    1
   101    81    79   ar
   102    79    80   ar
   103    77    74    1
   104   135   134    2
   105   146   147    2
   106   146   145    1
   107   196   194   ar
   108   197   195   ar
   109   163   164    1
   110   189   190    1
   111   165   166    2
   112   165   164    1
   113   175   178    1
   114   134   133    1
   115   134   144   am
   116   145   144    1
   117   145   148    1
   118   133   132    1
   119   190   193    1
   120   190   191    1
   121   195   194   ar
   122   164   167    1
   123   194   193    1
   124    74    73    1
   125    74    75    1
   126   132   126   am
   127   178   179    1
   128    73    65   am
   129   199   191   am
   130   199   200    1
   131   191   192    2
   132   148   150    1
   133   148   149    1
   134   203   200    1
   135   203   204    1
   136   168   167    1
   137    75    76    2
   138    63    64    1
   139   167   169    1
   140    67    64    1
   141    67    68    1
   142   131   129    1
   143   200   201    1
   144   206   204   ar
   145   206   208   ar
   146   179   180    1
   147   130   128    1
   148   126   125    1
   149   126   127    2
   150   204   205   ar
   151    65    64    1
   152    65    66    2
   153    70    68   ar
   154    70    72   ar
   155    68    69   ar
   156   125   128    1
   157   125   124    1
   158   208   209   ar
   159   120   119    2
   160   205   207   ar
   161   128   129    1
   162   180   181    1
   163   104   103    1
   164    72    71   ar
   165   201   202    2
   166   201   210   am
   167    69    71   ar
   168   209   207   ar
   169   119   124   am
   170   119   118    1
   171   181   182    1
   172   210   211    1
   173   105   103    1
   174   103   102    1
   175   217   216    1
   176   101   100    2
   177   109   108    2
   178   118   121    1
   179   118   117    1
   180   211   212    1
   181   211   214    1
   182   102    99    1
   183   121   122    1
   184   100    99    1
   185    99    98    1
   186   108   117   am
   187   108   107    1
   188   213   212    2
   189   117   123    1
   190   215   216    1
   191   215   214    1
   192   113   115   ar
   193   113   111   ar
   194    96    95    2
   195   115   116   ar
   196   122   123    1
   197   106   107    1
   198    98    95   am
   199   110   107    1
   200   110   111    1
   201    95    94    1
   202   111   112   ar
   203    85    84    2
   204   224   223    1
   205   224   218    1
   206    92    91    2
   207   116   114   ar
   208   223   222    1
   209    91    90    1
   210    91    93   am
   211   112   114   ar
   212    84    89   am
   213    84    83    1
   214    90    89    1
   215    94    93    1
   216    94    97    1
   217   218   219    1
   218    83    86    1
   219    83    82    1
   220   222   219    1
   221    86    87    1
   222   219   220    1
   223    82    88    1
   224    87    88    1
   225   221   220    2
