@<TRIPOS>MOLECULE
tmp/3wv2B00.pdb
 171 172 0 0 0
SMALL
GASTEIGER

@<TRIPOS>ATOM
      1  N        -29.1060   -6.9450   21.0500 N.3    80  LEU80      -0.1231
      2  CA       -29.9250   -7.1030   19.8470 C.3    80  LEU80       0.1693
      3  C        -30.0510   -8.5450   19.4190 C.2    80  LEU80       0.2591
      4  O        -31.0800   -8.9590   18.8630 O.2    80  LEU80      -0.2718
      5  CB       -29.3350   -6.3100   18.6860 C.3    80  LEU80       0.0284
      6  CG       -28.9690   -4.8560   18.9540 C.3    80  LEU80       0.0019
      7  CD1      -28.1360   -4.3150   17.7980 C.3    80  LEU80       0.0001
      8  CD2      -30.2270   -4.0370   19.1890 C.3    80  LEU80       0.0001
      9  N        -28.9790   -9.2880   19.6710 N.am   81  ALA81      -0.1980
     10  CA       -28.7820  -10.6290   19.1560 C.3    81  ALA81       0.1597
     11  C        -27.4570  -11.1270   19.7050 C.2    81  ALA81       0.2287
     12  O        -26.5750  -10.3360   20.0270 O.2    81  ALA81      -0.2864
     13  CB       -28.7360  -10.6010   17.6390 C.3    81  ALA81       0.0319
     14  N        -28.0240   -7.0930    8.3560 N.3   113  LEU113     -0.1231
     15  CA       -26.8330   -6.4730    8.9240 C.3   113  LEU113      0.1693
     16  C        -26.4420   -7.1180   10.2330 C.2   113  LEU113      0.2591
     17  O        -25.2960   -7.5270   10.4160 O.2   113  LEU113     -0.2718
     18  CB       -27.0770   -4.9770    9.1320 C.3   113  LEU113      0.0284
     19  CG       -25.9060   -4.0090    8.9640 C.3   113  LEU113      0.0019
     20  CD1      -24.9910   -4.4260    7.8130 C.3   113  LEU113      0.0001
     21  CD2      -26.4620   -2.6070    8.7340 C.3   113  LEU113      0.0001
     22  N        -27.4040   -7.2240   11.1380 N.am  114  VAL114     -0.1980
     23  CA       -27.1720   -7.8710   12.4190 C.3   114  VAL114      0.1595
     24  C        -26.8360   -9.3450   12.2350 C.2   114  VAL114      0.2287
     25  O        -25.8800   -9.8400   12.8380 O.2   114  VAL114     -0.2864
     26  CB       -28.3460   -7.6560   13.3950 C.3   114  VAL114      0.0276
     27  CG1      -28.1550   -8.4700   14.6750 C.3   114  VAL114      0.0022
     28  CG2      -28.4710   -6.1690   13.7170 C.3   114  VAL114      0.0022
     29  N        -23.2470   -9.7610   10.8260 N.3   117  HIS117     -0.1226
     30  CA       -22.4170   -9.6110   12.0130 C.3   117  HIS117      0.1752
     31  C        -22.3680  -10.8740   12.8590 C.2   117  HIS117      0.2595
     32  O        -21.2950  -11.4180   13.1120 O.2   117  HIS117     -0.2718
     33  CB       -22.9500   -8.4470   12.8540 C.3   117  HIS117      0.0759
     34  CG       -22.1170   -8.1340   14.0590 C.ar  117  HIS117      0.0818
     35  ND1      -21.1480   -7.1520   14.0600 N.ar  117  HIS117     -0.2268
     36  CD2      -22.1210   -8.6590   15.3060 C.ar  117  HIS117      0.1154
     37  CE1      -20.5840   -7.0920   15.2540 C.ar  117  HIS117      0.1986
     38  NE2      -21.1520   -7.9990   16.0280 N.ar  117  HIS117     -0.2212
     39  N        -23.5340  -11.3410   13.2930 N.am  118  GLU118     -0.1979
     40  CA       -23.6170  -12.4860   14.2020 C.3   118  GLU118      0.1602
     41  C        -23.0680  -13.7630   13.5760 C.2   118  GLU118      0.2287
     42  O        -22.4250  -14.5530   14.2570 O.2   118  GLU118     -0.2864
     43  CB       -25.0560  -12.6950   14.7240 C.3   118  GLU118      0.0415
     44  CG       -25.6480  -11.4970   15.4700 C.3   118  GLU118      0.1163
     45  CD       -24.8950  -11.1050   16.7300 C.2   118  GLU118      0.3649
     46  OE1      -24.0990  -11.9090   17.2630 O.co2 118  GLU118     -0.2457
     47  OE2      -25.1110   -9.9780   17.2090 O.co2 118  GLU118     -0.2457
     48  N        -15.0970   -9.3620   17.8960 N.3   127  HIS127     -0.1241
     49  CA       -15.2640   -8.0010   17.4670 C.3   127  HIS127      0.1621
     50  C        -13.9630   -7.4310   16.9200 C.2   127  HIS127      0.2264
     51  O        -12.8740   -7.7010   17.4390 O.2   127  HIS127     -0.2867
     52  CB       -15.8160   -7.1380   18.5930 C.3   127  HIS127      0.0745
     53  CG       -17.2680   -7.3690   18.8650 C.ar  127  HIS127      0.0817
     54  ND1      -17.7760   -7.5040   20.1390 N.ar  127  HIS127     -0.2268
     55  CD2      -18.3200   -7.5080   18.0240 C.ar  127  HIS127      0.1154
     56  CE1      -19.0810   -7.7020   20.0710 C.ar  127  HIS127      0.1986
     57  NE2      -19.4360   -7.7080   18.7990 N.ar  127  HIS127     -0.2212
     58  N        -13.5990    0.6430   13.1960 N.3   131  PRO131     -0.2102
     59  CA       -14.9800    1.1750   13.3150 C.3   131  PRO131      0.1504
     60  C        -15.8200    1.0510   12.0530 C.2   131  PRO131      0.2576
     61  O        -17.0420    1.1980   12.1170 O.2   131  PRO131     -0.2718
     62  CB       -14.7760    2.6560   13.6460 C.3   131  PRO131      0.0282
     63  CG       -13.4120    2.9810   13.1320 C.3   131  PRO131      0.0208
     64  CD       -12.5910    1.7200   13.1870 C.3   131  PRO131      0.0893
     65  N        -15.1690    0.7980   10.9200 N.am  132  GLY132     -0.1943
     66  CA       -15.8670    0.5890    9.6570 C.3   132  GLY132      0.2014
     67  C        -16.1650   -0.8660    9.3560 C.2   132  GLY132      0.2639
     68  O        -16.8960   -1.1680    8.4080 O.2   132  GLY132     -0.2714
     69  N        -15.5970   -1.7640   10.1590 N.am  133  ALA133     -0.1963
     70  CA       -15.7710   -3.1980    9.9730 C.3   133  ALA133      0.1728
     71  C        -17.1880   -3.6300   10.3010 C.2   133  ALA133      0.2616
     72  O        -17.8630   -3.0160   11.1280 O.2   133  ALA133     -0.2715
     73  CB       -14.7780   -3.9710   10.8260 C.3   133  ALA133      0.0334
     74  N        -17.6370   -4.6950    9.6490 N.am  134  LEU134     -0.1977
     75  CA       -18.9080   -5.3110    9.9990 C.3   134  LEU134      0.1596
     76  C        -18.8570   -5.8590   11.4250 C.2   134  LEU134      0.2287
     77  O        -19.8850   -5.9100   12.1180 O.2   134  LEU134     -0.2864
     78  CB       -19.2660   -6.4310    9.0130 C.3   134  LEU134      0.0297
     79  CG       -20.5750   -7.1960    9.3060 C.3   134  LEU134      0.0022
     80  CD1      -21.8290   -6.3390    9.1190 C.3   134  LEU134      0.0001
     81  CD2      -20.6490   -8.4410    8.4410 C.3   134  LEU134      0.0001
     82  N        -17.4050   -4.6860   14.0610 N.3   136  PHE136     -0.1228
     83  CA       -17.3010   -3.6710   15.1160 C.3   136  PHE136      0.1721
     84  C        -18.4150   -3.8970   16.1490 C.2   136  PHE136      0.2437
     85  O        -19.4880   -4.3680   15.7920 O.2   136  PHE136     -0.2733
     86  CB       -17.4010   -2.2760   14.5010 C.3   136  PHE136      0.0547
     87  CG       -16.9050   -1.1800   15.3910 C.ar  136  PHE136     -0.0202
     88  CD1      -15.6040   -1.1970   15.8820 C.ar  136  PHE136     -0.0042
     89  CD2      -17.7360   -0.1230   15.7280 C.ar  136  PHE136     -0.0042
     90  CE1      -15.1440   -0.1800   16.7050 C.ar  136  PHE136     -0.0003
     91  CE2      -17.2870    0.8980   16.5450 C.ar  136  PHE136     -0.0003
     92  CZ       -15.9920    0.8730   17.0330 C.ar  136  PHE136     -0.0000
     93  N        -18.1590   -3.6040   17.4420 N.am  137  PRO137     -0.2718
     94  CA       -19.2350   -3.9110   18.4060 C.3   137  PRO137      0.1535
     95  C        -20.4250   -2.9390   18.4300 C.2   137  PRO137      0.2598
     96  O        -21.4260   -3.2340   19.0760 O.2   137  PRO137     -0.2715
     97  CB       -18.5100   -3.9410   19.7660 C.3   137  PRO137      0.0310
     98  CG       -17.2290   -3.2100   19.5510 C.3   137  PRO137      0.0237
     99  CD       -16.8610   -3.3710   18.1060 C.3   137  PRO137      0.0939
    100  N        -20.3380   -1.8150   17.7210 N.am  138  ILE138     -0.1964
    101  CA       -21.4280   -0.8230   17.7150 C.3   138  ILE138      0.1727
    102  C        -22.2060   -0.8360   16.3990 C.2   138  ILE138      0.2616
    103  O        -21.6150   -0.7190   15.3200 O.2   138  ILE138     -0.2715
    104  CB       -20.9100    0.6120   17.9760 C.3   138  ILE138      0.0290
    105  CG1      -20.0410    0.6680   19.2380 C.3   138  ILE138      0.0022
    106  CG2      -22.0720    1.5850   18.1070 C.3   138  ILE138      0.0023
    107  CD1      -19.1620    1.9020   19.3330 C.3   138  ILE138      0.0001
    108  N        -23.5310   -0.9590   16.4940 N.am  139  TYR139     -0.1960
    109  CA       -24.4040   -0.9260   15.3150 C.3   139  TYR139      0.1771
    110  C        -24.6050    0.4760   14.7450 C.2   139  TYR139      0.2620
    111  O        -25.0870    1.3830   15.4310 O.2   139  TYR139     -0.2715
    112  CB       -25.7710   -1.5450   15.6240 C.3   139  TYR139      0.0574
    113  CG       -26.7490   -1.5160   14.4610 C.ar  139  TYR139     -0.0198
    114  CD1      -26.8780   -2.6130   13.6020 C.ar  139  TYR139     -0.0009
    115  CD2      -27.5530   -0.4010   14.2270 C.ar  139  TYR139     -0.0009
    116  CE1      -27.7740   -2.5930   12.5450 C.ar  139  TYR139      0.0417
    117  CE2      -28.4480   -0.3690   13.1740 C.ar  139  TYR139      0.0417
    118  CZ       -28.5580   -1.4680   12.3400 C.ar  139  TYR139      0.1957
    119  OH       -29.4570   -1.4370   11.2970 O.3   139  TYR139     -0.2866
    120  N        -24.2500    0.6450   13.4760 N.am  140  THR140     -0.1937
    121  CA       -24.6050    1.8500   12.7450 C.3   140  THR140      0.2028
    122  C        -25.2740    1.4250   11.4420 C.2   140  THR140      0.2642
    123  O        -25.0740    0.3020   10.9650 O.2   140  THR140     -0.2714
    124  CB       -23.3730    2.7450   12.4430 C.3   140  THR140      0.1808
    125  OG1      -22.4910    2.0700   11.5310 O.3   140  THR140     -0.2208
    126  CG2      -22.6180    3.1100   13.7330 C.3   140  THR140      0.0379
    127  N        -26.0800    2.3110   10.8740 N.am  141  TYR141     -0.1959
    128  CA       -26.6860    2.0380    9.5760 C.3   141  TYR141      0.1771
    129  C        -26.1650    3.0220    8.5450 C.2   141  TYR141      0.2620
    130  O        -26.5200    4.2030    8.5710 O.2   141  TYR141     -0.2715
    131  CB       -28.2170    2.0630    9.6430 C.3   141  TYR141      0.0574
    132  CG       -28.8670    1.5160    8.3940 C.ar  141  TYR141     -0.0198
    133  CD1      -29.2580    2.3620    7.3570 C.ar  141  TYR141     -0.0009
    134  CD2      -29.0610    0.1470    8.2340 C.ar  141  TYR141     -0.0009
    135  CE1      -29.8410    1.8580    6.2070 C.ar  141  TYR141      0.0417
    136  CE2      -29.6490   -0.3630    7.0920 C.ar  141  TYR141      0.0417
    137  CZ       -30.0390    0.4960    6.0910 C.ar  141  TYR141      0.1957
    138  OH       -30.6160   -0.0160    4.9630 O.3   141  TYR141     -0.2866
    139  N        -25.3090    2.5250    7.6540 N.am  142  THR142     -0.1951
    140  CA       -24.6730    3.3530    6.6350 C.3   142  THR142      0.1897
    141  C        -25.3990    3.1870    5.3050 C.2   142  THR142      0.2313
    142  O        -25.3350    2.1250    4.6740 O.2   142  THR142     -0.2863
    143  CB       -23.1650    3.0320    6.4780 C.3   142  THR142      0.1794
    144  OG1      -22.5810    2.7870    7.7640 O.3   142  THR142     -0.2208
    145  CG2      -22.4290    4.2040    5.8200 C.3   142  THR142      0.0378
    146  N        -24.3580   -3.9410    0.1390 N.3   145  PHE145     -0.1227
    147  CA       -23.3970   -4.2110    1.1880 C.3   145  PHE145      0.1736
    148  C        -22.0880   -4.6950    0.6060 C.2   145  PHE145      0.2595
    149  O        -22.0690   -5.6360   -0.1850 O.2   145  PHE145     -0.2718
    150  CB       -23.9380   -5.2550    2.1490 C.3   145  PHE145      0.0547
    151  CG       -22.9980   -5.5920    3.2570 C.ar  145  PHE145     -0.0202
    152  CD1      -22.1800   -6.7120    3.1720 C.ar  145  PHE145     -0.0042
    153  CD2      -22.9230   -4.7890    4.3850 C.ar  145  PHE145     -0.0042
    154  CE1      -21.3070   -7.0340    4.1980 C.ar  145  PHE145     -0.0003
    155  CE2      -22.0460   -5.1070    5.4140 C.ar  145  PHE145     -0.0003
    156  CZ       -21.2390   -6.2290    5.3190 C.ar  145  PHE145     -0.0000
    157  N        -21.0010   -4.0370    1.0040 N.am  146  MET146     -0.1979
    158  CA       -19.6510   -4.4370    0.6490 C.3   146  MET146      0.1605
    159  C        -18.9680   -4.8560    1.9470 C.2   146  MET146      0.2287
    160  O        -18.8450   -4.0600    2.8820 O.2   146  MET146     -0.2864
    161  CB       -18.9080   -3.2700   -0.0310 C.3   146  MET146      0.0413
    162  CG       -19.0670   -3.2140   -1.5520 C.3   146  MET146      0.0598
    163  SD       -18.9070   -1.5920   -2.3550 S.3   146  MET146     -0.1393
    164  CE       -20.5870   -0.9660   -2.2590 C.3   146  MET146      0.0692
    165  N        -16.2400   -5.1010    4.3550 N.3   148  PRO148     -0.2116
    166  CA       -14.9720   -4.3530    4.4370 C.3   148  PRO148      0.1372
    167  C        -13.7520   -5.2870    4.5310 C.2   148  PRO148      0.2244
    168  O        -13.8760   -6.4230    4.9900 O.2   148  PRO148     -0.2868
    169  CB       -15.1350   -3.5060    5.7120 C.3   148  PRO148      0.0268
    170  CG       -16.6090   -3.4910    5.9700 C.3   148  PRO148      0.0207
    171  CD       -17.0850   -4.8450    5.5350 C.3   148  PRO148      0.0892
@<TRIPOS>BOND
     1   163   164    1
     2   163   162    1
     3   162   161    1
     4   149   148    2
     5   161   158    1
     6   146   147    1
     7   148   157   am
     8   148   147    1
     9   158   157    1
    10   158   159    1
    11   147   150    1
    12   159   160    2
    13   150   151    1
    14   152   151   ar
    15   152   154   ar
    16   151   153   ar
    17   154   156   ar
    18   165   166    1
    19   165   171    1
    20   153   155   ar
    21   166   167    1
    22   166   169    1
    23   167   168    2
    24   142   141    2
    25   138   137    1
    26   141   140    1
    27   156   155   ar
    28   171   170    1
    29   169   170    1
    30   145   143    1
    31   137   135   ar
    32   137   136   ar
    33   135   133   ar
    34   143   140    1
    35   143   144    1
    36   140   139    1
    37   136   134   ar
    38   133   132   ar
    39   139   129   am
    40    20    19    1
    41   134   132   ar
    42    14    15    1
    43   132   131    1
    44    68    67    2
    45    81    79    1
    46   129   130    2
    47   129   128    1
    48    21    19    1
    49    15    18    1
    50    15    16    1
    51    19    18    1
    52    78    79    1
    53    78    75    1
    54    80    79    1
    55    67    66    1
    56    67    69   am
    57   128   131    1
    58   128   127    1
    59    74    75    1
    60    74    71   am
    61    66    65    1
    62    70    69    1
    63    70    71    1
    64    70    73    1
    65    75    76    1
    66    16    17    2
    67    16    22   am
    68    71    72    2
    69    29    30    1
    70   127   122   am
    71    65    60   am
    72   123   122    2
    73    22    23    1
    74   119   118    1
    75    76    77    2
    76   122   121    1
    77   125   124    1
    78    30    33    1
    79    30    31    1
    80    60    61    2
    81    60    59    1
    82    24    23    1
    83    24    25    2
    84   118   116   ar
    85   118   117   ar
    86    23    26    1
    87   124   121    1
    88   124   126    1
    89   116   114   ar
    90   121   120    1
    91    33    34    1
    92    31    32    2
    93    31    39   am
    94    63    64    1
    95    63    62    1
    96   117   115   ar
    97    64    58    1
    98    58    59    1
    99    39    40    1
   100    59    62    1
   101    26    28    1
   102    26    27    1
   103   120   110   am
   104    41    40    1
   105    41    42    2
   106   114   113   ar
   107    34    35   ar
   108    34    36   ar
   109    35    37   ar
   110    82    83    1
   111    40    43    1
   112   115   113   ar
   113   113   112    1
   114    86    83    1
   115    86    87    1
   116    43    44    1
   117   110   109    1
   118   110   111    2
   119    83    84    1
   120    37    38   ar
   121    36    38   ar
   122   109   112    1
   123   109   108    1
   124   103   102    2
   125    87    89   ar
   126    87    88   ar
   127    44    45    1
   128    89    91   ar
   129    85    84    2
   130    88    90   ar
   131    84    93   am
   132   102   108   am
   133   102   101    1
   134    91    92   ar
   135    90    92   ar
   136    45    47   ar
   137    45    46   ar
   138    50    51    2
   139    50    49    1
   140    93    99    1
   141    93    94    1
   142    49    48    1
   143    49    52    1
   144    13    10    1
   145   101   100    1
   146   101   104    1
   147   100    95   am
   148     7     6    1
   149   104   106    1
   150   104   105    1
   151    55    57   ar
   152    55    53   ar
   153    99    98    1
   154    94    95    1
   155    94    97    1
   156    95    96    2
   157    52    53    1
   158     5     6    1
   159     5     2    1
   160    57    56   ar
   161     4     3    2
   162    53    54   ar
   163     6     8    1
   164    10     9    1
   165    10    11    1
   166   105   107    1
   167     3     9   am
   168     3     2    1
   169    98    97    1
   170    11    12    2
   171     2     1    1
   172    56    54   ar
