@<TRIPOS>MOLECULE
tmp/3wv3B00.pdb
 164 164 0 0 0
SMALL
GASTEIGER

@<TRIPOS>ATOM
      1  N         19.0430  -29.3820  -30.7450 N.3    82  LEU82      -0.1231
      2  CA        17.7770  -29.2240  -31.4750 C.3    82  LEU82       0.1693
      3  C         17.3620  -27.7710  -31.5680 C.2    82  LEU82       0.2591
      4  O         16.7470  -27.3460  -32.5650 O.2    82  LEU82      -0.2718
      5  CB        16.6370  -29.9960  -30.7920 C.3    82  LEU82       0.0284
      6  CG        16.8550  -31.4850  -30.5370 C.3    82  LEU82       0.0019
      7  CD1       15.6840  -32.0390  -29.7280 C.3    82  LEU82       0.0001
      8  CD2       17.0290  -32.2090  -31.8680 C.3    82  LEU82       0.0001
      9  N         17.6870  -27.0280  -30.5130 N.am   83  ALA83      -0.1980
     10  CA        17.2210  -25.6640  -30.3150 C.3    83  ALA83       0.1597
     11  C         17.8500  -25.1220  -29.0410 C.2    83  ALA83       0.2287
     12  O         18.3310  -25.9020  -28.2130 O.2    83  ALA83      -0.2864
     13  CB        15.7160  -25.6390  -30.1970 C.3    83  ALA83       0.0319
     14  N          6.2790  -29.2440  -29.0780 N.3   115  LEU115     -0.1231
     15  CA         6.8740  -29.8000  -27.8580 C.3   115  LEU115      0.1693
     16  C          8.2250  -29.1540  -27.5560 C.2   115  LEU115      0.2591
     17  O          8.5020  -28.7550  -26.4270 O.2   115  LEU115     -0.2718
     18  CB         7.0450  -31.3090  -28.0170 C.3   115  LEU115      0.0284
     19  CG         7.5750  -32.0810  -26.8050 C.3   115  LEU115      0.0019
     20  CD1        6.6710  -31.8740  -25.5950 C.3   115  LEU115      0.0001
     21  CD2        7.6750  -33.5740  -27.1540 C.3   115  LEU115      0.0001
     22  N          9.0580  -29.0480  -28.5850 N.am  116  VAL116     -0.1980
     23  CA        10.3630  -28.4210  -28.4280 C.3   116  VAL116      0.1595
     24  C         10.2020  -26.9460  -28.0730 C.2   116  VAL116      0.2287
     25  O         10.9130  -26.4430  -27.2120 O.2   116  VAL116     -0.2864
     26  CB        11.2640  -28.6180  -29.6790 C.3   116  VAL116      0.0276
     27  CG1       12.5980  -27.8750  -29.5280 C.3   116  VAL116      0.0022
     28  CG2       11.5210  -30.1040  -29.8790 C.3   116  VAL116      0.0022
     29  N          9.1760  -26.4820  -24.3740 N.3   119  HIS119     -0.1226
     30  CA        10.3930  -26.6290  -23.5820 C.3   119  HIS119      0.1752
     31  C         11.2870  -25.3890  -23.6490 C.2   119  HIS119      0.2595
     32  O         11.6990  -24.8720  -22.6130 O.2   119  HIS119     -0.2718
     33  CB        11.1270  -27.8780  -24.0810 C.3   119  HIS119      0.0759
     34  CG        12.4480  -28.1250  -23.4130 C.ar  119  HIS119      0.0818
     35  ND1       12.6120  -29.0990  -22.4450 N.ar  119  HIS119     -0.2268
     36  CD2       13.6640  -27.5590  -23.5920 C.ar  119  HIS119      0.1154
     37  CE1       13.8730  -29.1060  -22.0490 C.ar  119  HIS119      0.1986
     38  NE2       14.5280  -28.1760  -22.7200 N.ar  119  HIS119     -0.2212
     39  N         11.5870  -24.9100  -24.8640 N.am  120  GLU120     -0.1979
     40  CA        12.4410  -23.7410  -25.0180 C.3   120  GLU120      0.1602
     41  C         11.8690  -22.4980  -24.3570 C.2   120  GLU120      0.2287
     42  O         12.6030  -21.7260  -23.7250 O.2   120  GLU120     -0.2864
     43  CB        12.7500  -23.4670  -26.4980 C.3   120  GLU120      0.0415
     44  CG        13.5180  -24.6120  -27.1750 C.3   120  GLU120      0.1163
     45  CD        14.8230  -24.9920  -26.4590 C.2   120  GLU120      0.3649
     46  OE1       15.4490  -24.1230  -25.7810 O.co2 120  GLU120     -0.2457
     47  OE2       15.2170  -26.1730  -26.5730 O.co2 120  GLU120     -0.2457
     48  N         16.7360  -26.9630  -16.5110 N.3   129  HIS129     -0.1241
     49  CA        16.3150  -28.3510  -16.6360 C.3   129  HIS129      0.1621
     50  C         15.8930  -28.9800  -15.3230 C.2   129  HIS129      0.2264
     51  O         16.4320  -28.6600  -14.2580 O.2   129  HIS129     -0.2867
     52  CB        17.3990  -29.2000  -17.2800 C.3   129  HIS129      0.0745
     53  CG        17.5860  -28.9220  -18.7310 C.ar  129  HIS129      0.0817
     54  ND1       18.8310  -28.8390  -19.3160 N.ar  129  HIS129     -0.2268
     55  CD2       16.6860  -28.6790  -19.7140 C.ar  129  HIS129      0.1154
     56  CE1       18.6880  -28.5800  -20.6060 C.ar  129  HIS129      0.1986
     57  NE2       17.3970  -28.4820  -20.8730 N.ar  129  HIS129     -0.2212
     58  N          9.7910  -37.2980  -16.1460 N.3   134  GLY134     -0.1210
     59  CA         8.4770  -37.0330  -16.7360 C.3   134  GLY134      0.1956
     60  C          8.1950  -35.5670  -17.0330 C.2   134  GLY134      0.2612
     61  O          7.1320  -35.2430  -17.5710 O.2   134  GLY134     -0.2717
     62  N          9.1240  -34.6790  -16.6850 N.am  135  ALA135     -0.1965
     63  CA         8.8910  -33.2370  -16.8330 C.3   135  ALA135      0.1728
     64  C          9.0880  -32.7600  -18.2660 C.2   135  ALA135      0.2616
     65  O          9.9030  -33.3090  -19.0060 O.2   135  ALA135     -0.2715
     66  CB         9.7940  -32.4480  -15.8960 C.3   135  ALA135      0.0334
     67  N          8.3410  -31.7280  -18.6590 N.am  136  LEU136     -0.1977
     68  CA         8.6000  -31.0580  -19.9340 C.3   136  LEU136      0.1596
     69  C         10.0410  -30.5530  -19.9960 C.2   136  LEU136      0.2287
     70  O         10.6800  -30.6070  -21.0530 O.2   136  LEU136     -0.2864
     71  CB         7.6320  -29.8890  -20.1290 C.3   136  LEU136      0.0297
     72  CG         7.8390  -29.0840  -21.4200 C.3   136  LEU136      0.0022
     73  CD1        7.6950  -29.9210  -22.6890 C.3   136  LEU136      0.0001
     74  CD2        6.8480  -27.9100  -21.3750 C.3   136  LEU136      0.0001
     75  N         12.7010  -31.7570  -18.6690 N.3   138  PHE138     -0.1228
     76  CA        13.7640  -32.7790  -18.6820 C.3   138  PHE138      0.1721
     77  C         14.7040  -32.5400  -19.8920 C.2   138  PHE138      0.2437
     78  O         14.2650  -32.0390  -20.9260 O.2   138  PHE138     -0.2733
     79  CB        13.1430  -34.1830  -18.7460 C.3   138  PHE138      0.0547
     80  CG        14.0730  -35.2800  -18.3350 C.ar  138  PHE138     -0.0202
     81  CD1       14.5390  -35.3630  -17.0240 C.ar  138  PHE138     -0.0042
     82  CD2       14.4620  -36.2490  -19.2490 C.ar  138  PHE138     -0.0042
     83  CE1       15.4070  -36.4060  -16.6420 C.ar  138  PHE138     -0.0003
     84  CE2       15.3210  -37.2820  -18.8810 C.ar  138  PHE138     -0.0003
     85  CZ        15.7990  -37.3540  -17.5850 C.ar  138  PHE138     -0.0000
     86  N         16.0140  -32.8420  -19.7560 N.am  139  PRO139     -0.2718
     87  CA        16.9390  -32.5740  -20.8800 C.3   139  PRO139      0.1535
     88  C         16.8140  -33.4600  -22.1260 C.2   139  PRO139      0.2598
     89  O         17.3290  -33.0850  -23.1840 O.2   139  PRO139     -0.2715
     90  CB        18.3310  -32.7590  -20.2470 C.3   139  PRO139      0.0310
     91  CG        18.1040  -32.7610  -18.7730 C.3   139  PRO139      0.0237
     92  CD        16.7400  -33.3310  -18.5750 C.3   139  PRO139      0.0939
     93  N         16.1420  -34.6060  -22.0190 N.am  140  ILE140     -0.1964
     94  CA        16.0980  -35.5690  -23.1190 C.3   140  ILE140      0.1727
     95  C         14.7070  -35.6560  -23.7500 C.2   140  ILE140      0.2616
     96  O         13.7110  -35.8860  -23.0540 O.2   140  ILE140     -0.2715
     97  CB        16.5660  -36.9750  -22.6610 C.3   140  ILE140      0.0290
     98  CG1       18.0460  -36.9560  -22.2490 C.3   140  ILE140      0.0022
     99  CG2       16.3170  -38.0220  -23.7480 C.3   140  ILE140      0.0023
    100  CD1       18.4650  -38.1670  -21.3930 C.3   140  ILE140      0.0001
    101  N         14.6650  -35.5140  -25.0780 N.am  141  TYR141     -0.1960
    102  CA        13.4320  -35.5330  -25.8520 C.3   141  TYR141      0.1771
    103  C         12.8090  -36.9220  -26.0080 C.2   141  TYR141      0.2620
    104  O         13.4530  -37.8520  -26.5100 O.2   141  TYR141     -0.2715
    105  CB        13.6910  -34.9080  -27.2400 C.3   141  TYR141      0.0574
    106  CG        12.4770  -34.8660  -28.1420 C.ar  141  TYR141     -0.0198
    107  CD1       11.6540  -33.7360  -28.1870 C.ar  141  TYR141     -0.0009
    108  CD2       12.1550  -35.9480  -28.9560 C.ar  141  TYR141     -0.0009
    109  CE1       10.5330  -33.7080  -29.0150 C.ar  141  TYR141      0.0417
    110  CE2       11.0370  -35.9270  -29.7720 C.ar  141  TYR141      0.0417
    111  CZ        10.2420  -34.7990  -29.8110 C.ar  141  TYR141      0.1957
    112  OH         9.1290  -34.7770  -30.6290 O.3   141  TYR141     -0.2866
    113  N         11.5560  -37.0520  -25.5720 N.am  142  THR142     -0.1937
    114  CA        10.7200  -38.2100  -25.9030 C.3   142  THR142      0.2028
    115  C          9.3310  -37.7510  -26.3800 C.2   142  THR142      0.2642
    116  O          8.9330  -36.5940  -26.1590 O.2   142  THR142     -0.2714
    117  CB        10.5610  -39.1750  -24.7060 C.3   142  THR142      0.1808
    118  OG1        9.8500  -38.5170  -23.6530 O.3   142  THR142     -0.2208
    119  CG2       11.9250  -39.6360  -24.1830 C.3   142  THR142      0.0379
    120  N          8.5830  -38.6680  -26.9930 N.am  143  TYR143     -0.1959
    121  CA         7.2660  -38.3640  -27.5600 C.3   143  TYR143      0.1771
    122  C          6.2060  -39.3770  -27.1280 C.2   143  TYR143      0.2620
    123  O          6.3840  -40.5770  -27.3660 O.2   143  TYR143     -0.2715
    124  CB         7.3580  -38.3600  -29.0900 C.3   143  TYR143      0.0574
    125  CG         6.1680  -37.7190  -29.7490 C.ar  143  TYR143     -0.0198
    126  CD1        5.1600  -38.4960  -30.3150 C.ar  143  TYR143     -0.0009
    127  CD2        6.0400  -36.3340  -29.7900 C.ar  143  TYR143     -0.0009
    128  CE1        4.0510  -37.9030  -30.9190 C.ar  143  TYR143      0.0417
    129  CE2        4.9380  -35.7350  -30.3860 C.ar  143  TYR143      0.0417
    130  CZ         3.9540  -36.5240  -30.9510 C.ar  143  TYR143      0.1957
    131  OH         2.8600  -35.9330  -31.5390 O.3   143  TYR143     -0.2866
    132  N          5.1070  -38.9000  -26.5200 N.am  144  THR144     -0.1951
    133  CA         4.0400  -39.7830  -25.9850 C.3   144  THR144      0.1897
    134  C          3.1660  -40.3980  -27.0750 C.2   144  THR144      0.2313
    135  O          2.6910  -41.5320  -26.9360 O.2   144  THR144     -0.2863
    136  CB         3.0480  -39.0340  -25.0540 C.3   144  THR144      0.1794
    137  OG1        2.2770  -38.1050  -25.8370 O.3   144  THR144     -0.2208
    138  CG2        3.7690  -38.3140  -23.9220 C.3   144  THR144      0.0378
    139  N         -1.8920  -32.7380  -24.8700 N.3   149  PHE149     -0.1227
    140  CA        -0.7340  -32.4660  -24.0350 C.3   149  PHE149      0.1736
    141  C         -1.2000  -32.0050  -22.6630 C.2   149  PHE149      0.2595
    142  O         -2.1190  -31.1840  -22.5490 O.2   149  PHE149     -0.2718
    143  CB         0.1120  -31.3720  -24.6740 C.3   149  PHE149      0.0547
    144  CG         1.2700  -30.9190  -23.8220 C.ar  149  PHE149     -0.0202
    145  CD1        1.1310  -29.8530  -22.9560 C.ar  149  PHE149     -0.0042
    146  CD2        2.5010  -31.5630  -23.9050 C.ar  149  PHE149     -0.0042
    147  CE1        2.2060  -29.4210  -22.1620 C.ar  149  PHE149     -0.0003
    148  CE2        3.5910  -31.1270  -23.1320 C.ar  149  PHE149     -0.0003
    149  CZ         3.4350  -30.0660  -22.2520 C.ar  149  PHE149     -0.0000
    150  N         -0.5440  -32.5220  -21.6280 N.am  150  MET150     -0.1979
    151  CA        -0.8010  -32.0900  -20.2600 C.3   150  MET150      0.1605
    152  C          0.4950  -31.7060  -19.5690 C.2   150  MET150      0.2287
    153  O          1.4020  -32.5370  -19.4280 O.2   150  MET150     -0.2864
    154  CB        -1.4900  -33.1960  -19.4670 C.3   150  MET150      0.0413
    155  CG        -2.7760  -33.6610  -20.0900 C.3   150  MET150      0.0598
    156  SD        -3.4900  -35.0300  -19.1840 S.3   150  MET150     -0.1393
    157  CE        -4.9490  -35.2940  -20.1760 C.3   150  MET150      0.0692
    158  N          3.0880  -31.4370  -16.9270 N.3   152  PRO152     -0.2116
    159  CA         3.3370  -32.1350  -15.6570 C.3   152  PRO152      0.1372
    160  C          3.3910  -31.2150  -14.4450 C.2   152  PRO152      0.2244
    161  O          3.7450  -30.0340  -14.5680 O.2   152  PRO152     -0.2868
    162  CB         4.6980  -32.8020  -15.8820 C.3   152  PRO152      0.0268
    163  CG         4.7730  -32.9780  -17.3410 C.3   152  PRO152      0.0207
    164  CD         4.1470  -31.7280  -17.9070 C.3   152  PRO152      0.0892
@<TRIPOS>BOND
     1     4     3    2
     2     8     6    1
     3     3     2    1
     4     3     9   am
     5   131   130    1
     6     2     5    1
     7     2     1    1
     8   130   128   ar
     9   130   129   ar
    10   128   126   ar
    11     5     6    1
    12   112   111    1
    13     6     7    1
    14     9    10    1
    15   129   127   ar
    16    10    13    1
    17    10    11    1
    18   126   125   ar
    19    28    26    1
    20   111   110   ar
    21   111   109   ar
    22   127   125   ar
    23   110   108   ar
    24   125   124    1
    25    26    27    1
    26    26    23    1
    27   124   121    1
    28    14    15    1
    29    11    12    2
    30   109   107   ar
    31   108   106   ar
    32    22    23    1
    33    22    16   am
    34    23    24    1
    35   107   106   ar
    36   106   105    1
    37    24    25    2
    38    18    15    1
    39    18    19    1
    40    15    16    1
    41   121   122    1
    42   121   120    1
    43    16    17    2
    44   123   122    2
    45   105   102    1
    46    44    43    1
    47    44    45    1
    48    21    19    1
    49   122   132   am
    50   134   135    2
    51   134   133    1
    52   120   115   am
    53    19    20    1
    54    47    45   ar
    55   132   133    1
    56   104   103    2
    57    43    40    1
    58    45    46   ar
    59   115   116    2
    60   115   114    1
    61   103   102    1
    62   103   113   am
    63   133   136    1
    64   114   113    1
    65   114   117    1
    66   102   101    1
    67   137   136    1
    68   101    95   am
    69   136   138    1
    70    40    39    1
    71    40    41    1
    72   139   140    1
    73    39    31   am
    74   117   119    1
    75   117   118    1
    76   143   140    1
    77   143   144    1
    78    29    30    1
    79    41    42    2
    80    33    30    1
    81    33    34    1
    82   140   141    1
    83   146   144   ar
    84   146   148   ar
    85   144   145   ar
    86    95    94    1
    87    95    96    2
    88    99    97    1
    89    31    30    1
    90    31    32    2
    91    36    34   ar
    92    36    38   ar
    93    34    35   ar
    94    89    88    2
    95   148   149   ar
    96    94    97    1
    97    94    93    1
    98   145   147   ar
    99    38    37   ar
   100    73    72    1
   101   141   142    2
   102   141   150   am
   103    97    98    1
   104    35    37   ar
   105   149   147   ar
   106    98   100    1
   107    88    93   am
   108    88    87    1
   109   150   151    1
   110    72    74    1
   111    72    71    1
   112    70    69    2
   113    78    77    2
   114    87    90    1
   115    87    86    1
   116    57    56   ar
   117    57    55   ar
   118    56    54   ar
   119   151   152    1
   120   151   154    1
   121    90    91    1
   122   157   156    1
   123    71    68    1
   124   155   154    1
   125   155   156    1
   126    69    68    1
   127    68    67    1
   128    77    86   am
   129    77    76    1
   130    86    92    1
   131    55    53   ar
   132   152   153    2
   133    54    53   ar
   134    82    84   ar
   135    82    80   ar
   136    65    64    2
   137    84    85   ar
   138    91    92    1
   139    79    76    1
   140    79    80    1
   141    53    52    1
   142    76    75    1
   143    67    64   am
   144    80    81   ar
   145    64    63    1
   146   164   163    1
   147   164   158    1
   148    85    83   ar
   149    61    60    2
   150   163   162    1
   151    52    49    1
   152    60    59    1
   153    60    62   am
   154    81    83   ar
   155   158   159    1
   156    63    62    1
   157    63    66    1
   158    59    58    1
   159    49    48    1
   160    49    50    1
   161   162   159    1
   162   159   160    1
   163    50    51    2
   164   161   160    2
