@<TRIPOS>MOLECULE
tmp/3wv5A00.pdb
 84 83 0 0 0
SMALL
GASTEIGER

@<TRIPOS>ATOM
      1  N         25.6830   25.0820   80.8710 N.3   207  TRP207     -0.1227
      2  CA        24.6350   25.8180   80.1420 C.3   207  TRP207      0.1737
      3  C         23.4120   24.8640   80.1260 C.2   207  TRP207      0.2595
      4  O         23.6100   23.6630   79.9670 O.2   207  TRP207     -0.2718
      5  CB        25.1760   26.0250   78.7130 C.3   207  TRP207      0.0564
      6  CG        24.4670   26.9130   77.7550 C.ar  207  TRP207      0.0003
      7  CD1       23.2790   27.5820   77.9000 C.ar  207  TRP207      0.0946
      8  CD2       24.8880   27.1470   76.4220 C.ar  207  TRP207      0.0152
      9  NE1       22.9620   28.2770   76.7290 N.ar  207  TRP207     -0.2442
     10  CE2       23.9440   28.0210   75.8150 C.ar  207  TRP207      0.0810
     11  CE3       25.9920   26.7210   75.6850 C.ar  207  TRP207      0.0012
     12  CZ2       24.0850   28.4740   74.5350 C.ar  207  TRP207      0.0191
     13  CZ3       26.1350   27.1810   74.3970 C.ar  207  TRP207      0.0001
     14  CH2       25.1830   28.0450   73.8280 C.ar  207  TRP207      0.0015
     15  N         22.1790   25.3670   80.2760 N.am  208  ASP208     -0.1960
     16  CA        21.0370   24.4500   80.2210 C.3   208  ASP208      0.1840
     17  C         20.8810   23.7490   78.8480 C.2   208  ASP208      0.2622
     18  O         20.2040   22.7070   78.7370 O.2   208  ASP208     -0.2715
     19  CB        19.7210   25.1120   80.6990 C.3   208  ASP208      0.1450
     20  CG        19.0820   26.0660   79.6800 C.2   208  ASP208      0.3671
     21  OD1       19.4340   26.1010   78.4870 O.co2 208  ASP208     -0.2456
     22  OD2       18.1920   26.8310   80.1290 O.co2 208  ASP208     -0.2456
     23  N         21.5810   24.2610   77.8280 N.am  209  PHE209     -0.1974
     24  CA        21.5790   23.5920   76.5420 C.3   209  PHE209      0.1639
     25  C         22.1750   22.2230   76.6670 C.2   209  PHE209      0.2290
     26  O         21.5250   21.2260   76.3080 O.2   209  PHE209     -0.2864
     27  CB        22.3170   24.4250   75.4600 C.3   209  PHE209      0.0560
     28  CG        21.6400   24.4330   74.1320 C.ar  209  PHE209     -0.0200
     29  CD1       20.8880   23.3600   73.6790 C.ar  209  PHE209     -0.0042
     30  CD2       21.7540   25.5220   73.3090 C.ar  209  PHE209     -0.0042
     31  CE1       20.2560   23.3630   72.4460 C.ar  209  PHE209     -0.0003
     32  CE2       21.1360   25.5300   72.0450 C.ar  209  PHE209     -0.0003
     33  CZ        20.4030   24.4550   71.6080 C.ar  209  PHE209     -0.0000
     34  N         18.8400   26.9310   69.3010 N.3   273  SER273     -0.1202
     35  CA        18.3160   27.9540   70.1740 C.3   273  SER273      0.2020
     36  C         19.4220   28.9500   70.4630 C.2   273  SER273      0.2618
     37  O         20.4480   28.9110   69.8390 O.2   273  SER273     -0.2717
     38  CB        17.7910   27.3640   71.4950 C.3   273  SER273      0.2103
     39  OG        16.8090   28.2110   72.0500 O.3   273  SER273     -0.2182
     40  N         19.1500   29.8390   71.4150 N.am  274  ALA274     -0.1979
     41  CA        20.1190   30.7930   71.9220 C.3   274  ALA274      0.1597
     42  C         20.2070   32.0210   71.0380 C.2   274  ALA274      0.2287
     43  O         20.3610   33.0910   71.5860 O.2   274  ALA274     -0.2864
     44  CB        21.4790   30.1890   72.1160 C.3   274  ALA274      0.0319
     45  N         14.3480   30.2540   73.8020 N.3   299  GLY299     -0.1210
     46  CA        14.1760   30.0980   75.2290 C.3   299  GLY299      0.1956
     47  C         14.9830   31.0650   76.0720 C.2   299  GLY299      0.2612
     48  O         15.8300   31.8210   75.5740 O.2   299  GLY299     -0.2717
     49  N         14.6910   31.0120   77.3650 N.am  300  GLN300     -0.1965
     50  CA        15.5080   31.6220   78.4040 C.3   300  GLN300      0.1733
     51  C         15.7000   30.6310   79.4820 C.2   300  GLN300      0.2617
     52  O         14.7840   29.8770   79.7910 O.2   300  GLN300     -0.2715
     53  CB        14.7920   32.8410   79.0190 C.3   300  GLN300      0.0408
     54  CG        14.6120   33.9500   78.0510 C.3   300  GLN300      0.0908
     55  CD        14.0990   35.1730   78.7280 C.2   300  GLN300      0.2608
     56  OE1       13.4840   35.1120   79.7930 O.2   300  GLN300     -0.2717
     57  NE2       14.3460   36.3060   78.1200 N.am  300  GLN300     -0.0878
     58  N         16.8340   30.7300   80.1750 N.am  301  THR301     -0.1951
     59  CA        17.1440   29.8130   81.2500 C.3   301  THR301      0.1897
     60  C         16.0440   29.8940   82.3220 C.2   301  THR301      0.2313
     61  O         15.6540   28.8930   82.9100 O.2   301  THR301     -0.2863
     62  CB        18.5470   30.1060   81.8140 C.3   301  THR301      0.1794
     63  OG1       19.5190   29.8870   80.7970 O.3   301  THR301     -0.2208
     64  CG2       18.8470   29.1640   82.9800 C.3   301  THR301      0.0378
     65  N         13.7600   27.4190   81.0970 N.3   304  LYS304     -0.1231
     66  CA        14.4560   26.5100   80.1560 C.3   304  LYS304      0.1693
     67  C         14.2180   26.8790   78.6880 C.2   304  LYS304      0.2591
     68  O         15.1460   27.3010   78.0160 O.2   304  LYS304     -0.2718
     69  CB        14.1420   25.0270   80.3750 C.3   304  LYS304      0.0285
     70  CG        14.5790   24.1230   79.2040 C.3   304  LYS304      0.0035
     71  CD        16.0700   24.3010   78.8270 C.3   304  LYS304      0.0206
     72  CE        16.4480   23.4370   77.6300 C.3   304  LYS304      0.1093
     73  NZ        17.9050   23.4970   77.3700 N.3   304  LYS304     -0.1314
     74  N         12.9720   26.7600   78.2310 N.am  305  ARG305     -0.1980
     75  CA        12.6530   27.0050   76.8380 C.3   305  ARG305      0.1597
     76  C         11.2370   27.4770   76.6890 C.2   305  ARG305      0.2287
     77  O         10.3760   27.1690   77.5120 O.2   305  ARG305     -0.2864
     78  CB        12.9290   25.7500   76.0090 C.3   305  ARG305      0.0334
     79  CG        12.7280   25.9060   74.5090 C.3   305  ARG305      0.0492
     80  CD        13.3840   24.7680   73.7050 C.3   305  ARG305      0.2205
     81  NE        14.8110   24.8310   73.8760 N.pl3 305  ARG305     -0.0865
     82  CZ        15.6310   23.7870   73.8430 C.cat 305  ARG305      0.5346
     83  NH1       15.1810   22.5540   73.5460 N.pl3 305  ARG305      0.1354
     84  NH2       16.9280   23.9720   74.0260 N.pl3 305  ARG305      0.1354
@<TRIPOS>BOND
     1    34    35    1
     2    37    36    2
     3    35    36    1
     4    35    38    1
     5    36    40   am
     6    42    43    2
     7    42    41    1
     8    40    41    1
     9    38    39    1
    10    33    32   ar
    11    33    31   ar
    12    41    44    1
    13    32    30   ar
    14    31    29   ar
    15    30    28   ar
    16    83    82    1
    17    29    28   ar
    18    80    81    1
    19    80    79    1
    20    45    46    1
    21    14    13   ar
    22    14    12   ar
    23    82    81    2
    24    82    84    1
    25    28    27    1
    26    13    11   ar
    27    79    78    1
    28    12    10   ar
    29    46    47    1
    30    27    24    1
    31    48    47    2
    32    11     8   ar
    33    10     8   ar
    34    10     9   ar
    35    78    75    1
    36    47    49   am
    37    26    25    2
    38     8     6   ar
    39    24    25    1
    40    24    23    1
    41    76    75    1
    42    76    77    2
    43     9     7   ar
    44    75    74    1
    45    49    50    1
    46    73    72    1
    47    72    71    1
    48     6     7   ar
    49     6     5    1
    50    23    17   am
    51    68    67    2
    52    54    55    1
    53    54    53    1
    54    57    55   am
    55    74    67   am
    56    50    53    1
    57    50    51    1
    58    21    20   ar
    59    67    66    1
    60     5     2    1
    61    55    56    2
    62    18    17    2
    63    71    70    1
    64    17    16    1
    65    70    69    1
    66    51    52    2
    67    51    58   am
    68    20    22   ar
    69    20    19    1
    70     4     3    2
    71     3     2    1
    72     3    15   am
    73     2     1    1
    74    66    69    1
    75    66    65    1
    76    58    59    1
    77    16    15    1
    78    16    19    1
    79    63    62    1
    80    59    62    1
    81    59    60    1
    82    62    64    1
    83    60    61    2
