@<TRIPOS>MOLECULE
tmp/3wv7A00.pdb
 164 153 0 0 0
SMALL
GASTEIGER

@<TRIPOS>ATOM
      1  N         58.2390   35.5390   48.5800 N.3    10  VAL10      -0.1231
      2  CA        58.5100   35.1780   50.0080 C.3    10  VAL10       0.1692
      3  C         57.1780   35.3450   50.7200 C.2    10  VAL10       0.2592
      4  O         56.5950   36.4630   50.7680 O.2    10  VAL10      -0.2718
      5  CB        59.5380   36.1170   50.6580 C.3    10  VAL10       0.0266
      6  CG1       59.7900   35.6910   52.1020 C.3    10  VAL10       0.0020
      7  CG2       60.8420   36.0920   49.8380 C.3    10  VAL10       0.0020
      8  N         56.6300   34.2310   51.2320 N.am   11  GLY11      -0.1957
      9  CA        55.3060   34.2480   51.8730 C.3    11  GLY11       0.1869
     10  C         54.3210   33.6280   50.8810 C.2    11  GLY11       0.2309
     11  O         54.1590   34.1090   49.7330 O.2    11  GLY11      -0.2863
     12  N         51.0560   32.5200   52.0490 N.3    13  GLY13      -0.1210
     13  CA        49.7910   32.3950   52.8350 C.3    13  GLY13       0.1956
     14  C         48.5850   32.8810   52.0380 C.2    13  GLY13       0.2612
     15  O         48.5290   32.7060   50.8400 O.2    13  GLY13      -0.2717
     16  N         47.5970   33.4220   52.7170 N.am   14  ARG14      -0.1965
     17  CA        46.3410   33.7850   52.0070 C.3    14  ARG14       0.1729
     18  C         46.5920   34.7400   50.8560 C.2    14  ARG14       0.2616
     19  O         46.0040   34.5330   49.7430 O.2    14  ARG14      -0.2715
     20  CB        45.3630   34.4050   52.9890 C.3    14  ARG14       0.0348
     21  CG        44.8070   33.3320   53.9130 C.3    14  ARG14       0.0492
     22  CD        44.2250   34.1480   55.1090 C.3    14  ARG14       0.2205
     23  NE        43.5730   33.1920   56.0140 N.pl3  14  ARG14      -0.0865
     24  CZ        44.2010   32.6250   57.0570 C.cat  14  ARG14       0.5346
     25  NH1       45.4810   32.8210   57.2740 N.pl3  14  ARG14       0.1354
     26  NH2       43.5760   31.7820   57.8610 N.pl3  14  ARG14       0.1354
     27  N         47.5250   35.6890   51.0140 N.am   15  LEU15      -0.1963
     28  CA        47.8750   36.5680   49.9300 C.3    15  LEU15       0.1728
     29  C         48.8370   35.9620   48.9520 C.2    15  LEU15       0.2616
     30  O         48.6140   35.9380   47.6990 O.2    15  LEU15      -0.2715
     31  CB        48.3280   37.9500   50.4700 C.3    15  LEU15       0.0311
     32  CG        48.7760   38.8680   49.4040 C.3    15  LEU15       0.0022
     33  CD1       47.5950   39.2390   48.4150 C.3    15  LEU15       0.0001
     34  CD2       49.2980   40.2000   50.0570 C.3    15  LEU15       0.0001
     35  N         49.9510   35.4290   49.4560 N.am   16  GLY16      -0.1955
     36  CA        50.9710   34.9420   48.5210 C.3    16  GLY16       0.1869
     37  C         50.5000   33.7200   47.7020 C.2    16  GLY16       0.2309
     38  O         50.9430   33.5560   46.5640 O.2    16  GLY16      -0.2863
     39  N         58.6760   30.6930   48.7970 N.3    37  ILE37      -0.1231
     40  CA        59.4520   30.3590   50.0480 C.3    37  ILE37       0.1692
     41  C         58.5940   30.6540   51.2350 C.2    37  ILE37       0.2592
     42  O         58.1620   31.8040   51.4620 O.2    37  ILE37      -0.2718
     43  CB        60.7160   31.2130   50.1150 C.3    37  ILE37       0.0266
     44  CG1       61.4700   31.0930   48.7450 C.3    37  ILE37       0.0019
     45  CG2       61.5850   30.8250   51.3150 C.3    37  ILE37       0.0020
     46  CD1       62.8180   31.8530   48.7750 C.3    37  ILE37       0.0001
     47  N         58.2700   29.6450   52.0150 N.am   38  ASP38      -0.1974
     48  CA        57.4290   29.7960   53.2480 C.3    38  ASP38       0.1709
     49  C         57.6170   28.4860   54.0560 C.2    38  ASP38       0.2293
     50  O         57.6060   27.4120   53.4940 O.2    38  ASP38      -0.2864
     51  CB        55.9330   29.9590   52.8430 C.3    38  ASP38       0.1436
     52  CG        55.0600   30.3930   53.9800 C.2    38  ASP38       0.3671
     53  OD1       55.3120   30.0390   55.1570 O.co2  38  ASP38      -0.2456
     54  OD2       54.1480   31.2170   53.7150 O.co2  38  ASP38      -0.2456
     55  N         55.5190   27.4470   56.4500 N.3    40  GLN40      -0.1245
     56  CA        54.3460   27.0030   57.1900 C.3    40  GLN40       0.1566
     57  C         53.5570   25.9230   56.4760 C.2    40  GLN40       0.2260
     58  O         53.5800   25.8050   55.2540 O.2    40  GLN40      -0.2867
     59  CB        53.3930   28.2170   57.4210 C.3    40  GLN40       0.0367
     60  CG        52.1990   27.7860   58.2390 C.3    40  GLN40       0.0905
     61  CD        52.5300   27.3670   59.6570 C.2    40  GLN40       0.2608
     62  OE1       52.4430   28.2280   60.5380 O.2    40  GLN40      -0.2717
     63  NE2       52.8120   26.0300   59.9230 N.am   40  GLN40      -0.0878
     64  N         52.5530   24.6190   52.5890 N.3    60  LYS60      -0.1245
     65  CA        51.8850   25.5290   51.5640 C.3    60  LYS60       0.1561
     66  C         52.7050   25.5450   50.2580 C.2    60  LYS60       0.2260
     67  O         52.1050   25.4370   49.1750 O.2    60  LYS60      -0.2867
     68  CB        51.7980   26.9360   52.1660 C.3    60  LYS60       0.0271
     69  CG        50.7980   26.9790   53.3220 C.3    60  LYS60       0.0035
     70  CD        50.8790   28.3460   53.9710 C.3    60  LYS60       0.0206
     71  CE        49.9910   28.3980   55.2390 C.3    60  LYS60       0.1093
     72  NZ        49.9770   29.7550   55.9250 N.3    60  LYS60      -0.1314
     73  N         60.8170   26.7510   53.8640 N.3    81  GLU81      -0.1231
     74  CA        61.6680   27.3520   54.9170 C.3    81  GLU81       0.1699
     75  C         61.1460   28.7880   55.1340 C.2    81  GLU81       0.2592
     76  O         60.6640   29.3900   54.1880 O.2    81  GLU81      -0.2718
     77  CB        63.1400   27.4270   54.4510 C.3    81  GLU81       0.0402
     78  CG        63.8240   26.1220   54.2480 C.3    81  GLU81       0.1161
     79  CD        65.2920   26.2810   53.9170 C.2    81  GLU81       0.3649
     80  OE1       66.0200   27.1320   54.5140 O.co2  81  GLU81      -0.2457
     81  OE2       65.7540   25.4780   53.0730 O.co2  81  GLU81      -0.2457
     82  N         61.2330   29.2950   56.3710 N.am   82  TYR82      -0.1962
     83  CA        61.0670   30.7180   56.6350 C.3    82  TYR82       0.1771
     84  C         62.3810   31.3870   56.2880 C.2    82  TYR82       0.2619
     85  O         63.4280   30.8310   56.4870 O.2    82  TYR82      -0.2715
     86  CB        60.7860   31.0160   58.1070 C.3    82  TYR82       0.0574
     87  CG        59.4800   30.3590   58.5710 C.ar   82  TYR82      -0.0198
     88  CD1       58.2580   30.8710   58.1440 C.ar   82  TYR82      -0.0009
     89  CD2       59.4850   29.2140   59.3990 C.ar   82  TYR82      -0.0009
     90  CE1       57.0620   30.2800   58.5540 C.ar   82  TYR82       0.0417
     91  CE2       58.2840   28.6440   59.8240 C.ar   82  TYR82       0.0417
     92  CZ        57.0970   29.1790   59.3670 C.ar   82  TYR82       0.1957
     93  OH        55.9430   28.5770   59.8160 O.3    82  TYR82      -0.2866
     94  N         62.3160   32.5860   55.6900 N.am   83  ILE83      -0.1977
     95  CA        63.5280   33.4030   55.5010 C.3    83  ILE83       0.1596
     96  C         63.9260   34.0330   56.8430 C.2    83  ILE83       0.2287
     97  O         63.1050   34.6590   57.5690 O.2    83  ILE83      -0.2864
     98  CB        63.2590   34.5140   54.4460 C.3    83  ILE83       0.0276
     99  CG1       63.0520   33.8420   53.0320 C.3    83  ILE83       0.0022
    100  CG2       64.4230   35.5880   54.4470 C.3    83  ILE83       0.0022
    101  CD1       64.3250   33.2780   52.4610 C.3    83  ILE83       0.0001
    102  N         55.3270   38.9600   50.7600 N.3    99  GLU99      -0.1231
    103  CA        53.9200   38.9430   51.1680 C.3    99  GLU99       0.1699
    104  C         53.8040   38.0800   52.4090 C.2    99  GLU99       0.2592
    105  O         53.2770   36.9610   52.4040 O.2    99  GLU99      -0.2718
    106  CB        52.9720   38.3530   50.0940 C.3    99  GLU99       0.0402
    107  CG        52.9850   39.2110   48.7870 C.3    99  GLU99       0.1161
    108  CD        52.2770   38.4800   47.6260 C.2    99  GLU99       0.3649
    109  OE1       52.7830   37.4090   47.1480 O.co2  99  GLU99      -0.2457
    110  OE2       51.3500   39.1210   47.0750 O.co2  99  GLU99      -0.2457
    111  N         54.4460   38.5330   53.4560 N.am  100  ILE100     -0.1966
    112  CA        54.4670   37.7150   54.7200 C.3   100  ILE100      0.1727
    113  C         53.5940   38.4320   55.7560 C.2   100  ILE100      0.2616
    114  O         53.3230   39.6550   55.6720 O.2   100  ILE100     -0.2715
    115  CB        55.9430   37.5690   55.2560 C.3   100  ILE100      0.0290
    116  CG1       56.5670   38.9330   55.5450 C.3   100  ILE100      0.0022
    117  CG2       56.7950   36.8060   54.2380 C.3   100  ILE100      0.0023
    118  CD1       57.9570   38.7280   56.1180 C.3   100  ILE100      0.0001
    119  N         53.1980   37.7170   56.7930 N.am  101  ALA101     -0.1963
    120  CA        52.4060   38.2150   57.9300 C.3   101  ALA101      0.1728
    121  C         52.6030   37.2860   59.0650 C.2   101  ALA101      0.2616
    122  O         52.9130   36.0670   58.8680 O.2   101  ALA101     -0.2715
    123  CB        50.9610   38.1880   57.5440 C.3   101  ALA101      0.0334
    124  N         52.3740   37.8640   60.2670 N.am  102  GLY102     -0.1955
    125  CA        52.3080   37.0070   61.4460 C.3   102  GLY102      0.1869
    126  C         53.5090   37.3920   62.2550 C.2   102  GLY102      0.2309
    127  O         54.6520   37.1780   61.8310 O.2   102  GLY102     -0.2863
    128  N         57.1420   41.1860   61.2360 N.3   105  THR105     -0.1218
    129  CA        57.6710   40.9210   59.8590 C.3   105  THR105      0.1862
    130  C         58.4380   42.0740   59.2260 C.2   105  THR105      0.2287
    131  O         59.1120   41.8410   58.2220 O.2   105  THR105     -0.2866
    132  CB        56.5310   40.6300   58.8660 C.3   105  THR105      0.1770
    133  OG1       55.5500   41.6420   58.9780 O.3   105  THR105     -0.2211
    134  CG2       55.7690   39.3650   59.2140 C.3   105  THR105      0.0375
    135  N         62.4860   41.5940   58.9990 N.3   108  ILE108     -0.1245
    136  CA        62.9980   40.6900   57.9570 C.3   108  ILE108      0.1561
    137  C         62.6470   41.2100   56.5510 C.2   108  ILE108      0.2260
    138  O         63.4340   40.9720   55.6040 O.2   108  ILE108     -0.2867
    139  CB        62.5400   39.2260   58.1910 C.3   108  ILE108      0.0252
    140  CG1       63.3230   38.2280   57.2860 C.3   108  ILE108      0.0019
    141  CG2       61.0050   39.1030   57.9700 C.3   108  ILE108      0.0019
    142  CD1       64.8880   38.1810   57.5150 C.3   108  ILE108      0.0001
    143  N         47.1230   45.2130   54.1710 N.3   129  VAL129     -0.1245
    144  CA        46.1910   44.4630   53.3350 C.3   129  VAL129      0.1561
    145  C         44.8260   44.2540   54.0590 C.2   129  VAL129      0.2260
    146  O         43.9840   43.4560   53.6150 O.2   129  VAL129     -0.2867
    147  CB        46.7720   43.1430   52.8940 C.3   129  VAL129      0.0252
    148  CG1       47.9490   43.4900   51.9890 C.3   129  VAL129      0.0019
    149  CG2       47.1170   42.2530   54.1010 C.3   129  VAL129      0.0019
    150  N         40.9000   40.9230   57.8000 N.3   178  VAL178     -0.1245
    151  CA        41.3870   40.5680   56.4650 C.3   178  VAL178      0.1561
    152  C         40.2600   39.7570   55.7770 C.2   178  VAL178      0.2260
    153  O         39.8170   38.6790   56.2800 O.2   178  VAL178     -0.2867
    154  CB        42.6740   39.7270   56.6120 C.3   178  VAL178      0.0252
    155  CG1       43.1830   39.3400   55.2350 C.3   178  VAL178      0.0019
    156  CG2       43.7660   40.4860   57.3750 C.3   178  VAL178      0.0019
    157  N         41.8260   40.5170   49.5490 N.3   183  LEU183     -0.1245
    158  CA        43.0650   39.8190   49.1840 C.3   183  LEU183      0.1561
    159  C         43.0780   39.5200   47.6890 C.2   183  LEU183      0.2260
    160  O         44.1820   39.5910   47.0780 O.2   183  LEU183     -0.2867
    161  CB        43.3070   38.5450   49.9280 C.3   183  LEU183      0.0270
    162  CG        43.4740   38.8180   51.4530 C.3   183  LEU183      0.0019
    163  CD1       43.8190   37.4740   52.0770 C.3   183  LEU183      0.0001
    164  CD2       44.6260   39.8010   51.7450 C.3   183  LEU183      0.0001
@<TRIPOS>BOND
     1    38    37    2
     2   110   108   ar
     3   160   159    2
     4   109   108   ar
     5   108   107    1
     6   159   158    1
     7    30    29    2
     8    37    36    1
     9    33    32    1
    10    36    35    1
    11     1     2    1
    12    44    46    1
    13    44    43    1
    14   107   106    1
    15    39    40    1
    16    29    35   am
    17    29    28    1
    18    67    66    2
    19   158   157    1
    20   158   161    1
    21    32    34    1
    22    32    31    1
    23    11    10    2
    24    19    18    2
    25     7     5    1
    26   161   162    1
    27    28    31    1
    28    28    27    1
    29     2     5    1
    30     2     3    1
    31    40    43    1
    32    40    41    1
    33   106   103    1
    34    43    45    1
    35    66    65    1
    36     5     6    1
    37     3     4    2
    38     3     8   am
    39   102   103    1
    40    15    14    2
    41    18    27   am
    42    18    17    1
    43    10     9    1
    44   103   104    1
    45     8     9    1
    46    41    42    2
    47    41    47   am
    48   162   164    1
    49   162   163    1
    50    65    68    1
    51    65    64    1
    52   148   147    1
    53    17    16    1
    54    17    20    1
    55    47    48    1
    56    14    16   am
    57    14    13    1
    58    12    13    1
    59    68    69    1
    60   105   104    2
    61   104   111   am
    62   101    99    1
    63    51    48    1
    64    51    52    1
    65   147   144    1
    66   147   149    1
    67    20    21    1
    68    99    98    1
    69    81    79   ar
    70    48    49    1
    71    69    70    1
    72   144   145    1
    73   144   143    1
    74   111   112    1
    75    50    49    2
    76   146   145    2
    77    54    52   ar
    78    73    74    1
    79    21    22    1
    80    79    78    1
    81    79    80   ar
    82    70    71    1
    83    52    53   ar
    84    76    75    2
    85   117   115    1
    86    78    77    1
    87    98   100    1
    88    98    95    1
    89    77    74    1
    90   112   115    1
    91   112   113    1
    92    74    75    1
    93    22    23    1
    94    75    82   am
    95   155   154    1
    96    71    72    1
    97    58    57    2
    98   115   116    1
    99    95    94    1
   100    95    96    1
   101   116   118    1
   102   138   137    2
   103   114   113    2
   104    94    84   am
   105   113   119   am
   106   152   153    2
   107   152   151    1
   108    23    24    2
   109    84    85    2
   110    84    83    1
   111    82    83    1
   112    55    56    1
   113   151   154    1
   114   151   150    1
   115    57    56    1
   116   137   136    1
   117   154   156    1
   118    83    86    1
   119   119   120    1
   120    96    97    2
   121    24    25    1
   122    24    26    1
   123    56    59    1
   124   140   142    1
   125   140   139    1
   126    59    60    1
   127   123   120    1
   128   120   121    1
   129   136   139    1
   130   136   135    1
   131   141   139    1
   132    86    87    1
   133    88    90   ar
   134    88    87   ar
   135   131   130    2
   136    60    61    1
   137    90    92   ar
   138    87    89   ar
   139   132   133    1
   140   132   134    1
   141   132   129    1
   142   122   121    2
   143   121   124   am
   144   130   129    1
   145    92    93    1
   146    92    91   ar
   147    89    91   ar
   148    61    63   am
   149    61    62    2
   150   129   128    1
   151   124   125    1
   152   125   126    1
   153   127   126    2
