@<TRIPOS>MOLECULE
tmp/3wv9A01.pdb
 166 160 0 0 0
SMALL
GASTEIGER

@<TRIPOS>ATOM
      1  N         40.6410    7.5450  -36.0120 N.3    16  GLY16      -0.1210
      2  CA        42.0420    7.8920  -35.8330 C.3    16  GLY16       0.1956
      3  C         42.1820    9.2050  -36.5490 C.2    16  GLY16       0.2612
      4  O         41.2500   10.0060  -36.6340 O.2    16  GLY16      -0.2717
      5  N         43.3340    9.4420  -37.1320 N.am   17  ARG17      -0.1965
      6  CA        43.6750   10.8140  -37.4470 C.3    17  ARG17       0.1729
      7  C         42.7630   11.3310  -38.5520 C.2    17  ARG17       0.2616
      8  O         42.4410   12.5360  -38.6120 O.2    17  ARG17      -0.2715
      9  CB        45.1450   10.9260  -37.7710 C.3    17  ARG17       0.0348
     10  CG        46.1450   10.5880  -36.6370 C.3    17  ARG17       0.0492
     11  CD        47.5720   10.4050  -37.1660 C.3    17  ARG17       0.2205
     12  NE        48.4740   10.1170  -36.0900 N.pl3  17  ARG17      -0.0865
     13  CZ        48.7350    8.9100  -35.5690 C.cat  17  ARG17       0.5346
     14  NH1       48.1640    7.8120  -36.0910 N.pl3  17  ARG17       0.1354
     15  NH2       49.6230    8.8340  -34.5090 N.pl3  17  ARG17       0.1354
     16  N         42.2750   10.4450  -39.4150 N.am   18  LEU18      -0.1963
     17  CA        41.3150   10.8490  -40.4430 C.3    18  LEU18       0.1728
     18  C         39.8830   10.7820  -39.9160 C.2    18  LEU18       0.2616
     19  O         39.1220   11.7150  -40.0970 O.2    18  LEU18      -0.2715
     20  CB        41.5210    9.9940  -41.7140 C.3    18  LEU18       0.0311
     21  CG        40.4170   10.1900  -42.7470 C.3    18  LEU18       0.0022
     22  CD1       40.4730   11.5750  -43.3140 C.3    18  LEU18       0.0001
     23  CD2       40.4930    9.0840  -43.7710 C.3    18  LEU18       0.0001
     24  N         39.5340    9.6710  -39.2790 N.am   19  GLY19      -0.1955
     25  CA        38.1710    9.4410  -38.7320 C.3    19  GLY19       0.1869
     26  C         37.7430   10.5770  -37.7960 C.2    19  GLY19       0.2309
     27  O         36.6470   11.1020  -37.8620 O.2    19  GLY19      -0.2863
     28  N         37.0970    4.2380  -42.0910 N.3   102  GLU102     -0.1231
     29  CA        38.3410    4.9320  -42.1230 C.3   102  GLU102      0.1699
     30  C         39.2880    4.2780  -41.0840 C.2   102  GLU102      0.2592
     31  O         39.7410    4.9080  -40.0720 O.2   102  GLU102     -0.2718
     32  CB        38.1100    6.4180  -41.8180 C.3   102  GLU102      0.0402
     33  CG        37.3540    7.1780  -42.8760 C.3   102  GLU102      0.1161
     34  CD        36.8550    8.5130  -42.4030 C.2   102  GLU102      0.3649
     35  OE1       36.2740    8.5870  -41.3050 O.co2 102  GLU102     -0.2457
     36  OE2       37.0150    9.5000  -43.1680 O.co2 102  GLU102     -0.2457
     37  N         39.5730    2.9920  -41.2970 N.am  103  ILE103     -0.1966
     38  CA        40.3950    2.2200  -40.3570 C.3   103  ILE103      0.1727
     39  C         41.7930    1.8950  -40.9400 C.2   103  ILE103      0.2616
     40  O         42.0260    1.8500  -42.1590 O.2   103  ILE103     -0.2715
     41  CB        39.6450    0.9360  -39.9210 C.3   103  ILE103      0.0290
     42  CG1       39.5000   -0.0880  -41.0900 C.3   103  ILE103      0.0022
     43  CG2       38.2690    1.2740  -39.2850 C.3   103  ILE103      0.0023
     44  CD1       39.2520   -1.4950  -40.6070 C.3   103  ILE103      0.0001
     45  N         42.7200    1.6370  -40.0300 N.am  104  ALA104     -0.1963
     46  CA        44.0970    1.2840  -40.3740 C.3   104  ALA104      0.1728
     47  C         44.7230    0.4030  -39.2570 C.2   104  ALA104      0.2617
     48  O         44.3660    0.4560  -38.1030 O.2   104  ALA104     -0.2715
     49  CB        44.9020    2.5240  -40.5910 C.3   104  ALA104      0.0334
     50  N         45.6770   -0.4410  -39.6260 N.am  105  GLY105     -0.1940
     51  CA        46.3990   -1.3000  -38.6580 C.3   105  GLY105      0.2014
     52  C         46.2940   -2.6410  -39.2860 C.2   105  GLY105      0.2639
     53  O         45.2150   -3.1790  -39.2540 O.2   105  GLY105     -0.2714
     54  N         47.3680   -3.0960  -39.9610 N.am  106  GLY106     -0.1939
     55  CA        47.4530   -4.4110  -40.5840 C.3   106  GLY106      0.2014
     56  C         46.6460   -4.3930  -41.8280 C.2   106  GLY106      0.2639
     57  O         46.5060   -3.3560  -42.4280 O.2   106  GLY106     -0.2714
     58  N         46.1350   -5.5570  -42.2070 N.am  107  ASP107     -0.1957
     59  CA        45.2260   -5.6910  -43.3360 C.3   107  ASP107      0.1840
     60  C         43.7970   -5.5250  -42.8150 C.2   107  ASP107      0.2623
     61  O         43.2640   -6.3630  -42.0820 O.2   107  ASP107     -0.2715
     62  CB        45.4450   -7.0400  -44.0250 C.3   107  ASP107      0.1450
     63  CG        44.4690   -7.2900  -45.1660 C.2   107  ASP107      0.3671
     64  OD1       44.0190   -6.3540  -45.8260 O.co2 107  ASP107     -0.2456
     65  OD2       44.1940   -8.4490  -45.4670 O.co2 107  ASP107     -0.2456
     66  N         43.1990   -4.4330  -43.2500 N.am  108  THR108     -0.1937
     67  CA        41.8620   -4.0090  -42.8850 C.3   108  THR108      0.2028
     68  C         40.7480   -4.4260  -43.8340 C.2   108  THR108      0.2642
     69  O         39.5610   -4.3390  -43.4640 O.2   108  THR108     -0.2714
     70  CB        41.8230   -2.4720  -42.7610 C.3   108  THR108      0.1808
     71  OG1       42.1260   -1.8320  -44.0170 O.3   108  THR108     -0.2208
     72  CG2       42.7940   -2.0280  -41.7030 C.3   108  THR108      0.0379
     73  N         41.1230   -4.8490  -45.0340 N.am  109  LEU109     -0.1977
     74  CA        40.1420   -5.1710  -46.1120 C.3   109  LEU109      0.1596
     75  C         39.1430   -6.3100  -45.8390 C.2   109  LEU109      0.2287
     76  O         38.0020   -6.1440  -46.1870 O.2   109  LEU109     -0.2864
     77  CB        40.8580   -5.4230  -47.4650 C.3   109  LEU109      0.0297
     78  CG        41.7400   -4.2570  -47.9400 C.3   109  LEU109      0.0022
     79  CD1       42.6350   -4.6060  -49.0760 C.3   109  LEU109      0.0001
     80  CD2       40.8520   -3.1050  -48.3740 C.3   109  LEU109      0.0001
     81  N         37.9880    4.5040  -47.7960 N.3   129  THR129     -0.1218
     82  CA        39.1720    5.0450  -48.4360 C.3   129  THR129      0.1862
     83  C         39.9140    4.0690  -49.4120 C.2   129  THR129      0.2287
     84  O         39.8470    2.8200  -49.3170 O.2   129  THR129     -0.2866
     85  CB        40.1960    5.5030  -47.3560 C.3   129  THR129      0.1770
     86  OG1       40.6030    4.3800  -46.5580 O.3   129  THR129     -0.2211
     87  CG2       39.5920    6.5410  -46.4310 C.3   129  THR129      0.0375
     88  N         43.5430    4.5010  -50.0380 N.3   131  GLY131     -0.1210
     89  CA        44.8740    5.0890  -49.9760 C.3   131  GLY131      0.1956
     90  C         44.8450    6.5550  -49.5930 C.2   131  GLY131      0.2612
     91  O         44.4230    7.4320  -50.3910 O.2   131  GLY131     -0.2717
     92  N         45.3460    6.8340  -48.4030 N.am  132  VAL132     -0.1965
     93  CA        45.4410    8.2060  -47.9580 C.3   132  VAL132      0.1727
     94  C         46.8680    8.6670  -47.7400 C.2   132  VAL132      0.2616
     95  O         47.0820    9.6540  -47.0150 O.2   132  VAL132     -0.2715
     96  CB        44.6110    8.4840  -46.6900 C.3   132  VAL132      0.0290
     97  CG1       43.1310    8.0970  -46.8930 C.3   132  VAL132      0.0023
     98  CG2       45.2340    7.7400  -45.5420 C.3   132  VAL132      0.0023
     99  N         47.8300    7.9520  -48.3520 N.am  133  PHE133     -0.1974
    100  CA        49.2230    8.4080  -48.2400 C.3   133  PHE133      0.1639
    101  C         49.4480    9.5980  -49.1630 C.2   133  PHE133      0.2290
    102  O         48.6910    9.7750  -50.0760 O.2   133  PHE133     -0.2864
    103  CB        50.2170    7.2830  -48.3860 C.3   133  PHE133      0.0560
    104  CG        50.0840    6.2460  -47.3440 C.ar  133  PHE133     -0.0200
    105  CD1       49.0620    5.2580  -47.4000 C.ar  133  PHE133     -0.0042
    106  CD2       50.9700    6.2200  -46.2730 C.ar  133  PHE133     -0.0042
    107  CE1       48.9690    4.2420  -46.3560 C.ar  133  PHE133     -0.0003
    108  CE2       50.8540    5.2430  -45.2350 C.ar  133  PHE133     -0.0003
    109  CZ        49.8630    4.2540  -45.2900 C.ar  133  PHE133     -0.0000
    110  N         45.0460   -1.7490  -54.8090 N.3   153  PRO153     -0.2102
    111  CA        44.8620   -2.9530  -53.9470 C.3   153  PRO153      0.1504
    112  C         43.4980   -3.0590  -53.2560 C.2   153  PRO153      0.2575
    113  O         42.8950   -4.1940  -53.2080 O.2   153  PRO153     -0.2718
    114  CB        45.9380   -2.8000  -52.8800 C.3   153  PRO153      0.0282
    115  CG        46.9300   -1.8420  -53.4470 C.3   153  PRO153      0.0208
    116  CD        46.2330   -0.9630  -54.4350 C.3   153  PRO153      0.0893
    117  N         42.9940   -1.9350  -52.7470 N.am  154  ILE154     -0.1980
    118  CA        41.6950   -1.9390  -52.1300 C.3   154  ILE154      0.1595
    119  C         40.5740   -2.3060  -53.0790 C.2   154  ILE154      0.2287
    120  O         39.7480   -3.1820  -52.7710 O.2   154  ILE154     -0.2864
    121  CB        41.3850   -0.5610  -51.4840 C.3   154  ILE154      0.0276
    122  CG1       42.3870   -0.2320  -50.3600 C.3   154  ILE154      0.0022
    123  CG2       39.9770   -0.5190  -50.9280 C.3   154  ILE154      0.0022
    124  CD1       43.4730    0.7400  -50.7410 C.3   154  ILE154      0.0001
    125  N         49.7950    4.7390  -51.5240 N.3   174  LEU174     -0.1231
    126  CA        49.5200    3.6030  -50.6300 C.3   174  LEU174      0.1693
    127  C         50.5920    3.2060  -49.6490 C.2   174  LEU174      0.2592
    128  O         51.6190    3.8840  -49.5630 O.2   174  LEU174     -0.2718
    129  CB        49.0810    2.3840  -51.4460 C.3   174  LEU174      0.0284
    130  CG        47.7060    2.6690  -52.0400 C.3   174  LEU174      0.0019
    131  CD1       47.4470    2.0380  -53.3940 C.3   174  LEU174      0.0001
    132  CD2       46.5340    2.5970  -51.0570 C.3   174  LEU174      0.0001
    133  N         50.3600    2.1040  -48.9060 N.am  175  ILE175     -0.1966
    134  CA        51.2900    1.6360  -47.8470 C.3   175  ILE175      0.1727
    135  C         52.6330    1.3330  -48.4880 C.2   175  ILE175      0.2616
    136  O         53.6650    1.7450  -47.9850 O.2   175  ILE175     -0.2715
    137  CB        50.7940    0.3720  -47.0660 C.3   175  ILE175      0.0290
    138  CG1       49.2910    0.4820  -46.7320 C.3   175  ILE175      0.0022
    139  CG2       51.6460    0.1500  -45.7830 C.3   175  ILE175      0.0023
    140  CD1       48.6840   -0.8140  -46.2650 C.3   175  ILE175      0.0001
    141  N         52.5290    0.6500  -49.6370 N.am  176  ARG176     -0.1977
    142  CA        53.5840    0.3590  -50.6010 C.3   176  ARG176      0.1597
    143  C         54.3600    1.5730  -51.0330 C.2   176  ARG176      0.2287
    144  O         55.5590    1.4350  -51.1430 O.2   176  ARG176     -0.2864
    145  CB        53.0580   -0.3650  -51.8710 C.3   176  ARG176      0.0334
    146  CG        52.2050    0.4300  -52.8820 C.3   176  ARG176      0.0492
    147  CD        52.4580   -0.1350  -54.2790 C.3   176  ARG176      0.2205
    148  NE        51.2870   -0.0750  -55.1560 N.pl3 176  ARG176     -0.0865
    149  CZ        50.3620   -1.0250  -55.2870 C.cat 176  ARG176      0.5346
    150  NH1       50.4860   -2.1700  -54.6130 N.pl3 176  ARG176      0.1354
    151  NH2       49.3360   -0.8420  -56.1190 N.pl3 176  ARG176      0.1354
    152  N         52.0840    9.8310  -44.3050 N.3   181  VAL181     -0.1245
    153  CA        50.7030   10.2920  -44.1180 C.3   181  VAL181      0.1561
    154  C         50.7850   11.7150  -43.5690 C.2   181  VAL181      0.2260
    155  O         51.3800   11.8800  -42.4870 O.2   181  VAL181     -0.2867
    156  CB        49.9670    9.3990  -43.1160 C.3   181  VAL181      0.0252
    157  CG1       48.5790    9.8940  -42.7890 C.3   181  VAL181      0.0019
    158  CG2       49.8610    8.0530  -43.6990 C.3   181  VAL181      0.0019
    159  N         45.1660   14.4960  -44.9650 N.3   186  LEU186     -0.1245
    160  CA        44.0320   13.9720  -44.1540 C.3   186  LEU186      0.1561
    161  C         42.9010   15.0160  -44.0180 C.2   186  LEU186      0.2260
    162  O         41.7240   14.6590  -44.0890 O.2   186  LEU186     -0.2867
    163  CB        44.5000   13.5130  -42.7600 C.3   186  LEU186      0.0270
    164  CG        45.4250   12.2620  -42.6140 C.3   186  LEU186      0.0019
    165  CD1       45.5570   11.8110  -41.1410 C.3   186  LEU186      0.0001
    166  CD2       44.9990   11.0340  -43.4440 C.3   186  LEU186      0.0001
@<TRIPOS>BOND
     1   151   149    1
     2   149   148    2
     3   149   150    1
     4   148   147    1
     5   110   116    1
     6   110   111    1
     7   116   115    1
     8   147   146    1
     9   111   112    1
    10   111   114    1
    11   115   114    1
    12   131   130    1
    13   112   113    2
    14   112   117   am
    15   119   120    2
    16   119   118    1
    17   146   145    1
    18   117   118    1
    19   118   121    1
    20   130   129    1
    21   130   132    1
    22   145   142    1
    23   125   126    1
    24   121   123    1
    25   121   122    1
    26   129   126    1
    27   144   143    2
    28   143   142    1
    29   124   122    1
    30   126   127    1
    31   142   141    1
    32    91    90    2
    33   102   101    2
    34    88    89    1
    35    89    90    1
    36   127   128    2
    37   127   133   am
    38   141   135   am
    39    90    92   am
    40    83    84    2
    41    83    82    1
    42   101   100    1
    43    79    78    1
    44   133   134    1
    45   135   136    2
    46   135   134    1
    47    82    81    1
    48    82    85    1
    49    92    93    1
    50   103   100    1
    51   103   104    1
    52    80    78    1
    53    99   100    1
    54    99    94   am
    55    93    94    1
    56    93    96    1
    57    78    77    1
    58   134   137    1
    59    94    95    2
    60    77    74    1
    61   105   104   ar
    62   105   107   ar
    63    85    86    1
    64    85    87    1
    65   104   106   ar
    66   137   138    1
    67   137   139    1
    68    97    96    1
    69   138   140    1
    70    96    98    1
    71   107   109   ar
    72   106   108   ar
    73    76    75    2
    74    74    75    1
    75    74    73    1
    76    64    63   ar
    77    65    63   ar
    78   109   108   ar
    79    63    62    1
    80    73    68   am
    81   159   160    1
    82   152   153    1
    83   160   161    1
    84   160   163    1
    85   153   154    1
    86   153   156    1
    87   162   161    2
    88    62    59    1
    89    71    70    1
    90    68    69    2
    91    68    67    1
    92    23    21    1
    93   158   156    1
    94   154   155    2
    95   166   164    1
    96    59    60    1
    97    59    58    1
    98    22    21    1
    99    66    67    1
   100    66    60   am
   101    36    34   ar
   102   156   157    1
   103    67    70    1
   104    33    34    1
   105    33    32    1
   106    60    61    2
   107    70    72    1
   108   163   164    1
   109    21    20    1
   110   164   165    1
   111    57    56    2
   112    34    35   ar
   113    58    56   am
   114    40    39    2
   115    29    28    1
   116    29    32    1
   117    29    30    1
   118    56    55    1
   119    20    17    1
   120    37    30   am
   121    37    38    1
   122    42    44    1
   123    42    41    1
   124    30    31    2
   125    39    38    1
   126    39    45   am
   127    49    46    1
   128    55    54    1
   129    17    18    1
   130    17    16    1
   131    46    45    1
   132    46    47    1
   133    38    41    1
   134    19    18    2
   135    54    52   am
   136    41    43    1
   137    18    24   am
   138    50    47   am
   139    50    51    1
   140    16     7   am
   141    52    53    2
   142    52    51    1
   143    24    25    1
   144    47    48    2
   145    25    26    1
   146     8     7    2
   147     7     6    1
   148    27    26    2
   149     9     6    1
   150     9    10    1
   151     6     5    1
   152    11    10    1
   153    11    12    1
   154     5     3   am
   155     4     3    2
   156     3     2    1
   157    14    13    1
   158    12    13    2
   159     1     2    1
   160    13    15    1
