@<TRIPOS>MOLECULE
tmp/3wv9D00.pdb
 169 159 0 0 0
SMALL
GASTEIGER

@<TRIPOS>ATOM
      1  N         55.5190   -6.2290   42.8830 N.3    13  VAL13      -0.1231
      2  CA        56.8770   -6.4990   42.4300 C.3    13  VAL13       0.1692
      3  C         57.1660   -7.9560   42.6230 C.2    13  VAL13       0.2593
      4  O         57.1990   -8.4370   43.7620 O.2    13  VAL13      -0.2718
      5  CB        57.9240   -5.6510   43.1380 C.3    13  VAL13       0.0266
      6  CG1       59.2680   -5.8570   42.4510 C.3    13  VAL13       0.0020
      7  CG2       57.5270   -4.2070   42.9430 C.3    13  VAL13       0.0020
      8  N         57.4230   -8.6130   41.4880 N.am   14  GLY14      -0.1942
      9  CA        57.6480  -10.0490   41.4260 C.3    14  GLY14       0.2014
     10  C         56.3970  -10.7540   41.0240 C.2    14  GLY14       0.2639
     11  O         55.3770  -10.6400   41.7150 O.2    14  GLY14      -0.2714
     12  N         56.4570  -11.4760   39.9070 N.am   15  ALA15      -0.1963
     13  CA        55.2660  -12.1870   39.4050 C.3    15  ALA15       0.1728
     14  C         55.6250  -13.6280   39.1240 C.2    15  ALA15       0.2617
     15  O         55.2890  -14.1840   38.1020 O.2    15  ALA15      -0.2715
     16  CB        54.6420  -11.4900   38.1900 C.3    15  ALA15       0.0334
     17  N         56.3040  -14.2250   40.0920 N.am   16  GLY16      -0.1940
     18  CA        56.6570  -15.6220   40.0740 C.3    16  GLY16       0.2014
     19  C         55.5100  -16.4230   40.6390 C.2    16  GLY16       0.2639
     20  O         54.3550  -15.9750   40.6750 O.2    16  GLY16      -0.2714
     21  N         55.8410  -17.6280   41.0590 N.am   17  ARG17      -0.1963
     22  CA        54.8990  -18.5480   41.6220 C.3    17  ARG17       0.1729
     23  C         54.0660  -17.9520   42.7710 C.2    17  ARG17       0.2616
     24  O         52.8970  -18.2860   42.8990 O.2    17  ARG17      -0.2715
     25  CB        55.6630  -19.7720   42.0800 C.3    17  ARG17       0.0348
     26  CG        56.3880  -20.5380   40.9720 C.3    17  ARG17       0.0492
     27  CD        57.1360  -21.7320   41.5320 C.3    17  ARG17       0.2205
     28  NE        57.7090  -22.5790   40.5030 N.pl3  17  ARG17      -0.0865
     29  CZ        58.8690  -22.3460   39.8770 C.cat  17  ARG17       0.5346
     30  NH1       59.5680  -21.2430   40.1250 N.pl3  17  ARG17       0.1354
     31  NH2       59.3240  -23.2090   38.9540 N.pl3  17  ARG17       0.1354
     32  N         54.6220  -17.0710   43.5900 N.am   18  LEU18      -0.1977
     33  CA        53.8310  -16.3340   44.5620 C.3    18  LEU18       0.1596
     34  C         53.1630  -15.0960   43.9670 C.2    18  LEU18       0.2287
     35  O         51.9300  -14.9630   44.0330 O.2    18  LEU18      -0.2864
     36  CB        54.6750  -15.9180   45.7620 C.3    18  LEU18       0.0297
     37  CG        53.8660  -15.1780   46.8840 C.3    18  LEU18       0.0022
     38  CD1       52.6740  -16.0050   47.3730 C.3    18  LEU18       0.0001
     39  CD2       54.7380  -14.7280   48.0710 C.3    18  LEU18       0.0001
     40  N         55.0560   -6.3060   38.0230 N.3    40  ILE40      -0.1231
     41  CA        56.3880   -5.8900   37.5520 C.3    40  ILE40       0.1692
     42  C         57.4020   -6.9890   37.8070 C.2    40  ILE40       0.2592
     43  O         57.6530   -7.3640   38.9800 O.2    40  ILE40      -0.2718
     44  CB        56.9010   -4.5920   38.3030 C.3    40  ILE40       0.0266
     45  CG1       55.9050   -3.3980   38.2540 C.3    40  ILE40       0.0019
     46  CG2       58.3890   -4.2870   37.9610 C.3    40  ILE40       0.0020
     47  CD1       56.4680   -2.1420   38.9540 C.3    40  ILE40       0.0001
     48  N         58.0420   -7.4370   36.7320 N.am   41  ASP41      -0.1974
     49  CA        58.9160   -8.6050   36.7460 C.3    41  ASP41       0.1709
     50  C         59.6010   -8.7200   35.3810 C.2    41  ASP41       0.2293
     51  O         58.9990   -8.4680   34.3490 O.2    41  ASP41      -0.2864
     52  CB        58.0960   -9.8570   37.0820 C.3    41  ASP41       0.1436
     53  CG        58.9510  -11.0920   37.2870 C.2    41  ASP41       0.3671
     54  OD1       59.9000  -11.3080   36.5440 O.co2  41  ASP41      -0.2456
     55  OD2       58.6100  -11.9100   38.1950 O.co2  41  ASP41      -0.2456
     56  N         60.9670  -11.4430   33.7630 N.3    43  GLN43      -0.1245
     57  CA        61.1440  -12.8470   33.3200 C.3    43  GLN43       0.1566
     58  C         60.0890  -13.4230   32.4150 C.2    43  GLN43       0.2260
     59  O         58.9560  -13.0350   32.4900 O.2    43  GLN43      -0.2867
     60  CB        61.1600  -13.8130   34.5330 C.3    43  GLN43       0.0367
     61  CG        62.5170  -14.2810   34.9750 C.3    43  GLN43       0.0905
     62  CD        62.4420  -15.4650   35.9270 C.2    43  GLN43       0.2608
     63  OE1       61.3820  -15.7470   36.4820 O.2    43  GLN43      -0.2717
     64  NE2       63.5880  -16.1490   36.1460 N.am   43  GLN43      -0.0878
     65  N         58.9000  -20.1550   31.7930 N.3    46  SER46      -0.1217
     66  CA        59.7320  -21.2470   31.3300 C.3    46  SER46       0.1889
     67  C         58.9870  -22.5720   31.4950 C.2    46  SER46       0.2288
     68  O         57.8670  -22.6300   32.0450 O.2    46  SER46      -0.2866
     69  CB        60.9940  -21.2390   32.1190 C.3    46  SER46       0.2089
     70  OG        60.7000  -21.6040   33.4570 O.3    46  SER46      -0.2183
     71  N         59.5280  -24.7750   33.5040 N.3    48  ASP48      -0.1225
     72  CA        59.2130  -25.0160   34.9090 C.3    48  ASP48       0.1805
     73  C         57.9150  -24.3880   35.4460 C.2    48  ASP48       0.2597
     74  O         57.4570  -24.7180   36.5300 O.2    48  ASP48      -0.2718
     75  CB        60.3300  -24.5010   35.7710 C.3    48  ASP48       0.1424
     76  CG        61.3940  -25.4900   35.9880 C.2    48  ASP48       0.3668
     77  OD1       61.3020  -26.6700   35.5090 O.co2  48  ASP48      -0.2456
     78  OD2       62.3600  -25.0390   36.6670 O.co2  48  ASP48      -0.2456
     79  N         57.3720  -23.4220   34.7160 N.am   49  ASP49      -0.1974
     80  CA        56.2670  -22.6050   35.2570 C.3    49  ASP49       0.1709
     81  C         54.9050  -23.2220   35.0350 C.2    49  ASP49       0.2293
     82  O         54.0390  -22.6690   34.3470 O.2    49  ASP49      -0.2864
     83  CB        56.3370  -21.1740   34.7050 C.3    49  ASP49       0.1436
     84  CG        57.4560  -20.4170   35.2600 C.2    49  ASP49       0.3671
     85  OD1       57.7520  -20.6190   36.4150 O.co2  49  ASP49      -0.2456
     86  OD2       58.1390  -19.6980   34.5220 O.co2  49  ASP49      -0.2456
     87  N         55.8170  -13.3250   31.7830 N.3    63  LYS63      -0.1245
     88  CA        54.8370  -13.4520   32.8240 C.3    63  LYS63       0.1561
     89  C         53.8950  -12.2450   32.8880 C.2    63  LYS63       0.2260
     90  O         52.6900  -12.4360   33.0040 O.2    63  LYS63      -0.2867
     91  CB        55.5410  -13.7070   34.1820 C.3    63  LYS63       0.0271
     92  CG        56.3150  -15.0140   34.2150 C.3    63  LYS63       0.0035
     93  CD        57.1200  -15.1840   35.4760 C.3    63  LYS63       0.0206
     94  CE        58.0010  -16.4330   35.3820 C.3    63  LYS63       0.1093
     95  NZ        58.6450  -16.6340   36.7110 N.3    63  LYS63      -0.1314
     96  N         60.1610   -5.5090   33.5680 N.3    84  GLU84      -0.1231
     97  CA        61.5040   -5.0870   34.0060 C.3    84  GLU84       0.1699
     98  C         61.6690   -5.5150   35.4310 C.2    84  GLU84       0.2592
     99  O         60.7080   -5.5400   36.1630 O.2    84  GLU84      -0.2718
    100  CB        61.7860   -3.5530   33.8750 C.3    84  GLU84       0.0402
    101  CG        62.6290   -3.2030   32.6490 C.3    84  GLU84       0.1161
    102  CD        63.0870   -1.7250   32.5300 C.2    84  GLU84       0.3649
    103  OE1       63.0690   -0.9600   33.4960 O.co2  84  GLU84      -0.2457
    104  OE2       63.5100   -1.2930   31.4170 O.co2  84  GLU84      -0.2457
    105  N         62.8890   -5.8560   35.8170 N.am   85  TYR85      -0.1962
    106  CA        63.2430   -6.1030   37.1820 C.3    85  TYR85       0.1771
    107  C         63.4420   -4.7710   37.8230 C.2    85  TYR85       0.2619
    108  O         63.9060   -3.8270   37.1870 O.2    85  TYR85      -0.2715
    109  CB        64.5410   -6.8900   37.2550 C.3    85  TYR85       0.0574
    110  CG        64.4740   -8.2460   36.6370 C.ar   85  TYR85      -0.0198
    111  CD1       63.6880   -9.1900   37.1800 C.ar   85  TYR85      -0.0009
    112  CD2       65.1440   -8.5290   35.4450 C.ar   85  TYR85      -0.0009
    113  CE1       63.5880  -10.4610   36.6200 C.ar   85  TYR85       0.0417
    114  CE2       65.0870   -9.7880   34.8700 C.ar   85  TYR85       0.0417
    115  CZ        64.2890  -10.7610   35.4680 C.ar   85  TYR85       0.1957
    116  OH        64.2170  -11.9880   34.8990 O.3    85  TYR85      -0.2866
    117  N         63.0910   -4.6820   39.0900 N.am   86  ILE86      -0.1977
    118  CA        63.3810   -3.4970   39.8450 C.3    86  ILE86       0.1596
    119  C         64.8530   -3.4290   40.3130 C.2    86  ILE86       0.2287
    120  O         65.4220   -4.3860   40.8600 O.2    86  ILE86      -0.2864
    121  CB        62.4170   -3.3640   41.0200 C.3    86  ILE86       0.0276
    122  CG1       61.0300   -2.9470   40.5030 C.3    86  ILE86       0.0022
    123  CG2       62.9070   -2.3330   42.0010 C.3    86  ILE86       0.0022
    124  CD1       60.9000   -1.5750   39.8290 C.3    86  ILE86       0.0001
    125  N         57.3530   -9.6260   46.3690 N.3   102  GLU102     -0.1231
    126  CA        57.4150  -11.0820   46.3230 C.3   102  GLU102      0.1699
    127  C         58.4740  -11.5580   45.3030 C.2   102  GLU102      0.2592
    128  O         58.1590  -12.0780   44.2320 O.2   102  GLU102     -0.2718
    129  CB        56.0290  -11.6220   45.9960 C.3   102  GLU102      0.0402
    130  CG        54.8880  -11.1890   46.9550 C.3   102  GLU102      0.1161
    131  CD        53.4830  -11.2120   46.3430 C.2   102  GLU102      0.3649
    132  OE1       53.2420  -10.5150   45.3060 O.co2 102  GLU102     -0.2457
    133  OE2       52.6290  -11.9140   46.9180 O.co2 102  GLU102     -0.2457
    134  N         59.7510  -11.3800   45.6420 N.am  103  ILE103     -0.1966
    135  CA        60.8690  -11.7310   44.7260 C.3   103  ILE103      0.1727
    136  C         61.7070  -12.9190   45.2460 C.2   103  ILE103      0.2616
    137  O         61.6280  -13.3040   46.4560 O.2   103  ILE103     -0.2715
    138  CB        61.7620  -10.5030   44.4450 C.3   103  ILE103      0.0290
    139  CG1       62.2450   -9.8790   45.7880 C.3   103  ILE103      0.0022
    140  CG2       60.9880   -9.4670   43.6100 C.3   103  ILE103      0.0023
    141  CD1       63.3290   -8.8440   45.6290 C.3   103  ILE103      0.0001
    142  N         62.4770  -13.5020   44.3200 N.am  104  ALA104     -0.1977
    143  CA        63.3290  -14.6740   44.5370 C.3   104  ALA104      0.1597
    144  C         64.4830  -14.5510   43.5400 C.2   104  ALA104      0.2287
    145  O         64.4130  -13.7420   42.5790 O.2   104  ALA104     -0.2864
    146  CB        62.5710  -15.9600   44.2750 C.3   104  ALA104      0.0319
    147  N         68.3040  -11.0430   47.2360 N.3   108  THR108     -0.1218
    148  CA        67.1490  -10.1240   47.0720 C.3   108  THR108      0.1862
    149  C         66.7270   -9.3930   48.3350 C.2   108  THR108      0.2287
    150  O         65.5640   -9.2560   48.6310 O.2   108  THR108     -0.2866
    151  CB        65.9220  -10.7860   46.3720 C.3   108  THR108      0.1770
    152  OG1       65.4330  -11.8560   47.1900 O.3   108  THR108     -0.2211
    153  CG2       66.2100  -11.2900   44.9260 C.3   108  THR108      0.0375
    154  N         67.7400   -4.9470   47.5500 N.3   111  ILE111     -0.1245
    155  CA        66.7540   -4.4720   46.5540 C.3   111  ILE111      0.1561
    156  C         65.2880   -4.2810   47.0760 C.2   111  ILE111      0.2260
    157  O         64.5880   -3.3060   46.7350 O.2   111  ILE111     -0.2867
    158  CB        66.8270   -5.3380   45.2540 C.3   111  ILE111      0.0252
    159  CG1       66.3510   -4.5410   44.0540 C.3   111  ILE111      0.0019
    160  CG2       66.0250   -6.6090   45.4020 C.3   111  ILE111      0.0019
    161  CD1       67.2950   -3.4180   43.6460 C.3   111  ILE111      0.0001
    162  N         63.2110   -0.6110   47.4720 N.3   115  ILE115     -0.1245
    163  CA        61.8500   -0.4200   46.9580 C.3   115  ILE115      0.1561
    164  C         61.0120    0.2290   48.0610 C.2   115  ILE115      0.2260
    165  O         60.2870    1.1560   47.8120 O.2   115  ILE115     -0.2867
    166  CB        61.1760   -1.7560   46.5370 C.3   115  ILE115      0.0252
    167  CG1       61.7410   -2.2520   45.2110 C.3   115  ILE115      0.0019
    168  CG2       59.6440   -1.6820   46.5870 C.3   115  ILE115      0.0019
    169  CD1       61.5450   -3.7590   45.0140 C.3   115  ILE115      0.0001
@<TRIPOS>BOND
     1    66    67    1
     2    66    65    1
     3    66    69    1
     4   104   102   ar
     5    67    68    2
     6    87    88    1
     7    69    70    1
     8    58    59    2
     9    58    57    1
    10   102   101    1
    11   102   103   ar
    12   101   100    1
    13    88    89    1
    14    88    91    1
    15    89    90    2
    16    57    56    1
    17    57    60    1
    18    71    72    1
    19    96    97    1
    20   100    97    1
    21    97    98    1
    22    91    92    1
    23    92    93    1
    24    82    81    2
    25    51    50    2
    26    86    84   ar
    27    60    61    1
    28    83    80    1
    29    83    84    1
    30    79    80    1
    31    79    73   am
    32   114   112   ar
    33   114   115   ar
    34   116   115    1
    35    72    73    1
    36    72    75    1
    37    61    62    1
    38    81    80    1
    39    84    85   ar
    40    50    49    1
    41    94    93    1
    42    94    95    1
    43    98   105   am
    44    98    99    2
    45   112   110   ar
    46    73    74    2
    47   115   113   ar
    48    77    76   ar
    49    75    76    1
    50   105   106    1
    51    62    64   am
    52    62    63    2
    53    76    78   ar
    54    54    53   ar
    55   113   111   ar
    56   110   111   ar
    57   110   109    1
    58    48    49    1
    59    48    42   am
    60    49    52    1
    61    52    53    1
    62   106   109    1
    63   106   107    1
    64   108   107    2
    65    53    55   ar
    66    41    42    1
    67    41    40    1
    68    41    44    1
    69    42    43    2
    70   107   117   am
    71    46    44    1
    72    15    14    2
    73    16    13    1
    74    45    44    1
    75    45    47    1
    76    31    29    1
    77   117   118    1
    78    14    13    1
    79    14    17   am
    80    13    12    1
    81   124   122    1
    82   118   119    1
    83   118   121    1
    84    29    30    1
    85    29    28    2
    86    12    10   am
    87    18    17    1
    88    18    19    1
    89   119   120    2
    90    28    27    1
    91   122   121    1
    92    19    20    2
    93    19    21   am
    94    26    27    1
    95    26    25    1
    96   121   123    1
    97    10     9    1
    98    10    11    2
    99    21    22    1
   100     9     8    1
   101     8     3   am
   102    22    25    1
   103    22    23    1
   104     2     3    1
   105     2     1    1
   106     2     5    1
   107     6     5    1
   108   145   144    2
   109     3     4    2
   110    23    24    2
   111    23    32   am
   112     7     5    1
   113   144   143    1
   114    32    33    1
   115   140   138    1
   116   161   159    1
   117    34    35    2
   118    34    33    1
   119   159   158    1
   120   128   127    2
   121   146   143    1
   122   142   143    1
   123   142   136   am
   124   138   135    1
   125   138   139    1
   126    33    36    1
   127   135   136    1
   128   135   134    1
   129   153   151    1
   130   169   167    1
   131   167   166    1
   132   136   137    2
   133   158   160    1
   134   158   155    1
   135   127   134   am
   136   127   126    1
   137   132   131   ar
   138   141   139    1
   139    36    37    1
   140   129   126    1
   141   129   130    1
   142   126   125    1
   143   131   133   ar
   144   131   130    1
   145   151   148    1
   146   151   152    1
   147   166   168    1
   148   166   163    1
   149   155   156    1
   150   155   154    1
   151   157   156    2
   152    37    38    1
   153    37    39    1
   154   163   162    1
   155   163   164    1
   156   148   147    1
   157   148   149    1
   158   165   164    2
   159   149   150    2
