@<TRIPOS>MOLECULE
tmp/3wvcB01.pdb
 151 146 0 0 0
SMALL
GASTEIGER

@<TRIPOS>ATOM
      1  N          5.8560   19.3430   23.4470 N.3    11  CYS11      -0.1221
      2  CA         5.0570   18.9390   24.5750 C.3    11  CYS11       0.1808
      3  C          3.6130   19.2530   24.2570 C.2    11  CYS11       0.2601
      4  O          2.9180   18.4250   23.6830 O.2    11  CYS11      -0.2717
      5  CB         5.5180   19.5850   25.8730 C.3    11  CYS11       0.0970
      6  SG         4.4390   19.0400   27.2020 S.3    11  CYS11      -0.0800
      7  N          3.1630   20.4860   24.5370 N.am   12  PHE12      -0.1976
      8  CA         1.7490   20.7980   24.2770 C.3    12  PHE12       0.1639
      9  C          1.2350   20.5360   22.8430 C.2    12  PHE12       0.2290
     10  O          0.0390   20.2780   22.6830 O.2    12  PHE12      -0.2864
     11  CB         1.3820   22.2100   24.7620 C.3    12  PHE12       0.0560
     12  CG         1.7410   23.3630   23.7920 C.ar   12  PHE12      -0.0200
     13  CD1        3.0530   23.7430   23.6100 C.ar   12  PHE12      -0.0042
     14  CD2        0.7100   24.1710   23.1680 C.ar   12  PHE12      -0.0042
     15  CE1        3.4060   24.8410   22.8100 C.ar   12  PHE12      -0.0003
     16  CE2        1.0550   25.2840   22.3440 C.ar   12  PHE12      -0.0003
     17  CZ         2.4150   25.5960   22.1180 C.ar   12  PHE12      -0.0000
     18  N          2.0010   17.9770   21.0250 N.3    14  HIS14      -0.1241
     19  CA         1.8210   16.5200   20.8300 C.3    14  HIS14       0.1621
     20  C          2.6090   15.8890   19.6880 C.2    14  HIS14       0.2264
     21  O          2.1530   14.8910   19.1200 O.2    14  HIS14      -0.2867
     22  CB         0.3300   16.1650   20.6830 C.3    14  HIS14       0.0745
     23  CG        -0.4040   16.1820   21.9810 C.ar   14  HIS14       0.0817
     24  ND1       -1.5640   15.4520   22.1870 N.ar   14  HIS14      -0.2268
     25  CD2       -0.1140   16.7870   23.1670 C.ar   14  HIS14       0.1154
     26  CE1       -1.9870   15.6570   23.4280 C.ar   14  HIS14       0.1986
     27  NE2       -1.1380   16.4740   24.0430 N.ar   14  HIS14      -0.2212
     28  N          7.2600   13.4610   21.3190 N.3    55  PHE55      -0.1241
     29  CA         6.3700   14.0520   22.3660 C.3    55  PHE55       0.1605
     30  C          7.0520   13.7940   23.7210 C.2    55  PHE55       0.2264
     31  O          7.4010   12.6410   24.0030 O.2    55  PHE55      -0.2867
     32  CB         5.0710   13.3330   22.3150 C.3    55  PHE55       0.0534
     33  CG         4.1550   13.6360   23.4720 C.ar   55  PHE55      -0.0203
     34  CD1        3.7060   14.9650   23.7350 C.ar   55  PHE55      -0.0042
     35  CD2        3.5950   12.5850   24.1870 C.ar   55  PHE55      -0.0042
     36  CE1        2.7870   15.2390   24.7680 C.ar   55  PHE55      -0.0003
     37  CE2        2.6540   12.8700   25.1890 C.ar   55  PHE55      -0.0003
     38  CZ         2.2430   14.1610   25.4690 C.ar   55  PHE55      -0.0000
     39  N          6.5660   14.7980   27.4420 N.3    57  PRO57      -0.2116
     40  CA         5.8300   15.5470   28.4820 C.3    57  PRO57       0.1372
     41  C          6.4740   15.3820   29.8750 C.2    57  PRO57       0.2244
     42  O          5.8600   15.7380   30.8730 O.2    57  PRO57      -0.2868
     43  CB         4.4330   14.8980   28.4290 C.3    57  PRO57       0.0268
     44  CG         4.7540   13.4670   28.1460 C.3    57  PRO57       0.0207
     45  CD         5.7840   13.6120   27.0220 C.3    57  PRO57       0.0892
     46  N          2.8650   19.7340   36.7490 N.3    81  LYS81      -0.1231
     47  CA         4.0080   20.6290   36.7160 C.3    81  LYS81       0.1693
     48  C          3.8560   21.6460   35.5420 C.2    81  LYS81       0.2592
     49  O          3.4480   21.2670   34.4400 O.2    81  LYS81      -0.2718
     50  CB         5.2850   19.8070   36.5490 C.3    81  LYS81       0.0285
     51  CG         5.6810   18.9050   37.7260 C.3    81  LYS81       0.0035
     52  CD         7.0450   18.2430   37.4770 C.3    81  LYS81       0.0206
     53  CE         7.4450   17.3950   38.6850 C.3    81  LYS81       0.1093
     54  NZ         8.7970   16.8320   38.5060 N.3    81  LYS81      -0.1314
     55  N          4.1500   22.9180   35.7660 N.am   82  ALA82      -0.1966
     56  CA         3.9930   23.9130   34.6790 C.3    82  ALA82       0.1728
     57  C          4.9640   25.0330   34.8290 C.2    82  ALA82       0.2616
     58  O          5.2980   25.4420   36.0090 O.2    82  ALA82      -0.2715
     59  CB         2.5890   24.4690   34.6190 C.3    82  ALA82       0.0334
     60  N          5.3800   25.5940   33.6750 N.am   83  TYR83      -0.1974
     61  CA         6.1240   26.8720   33.7410 C.3    83  TYR83       0.1639
     62  C          5.2010   28.0000   33.4460 C.2    83  TYR83       0.2290
     63  O          4.1650   27.7700   32.8450 O.2    83  TYR83      -0.2864
     64  CB         7.2620   26.9030   32.7110 C.3    83  TYR83       0.0560
     65  CG         8.3270   25.8670   32.9180 C.ar   83  TYR83      -0.0198
     66  CD1        9.2190   25.9550   33.9780 C.ar   83  TYR83      -0.0009
     67  CD2        8.4630   24.7900   31.9920 C.ar   83  TYR83      -0.0009
     68  CE1       10.2090   24.9890   34.1760 C.ar   83  TYR83       0.0417
     69  CE2        9.4640   23.8560   32.1760 C.ar   83  TYR83       0.0417
     70  CZ        10.3410   23.9750   33.2560 C.ar   83  TYR83       0.1957
     71  OH        11.3430   23.0310   33.4020 O.3    83  TYR83      -0.2866
     72  N          8.7660   28.9180   30.1410 N.3    88  ASP88      -0.1239
     73  CA         8.3670   28.1910   28.8780 C.3    88  ASP88       0.1674
     74  C          9.3060   28.6220   27.7200 C.2    88  ASP88       0.2266
     75  O          9.7510   27.7790   26.9480 O.2    88  ASP88      -0.2867
     76  CB         6.8930   28.4520   28.4720 C.3    88  ASP88       0.1410
     77  CG         5.9110   27.4330   29.0580 C.2    88  ASP88       0.3668
     78  OD1        6.3450   26.2480   29.3160 O.co2  88  ASP88      -0.2456
     79  OD2        4.6910   27.8090   29.2330 O.co2  88  ASP88      -0.2456
     80  N          6.5190   24.0230   24.3180 N.3   112  THR112     -0.1203
     81  CA         6.0950   23.7490   25.7090 C.3   112  THR112      0.1994
     82  C          5.1530   24.8600   26.0990 C.2   112  THR112      0.2618
     83  O          5.3590   26.0410   25.7400 O.2   112  THR112     -0.2717
     84  CB         7.3110   23.7100   26.6970 C.3   112  THR112      0.1784
     85  OG1        6.8560   23.5330   28.0660 O.3   112  THR112     -0.2211
     86  CG2        8.1890   24.9570   26.5420 C.3   112  THR112      0.0376
     87  N          4.0860   24.4780   26.8200 N.am  113  ALA113     -0.1965
     88  CA         3.1440   25.4420   27.3570 C.3   113  ALA113      0.1728
     89  C          2.6400   25.0210   28.7470 C.2   113  ALA113      0.2616
     90  O          1.9830   23.9690   28.8890 O.2   113  ALA113     -0.2715
     91  CB         1.9680   25.6230   26.4130 C.3   113  ALA113      0.0334
     92  N          2.8300   25.9100   29.7280 N.am  114  GLY114     -0.1955
     93  CA         2.2440   25.7060   31.0690 C.3   114  GLY114      0.1869
     94  C          1.1120   26.6710   31.3240 C.2   114  GLY114      0.2309
     95  O         -0.0880   26.4620   30.9270 O.2   114  GLY114     -0.2863
     96  N         -2.6190   25.3120   32.2900 N.3   139  LEU139     -0.1245
     97  CA        -2.5360   23.8930   32.4900 C.3   139  LEU139      0.1561
     98  C         -3.2270   23.4160   33.7690 C.2   139  LEU139      0.2260
     99  O         -3.7960   22.3230   33.7770 O.2   139  LEU139     -0.2867
    100  CB        -1.0910   23.4280   32.4780 C.3   139  LEU139      0.0270
    101  CG        -0.7850   21.9420   32.2440 C.3   139  LEU139      0.0019
    102  CD1       -1.5690   21.3320   31.0640 C.3   139  LEU139      0.0001
    103  CD2        0.7470   21.7590   32.0790 C.3   139  LEU139      0.0001
    104  N         -6.9730   23.9520   33.5040 N.3   142  PHE142     -0.1241
    105  CA        -7.4190   23.3610   32.2290 C.3   142  PHE142      0.1605
    106  C         -8.0720   24.3650   31.2770 C.2   142  PHE142      0.2264
    107  O         -8.5410   23.9870   30.2300 O.2   142  PHE142     -0.2867
    108  CB        -8.3130   22.0990   32.4180 C.3   142  PHE142      0.0534
    109  CG        -7.6740   21.0110   33.2650 C.ar  142  PHE142     -0.0203
    110  CD1       -6.5260   20.3340   32.8230 C.ar  142  PHE142     -0.0042
    111  CD2       -8.2010   20.6740   34.5180 C.ar  142  PHE142     -0.0042
    112  CE1       -5.9230   19.3540   33.6120 C.ar  142  PHE142     -0.0003
    113  CE2       -7.6120   19.6830   35.3060 C.ar  142  PHE142     -0.0003
    114  CZ        -6.4640   19.0270   34.8530 C.ar  142  PHE142     -0.0000
    115  N         -6.9650   24.9810   26.8820 N.3   145  ILE145     -0.1231
    116  CA        -5.8620   24.0310   26.5150 C.3   145  ILE145      0.1692
    117  C         -5.9330   23.5870   25.0660 C.2   145  ILE145      0.2591
    118  O         -4.9410   23.6420   24.3160 O.2   145  ILE145     -0.2718
    119  CB        -5.8930   22.7850   27.4530 C.3   145  ILE145      0.0266
    120  CG1       -5.6090   23.2390   28.8620 C.3   145  ILE145      0.0019
    121  CG2       -4.7810   21.7990   27.1470 C.3   145  ILE145      0.0020
    122  CD1       -4.3510   24.0530   28.9310 C.3   145  ILE145      0.0001
    123  N         -7.1260   23.1720   24.6640 N.am  146  LYS146     -0.1980
    124  CA        -7.3260   22.6540   23.3430 C.3   146  LYS146      0.1596
    125  C         -7.1070   23.7180   22.2520 C.2   146  LYS146      0.2287
    126  O         -6.4790   23.4590   21.1960 O.2   146  LYS146     -0.2864
    127  CB        -8.6930   22.0100   23.2740 C.3   146  LYS146      0.0298
    128  CG        -8.8710   21.0570   22.1060 C.3   146  LYS146      0.0038
    129  CD       -10.0030   20.0970   22.4350 C.3   146  LYS146      0.0206
    130  CE       -10.8230   19.7000   21.2080 C.3   146  LYS146      0.1093
    131  NZ       -12.0230   18.9150   21.6340 N.3   146  LYS146     -0.1314
    132  N         -5.3330   26.4240   22.5660 N.3   148  ARG148     -0.1231
    133  CA        -3.9120   26.8000   22.5540 C.3   148  ARG148      0.1694
    134  C         -3.0450   25.7390   21.8160 C.2   148  ARG148      0.2591
    135  O         -2.1100   26.0830   21.0730 O.2   148  ARG148     -0.2718
    136  CB        -3.3980   27.0400   23.9640 C.3   148  ARG148      0.0321
    137  CG        -1.8560   27.2050   24.0120 C.3   148  ARG148      0.0489
    138  CD        -1.3370   27.5900   25.4280 C.3   148  ARG148      0.2205
    139  NE        -1.3790   26.4160   26.2790 N.pl3 148  ARG148     -0.0865
    140  CZ        -1.0680   26.4310   27.5700 C.cat 148  ARG148      0.5346
    141  NH1       -0.6860   27.5780   28.1410 N.pl3 148  ARG148      0.1354
    142  NH2       -1.0600   25.2770   28.2620 N.pl3 148  ARG148      0.1354
    143  N         -3.3730   24.4600   22.0320 N.am  149  GLN149     -0.1979
    144  CA        -2.7090   23.3620   21.3680 C.3   149  GLN149      0.1601
    145  C         -2.8460   23.5270   19.8350 C.2   149  GLN149      0.2287
    146  O         -1.8470   23.5080   19.0680 O.2   149  GLN149     -0.2864
    147  CB        -3.2830   22.0380   21.8570 C.3   149  GLN149      0.0394
    148  CG        -2.8460   20.9070   20.9480 C.3   149  GLN149      0.0908
    149  CD        -3.2270   19.5600   21.5010 C.2   149  GLN149      0.2608
    150  OE1       -4.2850   19.3880   22.1110 O.2   149  GLN149     -0.2717
    151  NE2       -2.3560   18.5910   21.2940 N.am  149  GLN149     -0.0878
@<TRIPOS>BOND
     1   146   145    2
     2    21    20    2
     3    20    19    1
     4   145   144    1
     5    22    19    1
     6    22    23    1
     7    19    18    1
     8   148   149    1
     9   148   147    1
    10   135   134    2
    11   126   125    2
    12   130   131    1
    13   130   129    1
    14   151   149   am
    15    28    29    1
    16   144   147    1
    17   144   143    1
    18   149   150    2
    19   134   143   am
    20   134   133    1
    21    23    24   ar
    22    23    25   ar
    23   128   129    1
    24   128   127    1
    25    17    16   ar
    26    17    15   ar
    27    24    26   ar
    28   125   124    1
    29    32    29    1
    30    32    33    1
    31    16    14   ar
    32    29    30    1
    33   133   132    1
    34   133   136    1
    35    10     9    2
    36    15    13   ar
    37     9     8    1
    38    25    27   ar
    39    14    12   ar
    40   127   124    1
    41   124   123    1
    42    26    27   ar
    43     1     2    1
    44    33    34   ar
    45    33    35   ar
    46    13    12   ar
    47     4     3    2
    48    30    31    2
    49    34    36   ar
    50    12    11    1
    51   136   137    1
    52   137   138    1
    53    35    37   ar
    54     3     7   am
    55     3     2    1
    56     8     7    1
    57     8    11    1
    58   118   117    2
    59    80    81    1
    60     2     5    1
    61   123   117   am
    62    36    38   ar
    63   117   116    1
    64    37    38   ar
    65   138   139    1
    66    81    82    1
    67    81    84    1
    68    83    82    2
    69     5     6    1
    70    82    87   am
    71   139   140    2
    72    91    88    1
    73   116   115    1
    74   116   119    1
    75    86    84    1
    76    84    85    1
    77    87    88    1
    78    75    74    2
    79    45    39    1
    80    45    44    1
    81   121   119    1
    82    88    89    1
    83    39    40    1
    84   119   120    1
    85   140   141    1
    86   140   142    1
    87    74    73    1
    88    44    43    1
    89    43    40    1
    90    76    73    1
    91    76    77    1
    92    40    41    1
    93    89    90    2
    94    89    92   am
    95   120   122    1
    96    73    72    1
    97    77    79   ar
    98    77    78   ar
    99    92    93    1
   100    41    42    2
   101   107   106    2
   102    95    94    2
   103   102   101    1
   104    93    94    1
   105   106   105    1
   106    67    69   ar
   107    67    65   ar
   108   103   101    1
   109    69    70   ar
   110   105   108    1
   111   105   104    1
   112   101   100    1
   113    96    97    1
   114   108   109    1
   115   100    97    1
   116    97    98    1
   117    64    65    1
   118    64    61    1
   119   110   109   ar
   120   110   112   ar
   121    63    62    2
   122    65    66   ar
   123    70    71    1
   124    70    68   ar
   125   109   111   ar
   126    62    61    1
   127   112   114   ar
   128    60    61    1
   129    60    57   am
   130    98    99    2
   131    66    68   ar
   132    49    48    2
   133   111   113   ar
   134    59    56    1
   135    56    57    1
   136    56    55    1
   137    57    58    2
   138   114   113   ar
   139    48    55   am
   140    48    47    1
   141    50    47    1
   142    50    51    1
   143    47    46    1
   144    52    51    1
   145    52    53    1
   146    54    53    1
