@<TRIPOS>MOLECULE
tmp/3wvjB00.pdb
 149 143 0 0 0
SMALL
GASTEIGER

@<TRIPOS>ATOM
      1  N        -35.3320   23.9550  -16.9910 N.3    27  ASN27      -0.1240
      2  CA       -35.5880   22.4900  -16.6530 C.3    27  ASN27       0.1653
      3  C        -36.6380   21.9810  -17.6490 C.2    27  ASN27       0.2266
      4  O        -36.6760   20.7460  -17.9730 O.2    27  ASN27      -0.2867
      5  CB       -36.0100   22.3220  -15.1920 C.3    27  ASN27       0.1155
      6  CG       -36.4230   20.8550  -14.8400 C.2    27  ASN27       0.2627
      7  OD1      -35.5850   19.9110  -14.8420 O.2    27  ASN27      -0.2716
      8  ND2      -37.7310   20.6430  -14.5690 N.am   27  ASN27      -0.0877
      9  N        -40.5770   21.0170  -18.7700 N.3    29  SER29      -0.1202
     10  CA       -41.6250   20.3370  -17.9940 C.3    29  SER29       0.2020
     11  C        -42.5470   21.4730  -17.5820 C.2    29  SER29       0.2619
     12  O        -42.7880   22.3270  -18.4090 O.2    29  SER29      -0.2717
     13  CB       -40.9970   19.5750  -16.8180 C.3    29  SER29       0.2103
     14  OG       -41.9300   18.8270  -16.0590 O.3    29  SER29      -0.2182
     15  N        -43.0620   21.4940  -16.3390 N.am   30  VAL30      -0.1965
     16  CA       -44.0720   22.5050  -15.8870 C.3    30  VAL30       0.1727
     17  C        -43.4740   23.7550  -15.1890 C.2    30  VAL30       0.2616
     18  O        -44.1970   24.5210  -14.4990 O.2    30  VAL30      -0.2715
     19  CB       -45.1320   21.8740  -14.9510 C.3    30  VAL30       0.0290
     20  CG1      -45.9350   20.8070  -15.7010 C.3    30  VAL30       0.0023
     21  CG2      -44.5100   21.3060  -13.6500 C.3    30  VAL30       0.0023
     22  N        -42.1670   23.9680  -15.3920 N.am   31  PHE31      -0.1974
     23  CA       -41.4520   25.0230  -14.6720 C.3    31  PHE31       0.1639
     24  C        -41.5250   26.2750  -15.5610 C.2    31  PHE31       0.2290
     25  O        -41.0180   26.2770  -16.7130 O.2    31  PHE31      -0.2864
     26  CB       -39.9770   24.5920  -14.4570 C.3    31  PHE31       0.0560
     27  CG       -39.7540   23.5080  -13.4050 C.ar   31  PHE31      -0.0200
     28  CD1      -38.9050   23.7380  -12.3310 C.ar   31  PHE31      -0.0042
     29  CD2      -40.2840   22.2710  -13.5480 C.ar   31  PHE31      -0.0042
     30  CE1      -38.6420   22.7550  -11.3890 C.ar   31  PHE31      -0.0003
     31  CE2      -40.0850   21.2890  -12.6070 C.ar   31  PHE31      -0.0003
     32  CZ       -39.2690   21.5240  -11.5240 C.ar   31  PHE31      -0.0000
     33  N        -34.9460    7.2000  -13.3600 N.3   105  TRP105     -0.1241
     34  CA       -35.3400    8.4410  -12.7040 C.3   105  TRP105      0.1605
     35  C        -35.8610    8.0860  -11.3130 C.2   105  TRP105      0.2264
     36  O        -37.0190    7.6310  -11.1210 O.2   105  TRP105     -0.2867
     37  CB       -36.3770    9.1060  -13.5400 C.3   105  TRP105      0.0550
     38  CG       -37.0370   10.2470  -12.8750 C.ar  105  TRP105      0.0003
     39  CD1      -36.7000   10.8360  -11.6630 C.ar  105  TRP105      0.0946
     40  CD2      -38.1850   10.9770  -13.3640 C.ar  105  TRP105      0.0152
     41  NE1      -37.5290   11.8700  -11.3870 N.ar  105  TRP105     -0.2442
     42  CE2      -38.4620   12.0050  -12.3810 C.ar  105  TRP105      0.0810
     43  CE3      -39.0030   10.9020  -14.5410 C.ar  105  TRP105      0.0012
     44  CZ2      -39.4980   12.9330  -12.5570 C.ar  105  TRP105      0.0191
     45  CZ3      -40.0580   11.8290  -14.6780 C.ar  105  TRP105      0.0001
     46  CH2      -40.2870   12.8230  -13.7230 C.ar  105  TRP105      0.0015
     47  N        -36.1020    9.5010   -7.5070 N.3   107  GLU107     -0.1245
     48  CA       -36.0100   10.8850   -6.8880 C.3   107  GLU107      0.1567
     49  C        -36.8080   10.8720   -5.5970 C.2   107  GLU107      0.2260
     50  O        -37.7970   10.1170   -5.5280 O.2   107  GLU107     -0.2867
     51  CB       -36.6950   11.8780   -7.8650 C.3   107  GLU107      0.0388
     52  CG       -37.1240   13.2440   -7.2540 C.3   107  GLU107      0.1160
     53  CD       -37.4800   14.3120   -8.3180 C.2   107  GLU107      0.3649
     54  OE1      -37.3170   14.0220   -9.5160 O.co2 107  GLU107     -0.2457
     55  OE2      -37.8790   15.4470   -7.9260 O.co2 107  GLU107     -0.2457
     56  N        -38.7950   13.7150   -2.8330 N.3   109  ASP109     -0.1239
     57  CA       -39.1430   15.1300   -2.7860 C.3   109  ASP109      0.1674
     58  C        -39.7210   15.6080   -1.4820 C.2   109  ASP109      0.2266
     59  O        -40.5890   14.9480   -0.9410 O.2   109  ASP109     -0.2867
     60  CB       -40.2000   15.4290   -3.8560 C.3   109  ASP109      0.1410
     61  CG       -39.6720   15.2190   -5.2370 C.2   109  ASP109      0.3668
     62  OD1      -38.5510   15.7680   -5.5080 O.co2 109  ASP109     -0.2456
     63  OD2      -40.3550   14.5230   -6.0320 O.co2 109  ASP109     -0.2456
     64  N        -41.5220   19.0880   -0.9300 N.3   111  GLU111     -0.1245
     65  CA       -41.9250   20.2700   -1.7090 C.3   111  GLU111      0.1567
     66  C        -42.9100   21.0940   -0.8970 C.2   111  GLU111      0.2260
     67  O        -43.8480   20.5420   -0.3760 O.2   111  GLU111     -0.2867
     68  CB       -42.5040   19.8140   -3.0330 C.3   111  GLU111      0.0388
     69  CG       -41.3790   19.4610   -3.9940 C.3   111  GLU111      0.1160
     70  CD       -41.9130   18.7910   -5.2400 C.2   111  GLU111      0.3649
     71  OE1      -42.5440   17.7000   -5.1420 O.co2 111  GLU111     -0.2457
     72  OE2      -41.7650   19.3850   -6.3220 O.co2 111  GLU111     -0.2457
     73  N        -45.4540   18.7310    1.1740 N.3   121  GLN121     -0.1245
     74  CA       -45.8350   17.5910    0.3410 C.3   121  GLN121      0.1566
     75  C        -44.6460   16.6790    0.1480 C.2   121  GLN121      0.2260
     76  O        -43.5250   17.1180   -0.1940 O.2   121  GLN121     -0.2867
     77  CB       -46.3510   18.0560   -1.0320 C.3   121  GLN121      0.0367
     78  CG       -46.8790   16.9420   -1.9340 C.3   121  GLN121      0.0905
     79  CD       -47.0410   17.3690   -3.3950 C.2   121  GLN121      0.2608
     80  OE1      -48.0560   17.9110   -3.7830 O.2   121  GLN121     -0.2717
     81  NE2      -46.0190   17.1110   -4.2170 N.am  121  GLN121     -0.0878
     82  N        -43.1100   13.2450   -1.9120 N.3   123  ASN123     -0.1240
     83  CA       -43.2480   12.4200   -3.1100 C.3   123  ASN123      0.1653
     84  C        -41.9820   11.6560   -3.3280 C.2   123  ASN123      0.2266
     85  O        -40.8860   11.9800   -2.7530 O.2   123  ASN123     -0.2867
     86  CB       -43.5970   13.3050   -4.3510 C.3   123  ASN123      0.1155
     87  CG       -44.2650   12.5310   -5.4990 C.2   123  ASN123      0.2627
     88  OD1      -44.8290   11.3940   -5.3170 O.2   123  ASN123     -0.2716
     89  ND2      -44.2480   13.1480   -6.7050 N.am  123  ASN123     -0.0877
     90  N        -40.1330    9.1310   -6.8560 N.3   125  TYR125     -0.1241
     91  CA       -40.2170    8.5800   -8.2000 C.3   125  TYR125      0.1605
     92  C        -39.2850    7.4150   -8.1840 C.2   125  TYR125      0.2264
     93  O        -38.1510    7.4910   -7.6300 O.2   125  TYR125     -0.2867
     94  CB       -39.7700    9.6270   -9.2630 C.3   125  TYR125      0.0534
     95  CG       -40.7490   10.7570   -9.5730 C.ar  125  TYR125     -0.0201
     96  CD1      -41.6120   10.6810  -10.6910 C.ar  125  TYR125     -0.0009
     97  CD2      -40.7900   11.9180   -8.7880 C.ar  125  TYR125     -0.0009
     98  CE1      -42.5140   11.7140  -10.9920 C.ar  125  TYR125      0.0417
     99  CE2      -41.6740   12.9790   -9.0750 C.ar  125  TYR125      0.0417
    100  CZ       -42.5540   12.8600  -10.1800 C.ar  125  TYR125      0.1957
    101  OH       -43.4300   13.8880  -10.4630 O.3   125  TYR125     -0.2866
    102  N        -46.3720    9.7400   -8.4560 N.3   131  GLY131     -0.1225
    103  CA       -47.7830    9.4780   -8.0580 C.3   131  GLY131      0.1811
    104  C        -47.9510    9.1630   -6.5520 C.2   131  GLY131      0.2280
    105  O        -49.0270    8.8330   -6.1330 O.2   131  GLY131     -0.2866
    106  N        -47.6820   11.4690   -4.1280 N.3   133  GLU133     -0.1245
    107  CA       -47.8660   12.7810   -3.4520 C.3   133  GLU133      0.1567
    108  C        -48.6700   12.6360   -2.1290 C.2   133  GLU133      0.2260
    109  O        -49.7800   12.1210   -2.1250 O.2   133  GLU133     -0.2867
    110  CB       -48.5260   13.8650   -4.3260 C.3   133  GLU133      0.0388
    111  CG       -47.6960   14.3890   -5.5060 C.3   133  GLU133      0.1160
    112  CD       -47.8120   13.4840   -6.7440 C.2   133  GLU133      0.3649
    113  OE1      -48.4960   12.4480   -6.6180 O.co2 133  GLU133     -0.2457
    114  OE2      -47.2440   13.7710   -7.8400 O.co2 133  GLU133     -0.2457
    115  N        -39.5460   27.6300   -7.7720 N.3   186  TRP186     -0.1241
    116  CA       -40.1000   27.8560   -9.1280 C.3   186  TRP186      0.1605
    117  C        -41.5860   28.0620   -9.1810 C.2   186  TRP186      0.2264
    118  O        -42.3300   27.5340   -8.3220 O.2   186  TRP186     -0.2867
    119  CB       -39.7180   26.6840  -10.0790 C.3   186  TRP186      0.0550
    120  CG       -40.0460   25.3320   -9.5130 C.ar  186  TRP186      0.0003
    121  CD1      -39.3310   24.5760   -8.5900 C.ar  186  TRP186      0.0946
    122  CD2      -41.2200   24.5390   -9.8370 C.ar  186  TRP186      0.0152
    123  NE1      -40.0060   23.3990   -8.2770 N.ar  186  TRP186     -0.2442
    124  CE2      -41.1190   23.2960   -9.0560 C.ar  186  TRP186      0.0810
    125  CE3      -42.3180   24.7320  -10.6700 C.ar  186  TRP186      0.0012
    126  CZ2      -42.1030   22.2880   -9.1370 C.ar  186  TRP186      0.0191
    127  CZ3      -43.2800   23.7220  -10.7570 C.ar  186  TRP186      0.0001
    128  CH2      -43.1640   22.5270  -10.0230 C.ar  186  TRP186      0.0015
    129  N        -50.2690   23.7390  -14.3530 N.3   191  VAL191     -0.1245
    130  CA       -50.5880   22.9390  -13.1900 C.3   191  VAL191      0.1561
    131  C        -51.3360   23.7280  -12.1210 C.2   191  VAL191      0.2260
    132  O        -51.0210   23.6220  -10.8990 O.2   191  VAL191     -0.2867
    133  CB       -49.3380   22.2940  -12.5680 C.3   191  VAL191      0.0252
    134  CG1      -48.8050   21.2510  -13.5140 C.3   191  VAL191      0.0019
    135  CG2      -48.2740   23.3360  -12.1470 C.3   191  VAL191      0.0019
    136  N        -52.8500   21.8840   -9.1100 N.3   194  TRP194     -0.1241
    137  CA       -51.8880   21.4860   -8.0910 C.3   194  TRP194      0.1605
    138  C        -51.3800   22.6550   -7.2750 C.2   194  TRP194      0.2264
    139  O        -51.4290   22.5900   -6.0480 O.2   194  TRP194     -0.2867
    140  CB       -50.8050   20.6520   -8.7500 C.3   194  TRP194      0.0550
    141  CG       -49.6700   20.2520   -7.8710 C.ar  194  TRP194      0.0003
    142  CD1      -49.7190   19.7620   -6.5690 C.ar  194  TRP194      0.0946
    143  CD2      -48.2580   20.2420   -8.2340 C.ar  194  TRP194      0.0152
    144  NE1      -48.4610   19.4610   -6.1100 N.ar  194  TRP194     -0.2442
    145  CE2      -47.5310   19.7180   -7.0540 C.ar  194  TRP194      0.0810
    146  CE3      -47.5300   20.6440   -9.3660 C.ar  194  TRP194      0.0012
    147  CZ2      -46.1380   19.5690   -7.0430 C.ar  194  TRP194      0.0191
    148  CZ3      -46.1300   20.5190   -9.3310 C.ar  194  TRP194      0.0001
    149  CH2      -45.4520   19.9760   -8.2000 C.ar  194  TRP194      0.0015
@<TRIPOS>BOND
     1     9    10    1
     2    12    11    2
     3    10    11    1
     4    10    13    1
     5     4     3    2
     6     3     2    1
     7    11    15   am
     8     1     2    1
     9    13    14    1
    10    25    24    2
    11     2     5    1
    12    15    16    1
    13    16    17    1
    14    16    19    1
    15    20    19    1
    16    24    23    1
    17    22    17   am
    18    22    23    1
    19     5     6    1
    20    17    18    2
    21    19    21    1
    22     7     6    2
    23     6     8   am
    24    45    43   ar
    25    45    46   ar
    26    23    26    1
    27    43    40   ar
    28    26    27    1
    29   129   130    1
    30    46    44   ar
    31    29    27   ar
    32    29    31   ar
    33    37    38    1
    34    37    34    1
    35   134   133    1
    36    27    28   ar
    37    40    38   ar
    38    40    42   ar
    39    33    34    1
    40   130   133    1
    41   130   131    1
    42    38    39   ar
    43    34    35    1
    44    31    32   ar
    45   133   135    1
    46    44    42   ar
    47    42    41   ar
    48    28    30   ar
    49   131   132    2
    50    39    41   ar
    51    32    30   ar
    52    35    36    2
    53    98    96   ar
    54    98   100   ar
    55   127   125   ar
    56   127   128   ar
    57    96    95   ar
    58   125   122   ar
    59   101   100    1
    60   100    99   ar
    61   119   120    1
    62   119   116    1
    63   128   126   ar
    64   122   120   ar
    65   122   124   ar
    66    95    94    1
    67    95    97   ar
    68    54    53   ar
    69   120   121   ar
    70   146   148   ar
    71   146   143   ar
    72   148   149   ar
    73    94    91    1
    74   117   116    1
    75   117   118    2
    76   126   124   ar
    77   116   115    1
    78   136   137    1
    79    99    97   ar
    80   124   123   ar
    81   140   137    1
    82   140   141    1
    83   121   123   ar
    84   102   103    1
    85    53    55   ar
    86    53    52    1
    87   143   141   ar
    88   143   145   ar
    89   149   147   ar
    90    91    92    1
    91    91    90    1
    92    92    93    2
    93   137   138    1
    94   103   104    1
    95   141   142   ar
    96    51    52    1
    97    51    48    1
    98   114   112   ar
    99    47    48    1
   100   138   139    2
   101   145   147   ar
   102   145   144   ar
   103    48    49    1
   104   112   113   ar
   105   112   111    1
   106    89    87   am
   107   142   144   ar
   108   104   105    2
   109    72    70   ar
   110    63    61   ar
   111    49    50    2
   112    62    61   ar
   113   111   110    1
   114    87    88    2
   115    87    86    1
   116    70    71   ar
   117    70    69    1
   118    61    60    1
   119    86    83    1
   120   110   107    1
   121    81    79   am
   122   106   107    1
   123    69    68    1
   124    60    57    1
   125    80    79    2
   126   107   108    1
   127    79    78    1
   128    84    83    1
   129    84    85    2
   130    83    82    1
   131    68    65    1
   132    56    57    1
   133    57    58    1
   134   108   109    2
   135    78    77    1
   136    65    64    1
   137    65    66    1
   138    58    59    2
   139    77    74    1
   140    66    67    2
   141    76    75    2
   142    75    74    1
   143    74    73    1
