@<TRIPOS>MOLECULE
tmp/3wvjB01.pdb
 142 138 0 0 0
SMALL
GASTEIGER

@<TRIPOS>ATOM
      1  N        -29.7590   27.0440  -17.0030 N.3    25  TRP25      -0.1241
      2  CA       -30.5140   26.3930  -18.1180 C.3    25  TRP25       0.1605
      3  C        -31.9530   26.3470  -17.6620 C.2    25  TRP25       0.2264
      4  O        -32.2250   26.8000  -16.5200 O.2    25  TRP25      -0.2867
      5  CB       -29.9980   24.9760  -18.3730 C.3    25  TRP25       0.0550
      6  CG       -29.8310   24.1170  -17.1280 C.ar   25  TRP25       0.0003
      7  CD1      -30.8170   23.5650  -16.3700 C.ar   25  TRP25       0.0946
      8  CD2      -28.5850   23.7170  -16.5000 C.ar   25  TRP25       0.0152
      9  NE1      -30.2900   22.8190  -15.3540 N.ar   25  TRP25      -0.2442
     10  CE2      -28.9640   22.8870  -15.3470 C.ar   25  TRP25       0.0810
     11  CE3      -27.2320   23.9090  -16.8080 C.ar   25  TRP25       0.0012
     12  CZ2      -28.0380   22.2730  -14.5290 C.ar   25  TRP25       0.0191
     13  CZ3      -26.2770   23.3540  -15.9170 C.ar   25  TRP25       0.0001
     14  CH2      -26.6720   22.5570  -14.8130 C.ar   25  TRP25       0.0015
     15  N        -35.3320   23.9550  -16.9910 N.3    27  ASN27      -0.1240
     16  CA       -35.5880   22.4900  -16.6530 C.3    27  ASN27       0.1653
     17  C        -36.6380   21.9810  -17.6490 C.2    27  ASN27       0.2266
     18  O        -36.6760   20.7460  -17.9730 O.2    27  ASN27      -0.2867
     19  CB       -36.0100   22.3220  -15.1920 C.3    27  ASN27       0.1155
     20  CG       -36.4230   20.8550  -14.8400 C.2    27  ASN27       0.2627
     21  OD1      -35.5850   19.9110  -14.8420 O.2    27  ASN27      -0.2716
     22  ND2      -37.7310   20.6430  -14.5690 N.am   27  ASN27      -0.0877
     23  N        -40.5770   21.0170  -18.7700 N.3    29  SER29      -0.1217
     24  CA       -41.6250   20.3370  -17.9940 C.3    29  SER29       0.1889
     25  C        -42.5470   21.4730  -17.5820 C.2    29  SER29       0.2288
     26  O        -42.7880   22.3270  -18.4090 O.2    29  SER29      -0.2866
     27  CB       -40.9970   19.5750  -16.8180 C.3    29  SER29       0.2089
     28  OG       -41.9300   18.8270  -16.0590 O.3    29  SER29      -0.2183
     29  N        -42.1670   23.9680  -15.3920 N.3    31  PHE31      -0.1241
     30  CA       -41.4520   25.0230  -14.6720 C.3    31  PHE31       0.1605
     31  C        -41.5250   26.2750  -15.5610 C.2    31  PHE31       0.2264
     32  O        -41.0180   26.2770  -16.7130 O.2    31  PHE31      -0.2867
     33  CB       -39.9770   24.5920  -14.4570 C.3    31  PHE31       0.0534
     34  CG       -39.7540   23.5080  -13.4050 C.ar   31  PHE31      -0.0203
     35  CD1      -38.9050   23.7380  -12.3310 C.ar   31  PHE31      -0.0042
     36  CD2      -40.2840   22.2710  -13.5480 C.ar   31  PHE31      -0.0042
     37  CE1      -38.6420   22.7550  -11.3890 C.ar   31  PHE31      -0.0003
     38  CE2      -40.0850   21.2890  -12.6070 C.ar   31  PHE31      -0.0003
     39  CZ       -39.2690   21.5240  -11.5240 C.ar   31  PHE31      -0.0000
     40  N        -33.3890   28.7920  -14.8720 N.3    35  TRP35      -0.1241
     41  CA       -32.4440   28.9260  -13.7470 C.3    35  TRP35       0.1605
     42  C        -31.2780   29.7970  -14.1880 C.2    35  TRP35       0.2264
     43  O        -30.6570   29.5340  -15.2530 O.2    35  TRP35      -0.2867
     44  CB       -31.8490   27.6290  -13.3480 C.3    35  TRP35       0.0550
     45  CG       -32.7870   26.4390  -13.1560 C.ar   35  TRP35       0.0003
     46  CD1      -32.6720   25.1690  -13.7180 C.ar   35  TRP35       0.0946
     47  CD2      -33.9460   26.3510  -12.2560 C.ar   35  TRP35       0.0152
     48  NE1      -33.6910   24.3510  -13.2630 N.ar   35  TRP35      -0.2442
     49  CE2      -34.4280   24.9790  -12.3320 C.ar   35  TRP35       0.0810
     50  CE3      -34.5800   27.2210  -11.3960 C.ar   35  TRP35       0.0012
     51  CZ2      -35.5510   24.5440  -11.5970 C.ar   35  TRP35       0.0191
     52  CZ3      -35.6850   26.7520  -10.6470 C.ar   35  TRP35       0.0001
     53  CH2      -36.1950   25.4740  -10.7960 C.ar   35  TRP35       0.0015
     54  N        -31.4210   26.9770   -8.9590 N.3    65  GLU65      -0.1245
     55  CA       -31.4610   25.5830   -8.5020 C.3    65  GLU65       0.1567
     56  C        -30.0260   25.2690   -8.1210 C.2    65  GLU65       0.2260
     57  O        -29.0930   25.6000   -8.9350 O.2    65  GLU65      -0.2867
     58  CB       -31.9610   24.6530   -9.6060 C.3    65  GLU65       0.0388
     59  CG       -31.6850   23.1880   -9.2520 C.3    65  GLU65       0.1160
     60  CD       -32.1350   22.2850  -10.3940 C.2    65  GLU65       0.3649
     61  OE1      -31.2890   21.7550  -11.1980 O.co2  65  GLU65      -0.2457
     62  OE2      -33.3610   22.1520  -10.4540 O.co2  65  GLU65      -0.2457
     63  N        -27.1120   22.4700   -6.6300 N.3    67  ARG67      -0.1301
     64  CA       -27.0680   20.9550   -6.7700 C.3    67  ARG67       0.1248
     65  C        -25.6990   20.4520   -6.3490 C.3    67  ARG67       0.2009
     66  O        -24.6300   21.0670   -6.7210 O.3    67  ARG67      -0.2188
     67  CB       -27.2650   20.4630   -8.2330 C.3    67  ARG67       0.0254
     68  CG       -27.6910   21.3820   -9.3160 C.3    67  ARG67       0.0485
     69  CD       -27.1410   20.9130  -10.7040 C.3    67  ARG67       0.2205
     70  NE       -28.3020   20.6200  -11.3130 N.pl3  67  ARG67      -0.0865
     71  CZ       -28.7060   19.5580  -11.9770 C.cat  67  ARG67       0.5346
     72  NH1      -27.9220   18.5930  -12.5740 N.pl3  67  ARG67       0.1354
     73  NH2      -29.9810   19.6030  -12.1450 N.pl3  67  ARG67       0.1354
     74  N        -34.5500   18.0340   -2.3840 N.3    94  PHE94      -0.1241
     75  CA       -34.8770   16.7240   -2.9510 C.3    94  PHE94       0.1605
     76  C        -33.6250   16.0010   -3.3770 C.2    94  PHE94       0.2264
     77  O        -32.5250   16.6060   -3.4070 O.2    94  PHE94      -0.2867
     78  CB       -35.9230   16.8370   -4.0770 C.3    94  PHE94       0.0534
     79  CG       -35.4530   17.6410   -5.2960 C.ar   94  PHE94      -0.0203
     80  CD1      -34.8380   17.0320   -6.4050 C.ar   94  PHE94      -0.0042
     81  CD2      -35.4890   19.0770   -5.2610 C.ar   94  PHE94      -0.0042
     82  CE1      -34.4150   17.8010   -7.5160 C.ar   94  PHE94      -0.0003
     83  CE2      -35.0940   19.8300   -6.3830 C.ar   94  PHE94      -0.0003
     84  CZ       -34.5240   19.2160   -7.4700 C.ar   94  PHE94      -0.0000
     85  N        -32.1410   13.7030   -6.6660 N.3    96  TYR96      -0.1241
     86  CA       -32.5020   13.3760   -8.0150 C.3    96  TYR96       0.1605
     87  C        -31.3430   12.7290   -8.7420 C.2    96  TYR96       0.2264
     88  O        -30.1960   13.2060   -8.7120 O.2    96  TYR96      -0.2867
     89  CB       -33.0160   14.5890   -8.8200 C.3    96  TYR96       0.0534
     90  CG       -33.1440   14.2630  -10.2840 C.ar   96  TYR96      -0.0201
     91  CD1      -34.3230   13.6980  -10.7500 C.ar   96  TYR96      -0.0009
     92  CD2      -32.0770   14.4440  -11.1940 C.ar   96  TYR96      -0.0009
     93  CE1      -34.4770   13.3360  -12.1080 C.ar   96  TYR96       0.0417
     94  CE2      -32.2170   14.0580  -12.5470 C.ar   96  TYR96       0.0417
     95  CZ       -33.4330   13.4840  -12.9830 C.ar   96  TYR96       0.1957
     96  OH       -33.6820   13.0780  -14.3210 O.3    96  TYR96      -0.2866
     97  N        -31.7650   10.0080  -16.3570 N.3    99  PRO99      -0.2116
     98  CA       -30.9700    9.5560  -17.5340 C.3    99  PRO99       0.1372
     99  C        -29.7810   10.4580  -17.8950 C.2    99  PRO99       0.2244
    100  O        -28.8840   10.0630  -18.6350 O.2    99  PRO99      -0.2868
    101  CB       -32.0100    9.4200  -18.6720 C.3    99  PRO99       0.0268
    102  CG       -33.2810    9.9840  -18.1290 C.3    99  PRO99       0.0207
    103  CD       -33.2080    9.9340  -16.5950 C.3    99  PRO99       0.0892
    104  N        -34.9460    7.2000  -13.3600 N.3   105  TRP105     -0.1241
    105  CA       -35.3400    8.4410  -12.7040 C.3   105  TRP105      0.1605
    106  C        -35.8610    8.0860  -11.3130 C.2   105  TRP105      0.2264
    107  O        -37.0190    7.6310  -11.1210 O.2   105  TRP105     -0.2867
    108  CB       -36.3770    9.1060  -13.5400 C.3   105  TRP105      0.0550
    109  CG       -37.0370   10.2470  -12.8750 C.ar  105  TRP105      0.0003
    110  CD1      -36.7000   10.8360  -11.6630 C.ar  105  TRP105      0.0946
    111  CD2      -38.1850   10.9770  -13.3640 C.ar  105  TRP105      0.0152
    112  NE1      -37.5290   11.8700  -11.3870 N.ar  105  TRP105     -0.2442
    113  CE2      -38.4620   12.0050  -12.3810 C.ar  105  TRP105      0.0810
    114  CE3      -39.0030   10.9020  -14.5410 C.ar  105  TRP105      0.0012
    115  CZ2      -39.4980   12.9330  -12.5570 C.ar  105  TRP105      0.0191
    116  CZ3      -40.0580   11.8290  -14.6780 C.ar  105  TRP105      0.0001
    117  CH2      -40.2870   12.8230  -13.7230 C.ar  105  TRP105      0.0015
    118  N        -36.1020    9.5010   -7.5070 N.3   107  GLU107     -0.1245
    119  CA       -36.0100   10.8850   -6.8880 C.3   107  GLU107      0.1567
    120  C        -36.8080   10.8720   -5.5970 C.2   107  GLU107      0.2260
    121  O        -37.7970   10.1170   -5.5280 O.2   107  GLU107     -0.2867
    122  CB       -36.6950   11.8780   -7.8650 C.3   107  GLU107      0.0388
    123  CG       -37.1240   13.2440   -7.2540 C.3   107  GLU107      0.1160
    124  CD       -37.4800   14.3120   -8.3180 C.2   107  GLU107      0.3649
    125  OE1      -37.3170   14.0220   -9.5160 O.co2 107  GLU107     -0.2457
    126  OE2      -37.8790   15.4470   -7.9260 O.co2 107  GLU107     -0.2457
    127  N        -30.4230   18.4810   -4.2250 N.3   182  MET182     -0.1245
    128  CA       -30.7370   19.7010   -4.9790 C.3   182  MET182      0.1570
    129  C        -31.8500   20.4420   -4.2040 C.2   182  MET182      0.2261
    130  O        -32.6200   19.8060   -3.4710 O.2   182  MET182     -0.2867
    131  CB       -31.2990   19.3520   -6.3890 C.3   182  MET182      0.0387
    132  CG       -30.5400   18.2570   -7.1370 C.3   182  MET182      0.0595
    133  SD       -31.0370   18.4290   -8.8560 S.3   182  MET182     -0.1393
    134  CE       -29.8970   17.3320   -9.7270 C.3   182  MET182      0.0692
    135  N        -34.5240   23.9580   -5.1940 N.3   184  ASN184     -0.1240
    136  CA       -34.8940   24.9090   -6.2470 C.3   184  ASN184      0.1653
    137  C        -36.1850   25.5490   -5.7370 C.2   184  ASN184      0.2266
    138  O        -36.6880   25.1440   -4.6650 O.2   184  ASN184     -0.2867
    139  CB       -34.9360   24.2510   -7.7070 C.3   184  ASN184      0.1155
    140  CG       -35.9900   23.1180   -7.8980 C.2   184  ASN184      0.2627
    141  OD1      -36.9710   23.0100   -7.1670 O.2   184  ASN184     -0.2716
    142  ND2      -35.7890   22.2690   -8.9670 N.am  184  ASN184     -0.0877
@<TRIPOS>BOND
     1    23    24    1
     2   101   102    1
     3   101    98    1
     4   100    99    2
     5    26    25    2
     6     5     2    1
     7     5     6    1
     8   102   103    1
     9     2     3    1
    10     2     1    1
    11    24    25    1
    12    24    27    1
    13    18    17    2
    14    99    98    1
    15     3     4    2
    16    17    16    1
    17    98    97    1
    18     6     8   ar
    19     6     7   ar
    20    15    16    1
    21    27    28    1
    22    11     8   ar
    23    11    13   ar
    24    32    31    2
    25    16    19    1
    26   103    97    1
    27     8    10   ar
    28     7     9   ar
    29    13    14   ar
    30    31    30    1
    31    29    30    1
    32     9    10   ar
    33    10    12   ar
    34    43    42    2
    35    19    20    1
    36    40    41    1
    37    21    20    2
    38    20    22   am
    39    14    12   ar
    40   116   114   ar
    41   116   117   ar
    42    30    33    1
    43   114   111   ar
    44    33    34    1
    45    96    95    1
    46    42    41    1
    47    41    44    1
    48   117   115   ar
    49    46    48   ar
    50    46    45   ar
    51    36    34   ar
    52    36    38   ar
    53   108   109    1
    54   108   105    1
    55    34    35   ar
    56   111   109   ar
    57   111   113   ar
    58   104   105    1
    59    44    45    1
    60    48    49   ar
    61    45    47   ar
    62    95    94   ar
    63    95    93   ar
    64   109   110   ar
    65   105   106    1
    66    38    39   ar
    67    72    71    1
    68   115   113   ar
    69    94    92   ar
    70   113   112   ar
    71    49    47   ar
    72    49    51   ar
    73    35    37   ar
    74    47    50   ar
    75    73    71    1
    76    93    91   ar
    77    71    70    2
    78   110   112   ar
    79    51    53   ar
    80    39    37   ar
    81    50    52   ar
    82    70    69    1
    83   106   107    2
    84    61    60   ar
    85    92    90   ar
    86    53    52   ar
    87    91    90   ar
    88    69    68    1
    89    62    60   ar
    90    60    59    1
    91    90    89    1
    92   134   133    1
    93    58    59    1
    94    58    55    1
    95   125   124   ar
    96    68    67    1
    97   142   140   am
    98    54    55    1
    99    57    56    2
   100   133   132    1
   101    89    86    1
   102    87    88    2
   103    87    86    1
   104    55    56    1
   105   124   126   ar
   106   124   123    1
   107    67    64    1
   108    86    85    1
   109   140   139    1
   110   140   141    2
   111   122   123    1
   112   122   119    1
   113   139   136    1
   114    82    84   ar
   115    82    80   ar
   116   118   119    1
   117    84    83   ar
   118   132   131    1
   119   119   120    1
   120    64    63    1
   121    64    65    1
   122    66    65    1
   123    80    79   ar
   124   131   128    1
   125    83    81   ar
   126   136   137    1
   127   136   135    1
   128   137   138    2
   129   120   121    2
   130    79    81   ar
   131    79    78    1
   132   128   127    1
   133   128   129    1
   134   129   130    2
   135    78    75    1
   136    77    76    2
   137    76    75    1
   138    75    74    1
