@<TRIPOS>MOLECULE
tmp/3wvrC00.pdb
 173 164 0 0 0
SMALL
GASTEIGER

@<TRIPOS>ATOM
      1  N         48.6650   45.6750   -6.3540 N.3   156  PRO156     -0.2116
      2  CA        47.5050   46.5390   -6.5950 C.3   156  PRO156      0.1372
      3  C         46.4270   45.8050   -7.3680 C.2   156  PRO156      0.2244
      4  O         46.7570   44.9090   -8.1530 O.2   156  PRO156     -0.2868
      5  CB        48.0840   47.6900   -7.4200 C.3   156  PRO156      0.0268
      6  CG        49.5690   47.7020   -7.0700 C.3   156  PRO156      0.0207
      7  CD        49.9180   46.2590   -6.8620 C.3   156  PRO156      0.0892
      8  N         47.2220   53.1510  -13.4630 N.3   182  ILE182     -0.1245
      9  CA        48.4910   53.1410  -14.2030 C.3   182  ILE182      0.1561
     10  C         48.5400   51.9960  -15.2310 C.2   182  ILE182      0.2260
     11  O         48.3030   50.8320  -14.8940 O.2   182  ILE182     -0.2867
     12  CB        49.7060   53.0590  -13.2330 C.3   182  ILE182      0.0252
     13  CG1       51.0260   53.1870  -13.9880 C.3   182  ILE182      0.0019
     14  CG2       49.6850   51.7910  -12.3760 C.3   182  ILE182      0.0019
     15  CD1       52.1990   53.5420  -13.0800 C.3   182  ILE182      0.0001
     16  N         50.9520   49.8900  -17.8920 N.3   184  LYS184     -0.1245
     17  CA        52.3640   49.5260  -17.9020 C.3   184  LYS184      0.1561
     18  C         52.6740   48.6440  -19.0980 C.2   184  LYS184      0.2260
     19  O         52.0500   47.6020  -19.2660 O.2   184  LYS184     -0.2867
     20  CB        52.7390   48.7780  -16.6240 C.3   184  LYS184      0.0271
     21  CG        52.6100   49.5460  -15.3220 C.3   184  LYS184      0.0035
     22  CD        52.9630   48.6040  -14.1710 C.3   184  LYS184      0.0206
     23  CE        52.8500   49.2500  -12.8290 C.3   184  LYS184      0.1093
     24  NZ        53.0930   48.2380  -11.7600 N.3   184  LYS184     -0.1314
     25  N         61.7700   50.9690  -16.8260 N.3   190  GLY190     -0.1210
     26  CA        61.4470   52.1090  -15.9950 C.3   190  GLY190      0.1956
     27  C         60.1060   52.7770  -16.2690 C.2   190  GLY190      0.2612
     28  O         59.2360   52.2360  -16.9630 O.2   190  GLY190     -0.2717
     29  N         59.9620   53.9760  -15.7150 N.am  191  SER191     -0.1952
     30  CA        58.7470   54.7700  -15.7910 C.3   191  SER191      0.1924
     31  C         58.4100   55.2590  -17.2110 C.2   191  SER191      0.2314
     32  O         57.3030   55.7470  -17.4580 O.2   191  SER191     -0.2863
     33  CB        58.8720   55.9680  -14.8370 C.3   191  SER191      0.2116
     34  OG        59.9620   56.7970  -15.1930 O.3   191  SER191     -0.2180
     35  N         55.2870   53.5780  -18.5670 N.3   194  ASN194     -0.1240
     36  CA        54.0480   53.6860  -17.8100 C.3   194  ASN194      0.1653
     37  C         53.3590   55.0130  -18.0230 C.2   194  ASN194      0.2266
     38  O         54.0200   56.0140  -18.2620 O.2   194  ASN194     -0.2867
     39  CB        54.3150   53.5030  -16.3190 C.3   194  ASN194      0.1155
     40  CG        55.1330   52.2790  -16.0340 C.2   194  ASN194      0.2627
     41  OD1       55.0430   51.3020  -16.7670 O.2   194  ASN194     -0.2716
     42  ND2       55.9490   52.3220  -14.9710 N.am  194  ASN194     -0.0877
     43  N         54.8030   59.6900  -10.0760 N.3   206  ARG206     -0.1231
     44  CA        55.8050   58.8030   -9.5020 C.3   206  ARG206      0.1694
     45  C         55.6930   57.4450  -10.1880 C.2   206  ARG206      0.2592
     46  O         54.7390   56.6970   -9.9500 O.2   206  ARG206     -0.2718
     47  CB        55.6400   58.6650   -7.9880 C.3   206  ARG206      0.0321
     48  CG        55.7200   60.0000   -7.2170 C.3   206  ARG206      0.0489
     49  CD        55.8070   59.7630   -5.7110 C.3   206  ARG206      0.2205
     50  NE        56.3530   60.9140   -4.9930 N.pl3 206  ARG206     -0.0865
     51  CZ        56.4710   60.9760   -3.6680 C.cat 206  ARG206      0.5346
     52  NH1       56.0740   59.9480   -2.9260 N.pl3 206  ARG206      0.1354
     53  NH2       56.9790   62.0600   -3.0800 N.pl3 206  ARG206      0.1354
     54  N         56.6610   57.1530  -11.0580 N.am  207  GLY207     -0.1957
     55  CA        56.7120   55.8810  -11.7520 C.3   207  GLY207      0.1869
     56  C         56.0680   55.8460  -13.1250 C.2   207  GLY207      0.2309
     57  O         55.8640   54.7660  -13.6850 O.2   207  GLY207     -0.2863
     58  N         46.5080   48.6190  -13.6300 N.3   242  GLU242     -0.1231
     59  CA        46.3130   48.4660  -12.1960 C.3   242  GLU242      0.1699
     60  C         46.0520   49.7630  -11.4530 C.2   242  GLU242      0.2592
     61  O         46.2210   50.8680  -11.9930 O.2   242  GLU242     -0.2718
     62  CB        47.5150   47.7450  -11.5740 C.3   242  GLU242      0.0402
     63  CG        48.8160   48.4440  -11.7000 C.3   242  GLU242      0.1161
     64  CD        49.9720   47.6240  -11.1030 C.2   242  GLU242      0.3649
     65  OE1       50.0110   46.3850  -11.3200 O.co2 242  GLU242     -0.2457
     66  OE2       50.8380   48.2190  -10.4090 O.co2 242  GLU242     -0.2457
     67  N         45.6180   49.6240  -10.2060 N.am  243  ARG243     -0.1966
     68  CA        45.2840   50.7990   -9.4160 C.3   243  ARG243      0.1729
     69  C         46.5660   51.5330   -9.0100 C.2   243  ARG243      0.2616
     70  O         47.5110   50.9290   -8.5090 O.2   243  ARG243     -0.2715
     71  CB        44.4590   50.4200   -8.1850 C.3   243  ARG243      0.0348
     72  CG        43.9810   51.6330   -7.3990 C.3   243  ARG243      0.0492
     73  CD        43.2520   51.2490   -6.1380 C.3   243  ARG243      0.2205
     74  NE        41.9280   50.6990   -6.4240 N.pl3 243  ARG243     -0.0865
     75  CZ        41.5210   49.5010   -6.0200 C.cat 243  ARG243      0.5346
     76  NH1       42.3400   48.7280   -5.3130 N.pl3 243  ARG243      0.1354
     77  NH2       40.3030   49.0750   -6.3200 N.pl3 243  ARG243      0.1354
     78  N         46.5900   52.8350   -9.2600 N.am  244  TYR244     -0.1960
     79  CA        47.7180   53.6690   -8.9040 C.3   244  TYR244      0.1771
     80  C         47.5390   54.2770   -7.5140 C.2   244  TYR244      0.2619
     81  O         46.4530   54.7420   -7.1670 O.2   244  TYR244     -0.2715
     82  CB        47.8920   54.7640   -9.9490 C.3   244  TYR244      0.0574
     83  CG        49.1250   55.6220   -9.7320 C.ar  244  TYR244     -0.0198
     84  CD1       50.3970   55.1200   -9.9880 C.ar  244  TYR244     -0.0009
     85  CD2       49.0090   56.9370   -9.2850 C.ar  244  TYR244     -0.0009
     86  CE1       51.5310   55.9130   -9.7900 C.ar  244  TYR244      0.0417
     87  CE2       50.1270   57.7330   -9.0880 C.ar  244  TYR244      0.0417
     88  CZ        51.3820   57.2150   -9.3410 C.ar  244  TYR244      0.1957
     89  OH        52.4870   58.0080   -9.1500 O.3   244  TYR244     -0.2866
     90  N         48.6000   54.2700   -6.7170 N.am  245  HIS245     -0.1973
     91  CA        48.5400   54.8430   -5.3790 C.3   245  HIS245      0.1656
     92  C         49.4300   56.0680   -5.2450 C.2   245  HIS245      0.2291
     93  O         50.6210   55.9420   -4.9940 O.2   245  HIS245     -0.2864
     94  CB        48.9390   53.8020   -4.3380 C.3   245  HIS245      0.0771
     95  CG        48.0610   52.5920   -4.3290 C.ar  245  HIS245      0.0820
     96  ND1       47.1160   52.3660   -3.3500 N.ar  245  HIS245     -0.2267
     97  CD2       47.9800   51.5420   -5.1810 C.ar  245  HIS245      0.1154
     98  CE1       46.4930   51.2280   -3.5980 C.ar  245  HIS245      0.1986
     99  NE2       46.9980   50.7090   -4.7030 N.ar  245  HIS245     -0.2212
    100  N         52.8650   57.5380   -2.6870 N.3   248  SER248     -0.1217
    101  CA        53.4740   56.3550   -2.0900 C.3   248  SER248      0.1889
    102  C         55.0030   56.4760   -2.0940 C.2   248  SER248      0.2288
    103  O         55.5810   57.1420   -2.9570 O.2   248  SER248     -0.2866
    104  CB        53.0340   55.0850   -2.8330 C.3   248  SER248      0.2089
    105  OG        51.6410   54.8330   -2.6690 O.3   248  SER248     -0.2183
    106  N         58.6580   54.2940   -2.4240 N.3   250  ALA250     -0.1245
    107  CA        59.0650   53.1240   -3.2080 C.3   250  ALA250      0.1562
    108  C         60.2360   52.3760   -2.5810 C.2   250  ALA250      0.2260
    109  O         61.2990   52.9400   -2.3430 O.2   250  ALA250     -0.2867
    110  CB        59.4190   53.5390   -4.6320 C.3   250  ALA250      0.0290
    111  N         61.9810   59.8930   -3.4540 N.3   271  TYR271     -0.1241
    112  CA        61.4530   60.9990   -4.2440 C.3   271  TYR271      0.1605
    113  C         61.5340   62.2770   -3.4290 C.2   271  TYR271      0.2264
    114  O         60.7180   62.4930   -2.5370 O.2   271  TYR271     -0.2867
    115  CB        59.9970   60.7510   -4.6510 C.3   271  TYR271      0.0534
    116  CG        59.8040   59.7250   -5.7400 C.ar  271  TYR271     -0.0201
    117  CD1       59.6460   58.3840   -5.4340 C.ar  271  TYR271     -0.0009
    118  CD2       59.7610   60.1060   -7.0800 C.ar  271  TYR271     -0.0009
    119  CE1       59.4610   57.4350   -6.4380 C.ar  271  TYR271      0.0417
    120  CE2       59.5750   59.1750   -8.0880 C.ar  271  TYR271      0.0417
    121  CZ        59.4250   57.8390   -7.7650 C.ar  271  TYR271      0.1957
    122  OH        59.2400   56.9080   -8.7680 O.3   271  TYR271     -0.2866
    123  N         63.1860   60.9470   -8.2350 N.3   275  PRO275     -0.2116
    124  CA        63.8980   59.7350   -7.7950 C.3   275  PRO275      0.1372
    125  C         65.4150   59.7590   -8.0220 C.2   275  PRO275      0.2244
    126  O         65.9500   58.8520   -8.6820 O.2   275  PRO275     -0.2868
    127  CB        63.2570   58.6250   -8.6500 C.3   275  PRO275      0.0268
    128  CG        62.9290   59.3120   -9.9290 C.3   275  PRO275      0.0207
    129  CD        62.4950   60.7230   -9.5250 C.3   275  PRO275      0.0892
    130  N         60.2150   45.1590   -6.5710 N.3   315  ASP315     -0.1225
    131  CA        59.8120   46.5090   -6.2290 C.3   315  ASP315      0.1805
    132  C         58.4230   46.5400   -5.6300 C.2   315  ASP315      0.2598
    133  O         57.5120   45.8310   -6.0740 O.2   315  ASP315     -0.2718
    134  CB        59.8590   47.4130   -7.4510 C.3   315  ASP315      0.1424
    135  CG        61.2530   47.5330   -8.0230 C.2   315  ASP315      0.3668
    136  OD1       62.2020   47.0390   -7.3780 O.co2 315  ASP315     -0.2456
    137  OD2       61.4010   48.1210   -9.1150 O.co2 315  ASP315     -0.2456
    138  N         58.2650   47.3870   -4.6230 N.am  316  ALA316     -0.1966
    139  CA        57.0180   47.5010   -3.8880 C.3   316  ALA316      0.1728
    140  C         56.7490   48.9560   -3.5620 C.2   316  ALA316      0.2616
    141  O         57.6800   49.7610   -3.5770 O.2   316  ALA316     -0.2715
    142  CB        57.0920   46.6780   -2.6060 C.3   316  ALA316      0.0334
    143  N         55.4940   49.3050   -3.2560 N.am  317  VAL317     -0.1977
    144  CA        55.2390   50.6120   -2.6790 C.3   317  VAL317      0.1596
    145  C         54.6500   50.4800   -1.2820 C.2   317  VAL317      0.2287
    146  O         54.0790   49.4550   -0.9250 O.2   317  VAL317     -0.2864
    147  CB        54.3120   51.4740   -3.5510 C.3   317  VAL317      0.0276
    148  CG1       54.9560   51.7050   -4.9020 C.3   317  VAL317      0.0022
    149  CG2       52.9040   50.8580   -3.6740 C.3   317  VAL317      0.0022
    150  N         54.8560   45.7070   -7.0850 N.3   327  THR327     -0.1203
    151  CA        54.4240   46.3020   -8.3470 C.3   327  THR327      0.1994
    152  C         55.1600   45.7570   -9.5770 C.2   327  THR327      0.2617
    153  O         54.6310   45.8090  -10.6860 O.2   327  THR327     -0.2717
    154  CB        54.6030   47.8300   -8.3100 C.3   327  THR327      0.1784
    155  OG1       55.9880   48.1390   -8.1560 O.3   327  THR327     -0.2211
    156  CG2       53.8290   48.4460   -7.1310 C.3   327  THR327      0.0376
    157  N         56.3880   45.2720   -9.3890 N.am  328  GLU328     -0.1979
    158  CA        57.1670   44.7230  -10.5020 C.3   328  GLU328      0.1602
    159  C         58.2960   43.8790   -9.9610 C.2   328  GLU328      0.2287
    160  O         58.6530   44.0100   -8.7870 O.2   328  GLU328     -0.2864
    161  CB        57.7350   45.8340  -11.3730 C.3   328  GLU328      0.0415
    162  CG        58.0580   47.0680  -10.5630 C.3   328  GLU328      0.1163
    163  CD        58.9110   48.0810  -11.3120 C.2   328  GLU328      0.3649
    164  OE1       59.4330   47.7470  -12.4020 O.co2 328  GLU328     -0.2457
    165  OE2       59.0900   49.2040  -10.7800 O.co2 328  GLU328     -0.2457
    166  N         62.4330   42.6730  -11.2240 N.3   330  ASN330     -0.1240
    167  CA        63.5040   43.0540  -12.1270 C.3   330  ASN330      0.1653
    168  C         64.6170   42.0080  -12.0340 C.2   330  ASN330      0.2266
    169  O         65.3640   41.9840  -11.0660 O.2   330  ASN330     -0.2867
    170  CB        64.0460   44.4590  -11.7860 C.3   330  ASN330      0.1155
    171  CG        62.9420   45.5270  -11.7130 C.2   330  ASN330      0.2627
    172  OD1       62.6800   46.2430  -12.6890 O.2   330  ASN330     -0.2716
    173  ND2       62.3080   45.6460  -10.5440 N.am  330  ASN330     -0.0877
@<TRIPOS>BOND
     1    19    18    2
     2    18    17    1
     3    35    36    1
     4    38    37    2
     5    37    36    1
     6    17    16    1
     7    17    20    1
     8    36    39    1
     9    32    31    2
    10    31    30    1
    11    28    27    2
    12    25    26    1
    13    41    40    2
    14    20    21    1
    15    39    40    1
    16    27    26    1
    17    27    29   am
    18    40    42   am
    19    30    29    1
    20    30    33    1
    21    21    22    1
    22    10    11    2
    23    10     9    1
    24    34    33    1
    25     9     8    1
    26     9    12    1
    27    22    23    1
    28    13    12    1
    29    13    15    1
    30    57    56    2
    31    58    59    1
    32    12    14    1
    33    56    55    1
    34    23    24    1
    35   172   171    2
    36   164   163   ar
    37    59    62    1
    38    59    60    1
    39   167   168    1
    40   167   170    1
    41   167   166    1
    42   168   169    2
    43    61    60    2
    44   170   171    1
    45    55    54    1
    46   171   173   am
    47    63    62    1
    48    63    64    1
    49    60    67   am
    50   161   162    1
    51   161   158    1
    52    65    64   ar
    53   163   165   ar
    54   163   162    1
    55    64    66   ar
    56    54    45   am
    57   153   152    2
    58   158   159    1
    59   158   157    1
    60    67    68    1
    61    45    46    2
    62    45    44    1
    63    43    44    1
    64    84    86   ar
    65    84    83   ar
    66   159   160    2
    67    82    83    1
    68    82    79    1
    69   128   129    1
    70   128   127    1
    71    86    88   ar
    72    83    85   ar
    73   152   157   am
    74   152   151    1
    75   129   123    1
    76    44    47    1
    77    68    69    1
    78    68    71    1
    79    88    89    1
    80    88    87   ar
    81    85    87   ar
    82    78    69   am
    83    78    79    1
    84   137   135   ar
    85    69    70    2
    86    79    80    1
    87   122   121    1
    88   126   125    2
    89   127   124    1
    90   151   154    1
    91   151   150    1
    92   154   155    1
    93   154   156    1
    94   123   124    1
    95    71    72    1
    96     4     3    2
    97   120   121   ar
    98   120   118   ar
    99   135   134    1
   100   135   136   ar
   101   125   124    1
   102    47    48    1
   103   121   119   ar
   104    80    81    2
   105    80    90   am
   106   134   131    1
   107     5     6    1
   108     5     2    1
   109    72    73    1
   110     3     2    1
   111    48    49    1
   112   118   116   ar
   113     6     7    1
   114     7     1    1
   115    90    91    1
   116     2     1    1
   117   130   131    1
   118   119   117   ar
   119    74    73    1
   120    74    75    2
   121    77    75    1
   122   131   132    1
   123   133   132    2
   124    75    76    1
   125   116   117   ar
   126   116   115    1
   127    49    50    1
   128   132   138   am
   129    91    92    1
   130    91    94    1
   131    92    93    2
   132    97    99   ar
   133    97    95   ar
   134    50    51    2
   135   148   147    1
   136    99    98   ar
   137   115   112    1
   138   110   107    1
   139   138   139    1
   140    94    95    1
   141    95    96   ar
   142   112   111    1
   143   112   113    1
   144   139   140    1
   145   139   142    1
   146   149   147    1
   147    51    53    1
   148    51    52    1
   149    98    96   ar
   150   141   140    2
   151   140   143   am
   152   147   144    1
   153   113   114    2
   154   143   144    1
   155   107   108    1
   156   107   106    1
   157   103   102    2
   158   104   105    1
   159   104   101    1
   160   100   101    1
   161   144   145    1
   162   108   109    2
   163   102   101    1
   164   145   146    2
