@<TRIPOS>MOLECULE
tmp/3ww1B00.pdb
 169 158 0 0 0
SMALL
GASTEIGER

@<TRIPOS>ATOM
      1  N          6.1740   -6.4680  -29.0740 N.3    41  PHE41      -0.1241
      2  CA         6.8020   -5.6380  -30.0990 C.3    41  PHE41       0.1605
      3  C          7.4170   -6.3720  -31.2900 C.2    41  PHE41       0.2264
      4  O          8.6320   -6.4010  -31.4530 O.2    41  PHE41      -0.2867
      5  CB         7.8510   -4.7480  -29.4270 C.3    41  PHE41       0.0534
      6  CG         7.2970   -3.8940  -28.3090 C.ar   41  PHE41      -0.0203
      7  CD1        6.6820   -2.6730  -28.5830 C.ar   41  PHE41      -0.0042
      8  CD2        7.4230   -4.2960  -26.9780 C.ar   41  PHE41      -0.0042
      9  CE1        6.2050   -1.8580  -27.5480 C.ar   41  PHE41      -0.0003
     10  CE2        6.9510   -3.4910  -25.9350 C.ar   41  PHE41      -0.0003
     11  CZ         6.3410   -2.2680  -26.2230 C.ar   41  PHE41      -0.0000
     12  N          5.6050   -6.2730  -22.8650 N.3    62  MET62      -0.1245
     13  CA         5.2420   -5.6220  -21.6150 C.3    62  MET62       0.1570
     14  C          3.7460   -5.3800  -21.5190 C.2    62  MET62       0.2261
     15  O          2.9960   -5.6220  -22.4630 O.2    62  MET62      -0.2867
     16  CB         5.9660   -4.2770  -21.4990 C.3    62  MET62       0.0387
     17  CG         5.4380   -3.2060  -22.4530 C.3    62  MET62       0.0595
     18  SD         6.4530   -1.7070  -22.5180 S.3    62  MET62      -0.1393
     19  CE         6.4300   -1.2400  -20.7820 C.3    62  MET62       0.0692
     20  N          0.8760   -2.4210  -20.3390 N.3    64  ILE64      -0.1245
     21  CA         0.6850   -1.0120  -20.0770 C.3    64  ILE64       0.1561
     22  C         -0.7480   -0.8480  -19.6260 C.2    64  ILE64       0.2260
     23  O         -1.6820   -1.2490  -20.3240 O.2    64  ILE64      -0.2867
     24  CB         0.9470   -0.1480  -21.3350 C.3    64  ILE64       0.0252
     25  CG1        2.4390   -0.1900  -21.6850 C.3    64  ILE64       0.0019
     26  CG2        0.5440    1.2920  -21.0790 C.3    64  ILE64       0.0019
     27  CD1        2.8020    0.5800  -22.9410 C.3    64  ILE64       0.0001
     28  N          0.2530    6.1460  -17.0740 N.3    92  LYS92      -0.1245
     29  CA         0.1450    4.7180  -17.2700 C.3    92  LYS92       0.1561
     30  C          1.1120    3.9670  -16.3640 C.2    92  LYS92       0.2260
     31  O          2.1470    4.4930  -15.9670 O.2    92  LYS92      -0.2867
     32  CB         0.4130    4.3870  -18.7450 C.3    92  LYS92       0.0271
     33  CG         1.8050    4.7440  -19.2230 C.3    92  LYS92       0.0035
     34  CD         1.7800    5.4060  -20.6150 C.3    92  LYS92       0.0206
     35  CE         1.1110    4.5410  -21.6580 C.3    92  LYS92       0.1093
     36  NZ         1.1200    5.1730  -23.0190 N.3    92  LYS92      -0.1314
     37  N          3.4700    0.7770  -16.1880 N.3    94  MET94      -0.1245
     38  CA         4.1130   -0.1730  -17.0740 C.3    94  MET94       0.1570
     39  C          4.6380   -1.3340  -16.2470 C.2    94  MET94       0.2261
     40  O          5.2720   -1.1390  -15.2140 O.2    94  MET94      -0.2867
     41  CB         5.2600    0.5030  -17.8250 C.3    94  MET94       0.0387
     42  CG         4.8220    1.7140  -18.6460 C.3    94  MET94       0.0595
     43  SD         6.1950    2.4710  -19.5450 S.3    94  MET94      -0.1393
     44  CE         6.9850    3.3840  -18.2720 C.3    94  MET94       0.0692
     45  N         11.4140   -2.7660  -23.0690 N.3   102  CYS102     -0.1235
     46  CA        10.5400   -1.8440  -23.7800 C.3   102  CYS102      0.1677
     47  C         11.6070   -1.5240  -24.8400 C.2   102  CYS102      0.2270
     48  O         12.6330   -0.9160  -24.5270 O.2   102  CYS102     -0.2867
     49  CB        10.2290   -0.5990  -22.9550 C.3   102  CYS102      0.0956
     50  SG         9.4410    0.7060  -23.9330 S.3   102  CYS102     -0.0801
     51  N         13.4550    3.1310  -29.1130 N.3   105  HIS105     -0.1241
     52  CA        12.5670    3.9770  -29.8910 C.3   105  HIS105      0.1621
     53  C         12.6470    5.4080  -29.3840 C.2   105  HIS105      0.2264
     54  O         13.2160    5.6770  -28.3320 O.2   105  HIS105     -0.2867
     55  CB        11.1220    3.5090  -29.7420 C.3   105  HIS105      0.0745
     56  CG        10.5500    3.7690  -28.3820 C.ar  105  HIS105      0.0817
     57  ND1       10.9090    3.0370  -27.2690 N.ar  105  HIS105     -0.2268
     58  CD2        9.6720    4.7040  -27.9470 C.ar  105  HIS105      0.1154
     59  CE1       10.2760    3.5070  -26.2090 C.ar  105  HIS105      0.1986
     60  NE2        9.5190    4.5190  -26.5940 N.ar  105  HIS105     -0.2212
     61  N         10.2940    9.3860  -29.5440 N.3   107  HIS107     -0.1241
     62  CA         9.0280   10.0210  -29.8680 C.3   107  HIS107      0.1621
     63  C          9.3530   11.4080  -30.3540 C.2   107  HIS107      0.2264
     64  O         10.1610   12.1070  -29.7480 O.2   107  HIS107     -0.2867
     65  CB         8.1420   10.1600  -28.6330 C.3   107  HIS107      0.0745
     66  CG         7.9810    8.8960  -27.8590 C.ar  107  HIS107      0.0817
     67  ND1        7.2280    7.8360  -28.3130 N.ar  107  HIS107     -0.2268
     68  CD2        8.4940    8.5130  -26.6670 C.ar  107  HIS107      0.1154
     69  CE1        7.2840    6.8530  -27.4340 C.ar  107  HIS107      0.1986
     70  NE2        8.0450    7.2390  -26.4270 N.ar  107  HIS107     -0.2212
     71  N          6.1860   13.1750  -27.8070 N.3   110  LYS110     -0.1245
     72  CA         6.0570   12.8570  -26.3900 C.3   110  LYS110      0.1561
     73  C          7.3040   12.9230  -25.5110 C.2   110  LYS110      0.2260
     74  O          8.3540   12.3670  -25.8420 O.2   110  LYS110     -0.2867
     75  CB         5.4110   11.4760  -26.2360 C.3   110  LYS110      0.0271
     76  CG         5.1230   11.0860  -24.7900 C.3   110  LYS110      0.0035
     77  CD         4.4400    9.7300  -24.6850 C.3   110  LYS110      0.0206
     78  CE         5.3770    8.5850  -25.0370 C.3   110  LYS110      0.1093
     79  NZ         4.6710    7.2740  -24.8830 N.3   110  LYS110     -0.1314
     80  N          8.4490   12.0640  -21.6350 N.3   112  GLU112     -0.1245
     81  CA         8.0010   11.2310  -20.5220 C.3   112  GLU112      0.1567
     82  C          8.8590   11.3350  -19.2670 C.2   112  GLU112      0.2260
     83  O          9.9450   11.9010  -19.2970 O.2   112  GLU112     -0.2867
     84  CB         7.9290    9.7690  -20.9860 C.3   112  GLU112      0.0388
     85  CG         8.8830    9.4370  -22.1260 C.3   112  GLU112      0.1160
     86  CD         8.7890    7.9920  -22.5990 C.2   112  GLU112      0.3649
     87  OE1        9.2650    7.0860  -21.8770 O.co2 112  GLU112     -0.2457
     88  OE2        8.2370    7.7600  -23.6970 O.co2 112  GLU112     -0.2457
     89  N          9.7090    8.9220  -15.4800 N.3   114  TYR114     -0.1241
     90  CA         9.5390    7.6230  -14.8400 C.3   114  TYR114      0.1605
     91  C          9.5960    7.6650  -13.3190 C.2   114  TYR114      0.2264
     92  O         10.4280    8.3590  -12.7190 O.2   114  TYR114     -0.2867
     93  CB        10.6110    6.6370  -15.3200 C.3   114  TYR114      0.0534
     94  CG        10.8440    6.6280  -16.8100 C.ar  114  TYR114     -0.0201
     95  CD1        9.7830    6.5090  -17.7020 C.ar  114  TYR114     -0.0009
     96  CD2       12.1360    6.7210  -17.3270 C.ar  114  TYR114     -0.0009
     97  CE1       10.0020    6.4850  -19.0810 C.ar  114  TYR114      0.0417
     98  CE2       12.3680    6.6960  -18.7020 C.ar  114  TYR114      0.0417
     99  CZ        11.2980    6.5800  -19.5730 C.ar  114  TYR114      0.1957
    100  OH        11.5270    6.5630  -20.9330 O.3   114  TYR114     -0.2866
    101  N         15.4510    5.7000  -26.5850 N.3   187  HIS187     -0.1241
    102  CA        15.5110    5.0960  -25.2630 C.3   187  HIS187      0.1621
    103  C         14.8690    3.7240  -25.2170 C.2   187  HIS187      0.2264
    104  O         14.0750    3.3610  -26.0810 O.2   187  HIS187     -0.2867
    105  CB        14.8510    6.0040  -24.2190 C.3   187  HIS187      0.0745
    106  CG        13.4140    6.3160  -24.5050 C.ar  187  HIS187      0.0817
    107  ND1       13.0200    7.1300  -25.5450 N.ar  187  HIS187     -0.2268
    108  CD2       12.2760    5.9190  -23.8860 C.ar  187  HIS187      0.1154
    109  CE1       11.7020    7.2230  -25.5530 C.ar  187  HIS187      0.1986
    110  NE2       11.2270    6.4970  -24.5570 N.ar  187  HIS187     -0.2212
    111  N         14.3410    0.3230  -21.9790 N.3   189  PHE189     -0.1241
    112  CA        14.5730   -0.0260  -20.5830 C.3   189  PHE189      0.1605
    113  C         14.1940   -1.4680  -20.3250 C.2   189  PHE189      0.2264
    114  O         13.4760   -2.0870  -21.1150 O.2   189  PHE189     -0.2867
    115  CB        13.8070    0.9220  -19.6440 C.3   189  PHE189      0.0534
    116  CG        12.3160    0.8510  -19.7740 C.ar  189  PHE189     -0.0203
    117  CD1       11.5910   -0.1270  -19.1010 C.ar  189  PHE189     -0.0042
    118  CD2       11.6280    1.7890  -20.5390 C.ar  189  PHE189     -0.0042
    119  CE1       10.1960   -0.1680  -19.1820 C.ar  189  PHE189     -0.0003
    120  CE2       10.2370    1.7550  -20.6260 C.ar  189  PHE189     -0.0003
    121  CZ         9.5200    0.7750  -19.9450 C.ar  189  PHE189     -0.0000
    122  N          4.4900    5.9720  -15.4540 N.3   203  GLU203     -0.1245
    123  CA         4.9700    6.9190  -16.4370 C.3   203  GLU203      0.1567
    124  C          3.9820    8.0630  -16.5640 C.2   203  GLU203      0.2260
    125  O          2.7770    7.8530  -16.7250 O.2   203  GLU203     -0.2867
    126  CB         5.1560    6.2420  -17.7990 C.3   203  GLU203      0.0388
    127  CG         5.5570    7.2000  -18.9100 C.3   203  GLU203      0.1160
    128  CD         5.6640    6.5210  -20.2660 C.2   203  GLU203      0.3649
    129  OE1        6.5620    5.6680  -20.4320 O.co2 203  GLU203     -0.2457
    130  OE2        4.8480    6.8370  -21.1670 O.co2 203  GLU203     -0.2457
    131  N         -1.0360    6.7770  -30.0590 N.3   210  GLU210     -0.1245
    132  CA        -0.8400    5.3830  -30.4210 C.3   210  GLU210      0.1567
    133  C         -2.1910    4.7910  -30.7710 C.2   210  GLU210      0.2260
    134  O         -2.9450    4.3970  -29.8840 O.2   210  GLU210     -0.2867
    135  CB        -0.2440    4.6020  -29.2460 C.3   210  GLU210      0.0388
    136  CG         0.6980    5.4000  -28.3690 C.3   210  GLU210      0.1160
    137  CD         1.2680    4.5750  -27.2320 C.2   210  GLU210      0.3649
    138  OE1        2.0810    3.6700  -27.5060 O.co2 210  GLU210     -0.2457
    139  OE2        0.8980    4.8270  -26.0650 O.co2 210  GLU210     -0.2457
    140  N          5.3510    6.8780  -32.1650 N.3   225  ASN225     -0.1240
    141  CA         6.3350    5.9060  -31.6960 C.3   225  ASN225      0.1653
    142  C          7.1640    5.3910  -32.8680 C.2   225  ASN225      0.2266
    143  O          6.6500    4.6690  -33.7160 O.2   225  ASN225     -0.2867
    144  CB         5.6720    4.6760  -31.0540 C.3   225  ASN225      0.1155
    145  CG         4.8350    5.0070  -29.8330 C.2   225  ASN225      0.2627
    146  OD1        5.1550    5.9150  -29.0730 O.2   225  ASN225     -0.2716
    147  ND2        3.7640    4.2400  -29.6270 N.am  225  ASN225     -0.0877
    148  N         10.2600    3.0310  -33.6750 N.3   227  PHE227     -0.1241
    149  CA        11.2260    2.0600  -33.1610 C.3   227  PHE227      0.1605
    150  C         12.4400    1.8660  -34.0750 C.2   227  PHE227      0.2264
    151  O         12.3260    1.9400  -35.2950 O.2   227  PHE227     -0.2867
    152  CB        10.5550    0.6980  -32.9490 C.3   227  PHE227      0.0534
    153  CG         9.3560    0.7400  -32.0510 C.ar  227  PHE227     -0.0203
    154  CD1        8.1080    1.1080  -32.5480 C.ar  227  PHE227     -0.0042
    155  CD2        9.4700    0.4150  -30.7060 C.ar  227  PHE227     -0.0042
    156  CE1        6.9870    1.1490  -31.7140 C.ar  227  PHE227     -0.0003
    157  CE2        8.3570    0.4520  -29.8650 C.ar  227  PHE227     -0.0003
    158  CZ         7.1130    0.8200  -30.3700 C.ar  227  PHE227     -0.0000
    159  N          3.7300   -3.8920  -34.3040 N.3   236  ARG236     -0.1245
    160  CA         3.7920   -3.5330  -32.8890 C.3   236  ARG236      0.1563
    161  C          2.4050   -3.4360  -32.2750 C.2   236  ARG236      0.2260
    162  O          2.2040   -3.8020  -31.1170 O.2   236  ARG236     -0.2867
    163  CB         4.5260   -2.1980  -32.7200 C.3   236  ARG236      0.0307
    164  CG         4.5890   -1.6610  -31.2930 C.3   236  ARG236      0.0489
    165  CD         3.2890   -0.9850  -30.8740 C.3   236  ARG236      0.2205
    166  NE         3.4320   -0.2520  -29.6180 N.pl3 236  ARG236     -0.0865
    167  CZ         2.4450    0.4070  -29.0180 C.cat 236  ARG236      0.5346
    168  NH1        2.6680    1.0480  -27.8780 N.pl3 236  ARG236      0.1354
    169  NH2        1.2310    0.4220  -29.5530 N.pl3 236  ARG236      0.1354
@<TRIPOS>BOND
     1   151   150    2
     2   159   160    1
     3   150   149    1
     4   143   142    2
     5   148   149    1
     6   149   152    1
     7   152   153    1
     8   160   163    1
     9   160   161    1
    10   142   141    1
    11   163   164    1
    12   154   153   ar
    13   154   156   ar
    14   161   162    2
    15   140   141    1
    16   153   155   ar
    17   156   158   ar
    18   141   144    1
    19     4     3    2
    20   164   165    1
    21     3     2    1
    22   144   145    1
    23   165   166    1
    24   133   132    1
    25   133   134    2
    26   155   157   ar
    27   132   131    1
    28   132   135    1
    29   158   157   ar
    30    63    62    1
    31    63    64    2
    32     2     5    1
    33     2     1    1
    34    52    55    1
    35    52    53    1
    36    52    51    1
    37    62    61    1
    38    62    65    1
    39   145   147   am
    40   145   146    2
    41    55    56    1
    42   166   167    2
    43   169   167    1
    44     5     6    1
    45    53    54    2
    46   135   136    1
    47   167   168    1
    48    65    66    1
    49     7     6   ar
    50     7     9   ar
    51    56    58   ar
    52    56    57   ar
    53   136   137    1
    54    67    66   ar
    55    67    69   ar
    56     6     8   ar
    57    58    60   ar
    58    66    68   ar
    59    71    72    1
    60     9    11   ar
    61   138   137   ar
    62    69    70   ar
    63    57    59   ar
    64   137   139   ar
    65     8    10   ar
    66    68    70   ar
    67    60    59   ar
    68   101   102    1
    69    72    75    1
    70    72    73    1
    71    75    76    1
    72    11    10   ar
    73   104   103    2
    74    74    73    2
    75   109   107   ar
    76   109   110   ar
    77   107   106   ar
    78   102   103    1
    79   102   105    1
    80    78    79    1
    81    78    77    1
    82    47    48    2
    83    47    46    1
    84    76    77    1
    85   110   108   ar
    86   106   105    1
    87   106   108   ar
    88    50    49    1
    89    46    45    1
    90    46    49    1
    91    88    86   ar
    92    36    35    1
    93    27    25    1
    94    12    13    1
    95    86    85    1
    96    86    87   ar
    97    18    17    1
    98    18    19    1
    99    15    14    2
   100    17    16    1
   101    85    84    1
   102   111   112    1
   103    25    24    1
   104    35    34    1
   105    80    81    1
   106    13    14    1
   107    13    16    1
   108    24    26    1
   109    24    21    1
   110   130   128   ar
   111   114   113    2
   112    84    81    1
   113   100    99    1
   114   120   118   ar
   115   120   121   ar
   116    34    33    1
   117   112   113    1
   118   112   115    1
   119   118   116   ar
   120    81    82    1
   121   129   128   ar
   122    20    21    1
   123    23    22    2
   124   128   127    1
   125    21    22    1
   126   121   119   ar
   127   116   115    1
   128   116   117   ar
   129    99    97   ar
   130    99    98   ar
   131    43    42    1
   132    43    44    1
   133    83    82    2
   134    33    32    1
   135   119   117   ar
   136    97    95   ar
   137   127   126    1
   138    32    29    1
   139    98    96   ar
   140    42    41    1
   141    41    38    1
   142   126   123    1
   143    95    94   ar
   144    96    94   ar
   145    29    28    1
   146    29    30    1
   147    38    39    1
   148    38    37    1
   149    94    93    1
   150   125   124    2
   151   124   123    1
   152   123   122    1
   153    30    31    2
   154    39    40    2
   155    89    90    1
   156    93    90    1
   157    90    91    1
   158    91    92    2
