@<TRIPOS>MOLECULE
tmp/3ww1A00.pdb
 161 151 0 0 0
SMALL
GASTEIGER

@<TRIPOS>ATOM
      1  N         -4.1470   29.6800    2.6860 N.3    41  PHE41      -0.1241
      2  CA        -4.7680   30.6270    1.7710 C.3    41  PHE41       0.1605
      3  C         -5.3830   31.8600    2.4280 C.2    41  PHE41       0.2264
      4  O         -6.5930   31.9280    2.6480 O.2    41  PHE41      -0.2867
      5  CB        -5.8120   29.8850    0.9380 C.3    41  PHE41       0.0534
      6  CG        -5.2320   28.7810    0.0940 C.ar   41  PHE41      -0.0203
      7  CD1       -4.6540   29.0610   -1.1420 C.ar   41  PHE41      -0.0042
      8  CD2       -5.2430   27.4630    0.5460 C.ar   41  PHE41      -0.0042
      9  CE1       -4.0990   28.0470   -1.9130 C.ar   41  PHE41      -0.0003
     10  CE2       -4.6900   26.4430   -0.2200 C.ar   41  PHE41      -0.0003
     11  CZ        -4.1170   26.7340   -1.4500 C.ar   41  PHE41      -0.0000
     12  N          1.3000   20.5530   -0.1360 N.3    64  ILE64      -0.1245
     13  CA         1.5330   20.1170   -1.4960 C.3    64  ILE64       0.1561
     14  C          2.9870   19.6860   -1.6290 C.2    64  ILE64       0.2260
     15  O          3.9020   20.4730   -1.3700 O.2    64  ILE64      -0.2867
     16  CB         1.2540   21.2560   -2.5050 C.3    64  ILE64       0.0252
     17  CG1       -0.2250   21.6330   -2.4730 C.3    64  ILE64       0.0019
     18  CG2        1.6770   20.8270   -3.8990 C.3    64  ILE64       0.0019
     19  CD1       -0.6230   22.6030   -3.5550 C.3    64  ILE64       0.0001
     20  N          2.2120   16.2010   -8.3510 N.3    92  LYS92      -0.1245
     21  CA         2.1610   16.6390   -6.9600 C.3    92  LYS92       0.1561
     22  C          1.2770   15.7180   -6.1300 C.2    92  LYS92       0.2260
     23  O          0.3210   15.1370   -6.6400 O.2    92  LYS92      -0.2867
     24  CB         1.5530   18.0430   -6.8500 C.3    92  LYS92       0.0271
     25  CG         2.2370   19.1460   -7.6210 C.3    92  LYS92       0.0035
     26  CD         1.4270   20.4280   -7.4430 C.3    92  LYS92       0.0206
     27  CE         2.0710   21.6280   -8.1190 C.3    92  LYS92       0.1093
     28  NZ         1.2170   22.8390   -7.9390 N.3    92  LYS92      -0.1314
     29  N         -1.1280   15.8390   -2.8530 N.3    94  MET94      -0.1245
     30  CA        -1.7980   16.8130   -2.0110 C.3    94  MET94       0.1570
     31  C         -2.4030   16.1680   -0.7730 C.2    94  MET94       0.2261
     32  O         -3.0440   15.1180   -0.8500 O.2    94  MET94      -0.2867
     33  CB        -2.8740   17.5300   -2.8280 C.3    94  MET94       0.0387
     34  CG        -2.3330   18.1200   -4.1380 C.3    94  MET94       0.0595
     35  SD        -3.5260   19.0980   -5.0820 S.3    94  MET94      -0.1393
     36  CE        -4.6390   17.8280   -5.6710 C.3    94  MET94       0.0692
     37  N         -9.1640   23.2850   -0.5990 N.3   102  CYS102     -0.1235
     38  CA        -8.2290   23.9000   -1.5230 C.3   102  CYS102      0.1677
     39  C         -9.3250   24.8420   -2.0360 C.2   102  CYS102      0.2270
     40  O        -10.3050   24.3810   -2.6230 O.2   102  CYS102     -0.2867
     41  CB        -7.8080   22.9580   -2.6410 C.3   102  CYS102      0.0956
     42  SG        -6.8690   23.8150   -3.9220 S.3   102  CYS102     -0.0801
     43  N        -10.7260   28.6250   -7.2680 N.3   105  HIS105     -0.1241
     44  CA        -9.7540   29.2940   -8.1220 C.3   105  HIS105      0.1621
     45  C         -9.7950   28.6500   -9.4950 C.2   105  HIS105      0.2264
     46  O        -10.5020   27.6660   -9.7120 O.2   105  HIS105     -0.2867
     47  CB        -8.3360   29.1390   -7.5650 C.3   105  HIS105      0.0745
     48  CG        -7.8250   27.7330   -7.6150 C.ar  105  HIS105      0.0817
     49  ND1       -8.1980   26.7710   -6.6980 N.ar  105  HIS105     -0.2268
     50  CD2       -7.0150   27.1100   -8.5040 C.ar  105  HIS105      0.1154
     51  CE1       -7.6400   25.6180   -7.0220 C.ar  105  HIS105      0.1986
     52  NE2       -6.9170   25.7960   -8.1130 N.ar  105  HIS105     -0.2212
     53  N         -7.1890   28.2060  -13.3500 N.3   107  HIS107     -0.1241
     54  CA        -5.8950   28.3880  -13.9980 C.3   107  HIS107      0.1621
     55  C         -6.1390   28.7590  -15.4530 C.2   107  HIS107      0.2264
     56  O         -7.0130   28.1920  -16.1060 O.2   107  HIS107     -0.2867
     57  CB        -5.0830   27.0870  -13.9530 C.3   107  HIS107      0.0745
     58  CG        -5.0170   26.4640  -12.5940 C.ar  107  HIS107      0.0817
     59  ND1       -4.3130   27.0240  -11.5500 N.ar  107  HIS107     -0.2268
     60  CD2       -5.6030   25.3500  -12.0980 C.ar  107  HIS107      0.1154
     61  CE1       -4.4720   26.2830  -10.4680 C.ar  107  HIS107      0.1986
     62  NE2       -5.2500   25.2620  -10.7730 N.ar  107  HIS107     -0.2212
     63  N         -3.0330   25.9030  -16.8560 N.3   110  LYS110     -0.1245
     64  CA        -2.9760   24.5540  -16.3060 C.3   110  LYS110      0.1561
     65  C         -4.2200   23.6720  -16.3080 C.2   110  LYS110      0.2260
     66  O         -5.2660   24.0330  -15.7700 O.2   110  LYS110     -0.2867
     67  CB        -2.4290   24.6020  -14.8770 C.3   110  LYS110      0.0271
     68  CG        -2.1630   23.2260  -14.2830 C.3   110  LYS110      0.0035
     69  CD        -1.4920   23.3230  -12.9160 C.3   110  LYS110      0.0206
     70  CE        -2.4760   23.7530  -11.8520 C.3   110  LYS110      0.1093
     71  NZ        -1.8300   23.8260  -10.5140 N.3   110  LYS110     -0.1314
     72  N         -5.5200   19.9980  -15.0850 N.3   112  GLU112     -0.1245
     73  CA        -5.0960   18.9960  -14.1140 C.3   112  GLU112      0.1567
     74  C         -5.9920   17.7530  -14.0170 C.2   112  GLU112      0.2260
     75  O         -7.0940   17.7130  -14.5730 O.2   112  GLU112     -0.2867
     76  CB        -4.9340   19.6600  -12.7400 C.3   112  GLU112      0.0388
     77  CG        -6.1990   20.2600  -12.1540 C.3   112  GLU112      0.1160
     78  CD        -5.9090   21.3520  -11.1270 C.2   112  GLU112      0.3649
     79  OE1       -6.7450   21.5710  -10.2240 O.co2 112  GLU112     -0.2457
     80  OE2       -4.8510   22.0040  -11.2290 O.co2 112  GLU112     -0.2457
     81  N         -7.0250   14.3510  -11.1660 N.3   114  TYR114     -0.1241
     82  CA        -6.9370   13.8690   -9.7910 C.3   114  TYR114      0.1605
     83  C         -7.0270   12.3580   -9.6660 C.2   114  TYR114      0.2264
     84  O         -7.7820   11.6910  -10.3810 O.2   114  TYR114     -0.2867
     85  CB        -8.0460   14.4740   -8.9300 C.3   114  TYR114      0.0534
     86  CG        -8.2360   15.9520   -9.1070 C.ar  114  TYR114     -0.0201
     87  CD1       -7.1720   16.8400   -8.9450 C.ar  114  TYR114     -0.0009
     88  CD2       -9.4870   16.4690   -9.4230 C.ar  114  TYR114     -0.0009
     89  CE1       -7.3570   18.2110   -9.0970 C.ar  114  TYR114      0.0417
     90  CE2       -9.6860   17.8310   -9.5740 C.ar  114  TYR114      0.0417
     91  CZ        -8.6220   18.6970   -9.4120 C.ar  114  TYR114      0.1957
     92  OH        -8.8320   20.0460   -9.5750 O.3   114  TYR114     -0.2866
     93  N        -12.7300   25.7310   -9.6590 N.3   187  HIS187     -0.1241
     94  CA       -12.8180   24.4770   -8.9250 C.3   187  HIS187      0.1621
     95  C        -12.2580   24.6120   -7.5230 C.2   187  HIS187      0.2264
     96  O        -11.5110   25.5410   -7.2210 O.2   187  HIS187     -0.2867
     97  CB       -12.0850   23.3550   -9.6680 C.3   187  HIS187      0.0745
     98  CG       -10.6390   23.6410   -9.9230 C.ar  187  HIS187      0.0817
     99  ND1      -10.2150   24.5500  -10.8690 N.ar  187  HIS187     -0.2268
    100  CD2       -9.5180   23.1500   -9.3420 C.ar  187  HIS187      0.1154
    101  CE1       -8.8960   24.6080  -10.8600 C.ar  187  HIS187      0.1986
    102  NE2       -8.4480   23.7680   -9.9430 N.ar  187  HIS187     -0.2212
    103  N        -11.9680   21.8340   -3.6650 N.3   189  PHE189     -0.1241
    104  CA       -12.2430   20.5100   -3.1470 C.3   189  PHE189      0.1605
    105  C        -11.9160   20.4720   -1.6710 C.2   189  PHE189      0.2264
    106  O        -11.1640   21.3060   -1.1770 O.2   189  PHE189     -0.2867
    107  CB       -11.4500   19.4480   -3.9230 C.3   189  PHE189      0.0534
    108  CG        -9.9590   19.5120   -3.7260 C.ar  189  PHE189     -0.0203
    109  CD1       -9.3580   18.8620   -2.6570 C.ar  189  PHE189     -0.0042
    110  CD2       -9.1510   20.1720   -4.6470 C.ar  189  PHE189     -0.0042
    111  CE1       -7.9770   18.8570   -2.5080 C.ar  189  PHE189     -0.0003
    112  CE2       -7.7640   20.1770   -4.5100 C.ar  189  PHE189     -0.0003
    113  CZ        -7.1750   19.5160   -3.4380 C.ar  189  PHE189     -0.0000
    114  N         -1.9240   14.7010   -8.1180 N.3   203  GLU203     -0.1245
    115  CA        -2.3230   15.5760   -9.1910 C.3   203  GLU203      0.1567
    116  C         -1.3160   15.4760  -10.3150 C.2   203  GLU203      0.2260
    117  O         -0.1080   15.5780  -10.0970 O.2   203  GLU203     -0.2867
    118  CB        -2.4150   17.0250   -8.7050 C.3   203  GLU203      0.0388
    119  CG        -2.7470   18.0180   -9.8020 C.3   203  GLU203      0.1160
    120  CD        -2.9040   19.4330   -9.2800 C.2   203  GLU203      0.3649
    121  OE1       -3.7970   19.6530   -8.4320 O.co2 203  GLU203     -0.2457
    122  OE2       -2.1390   20.3230   -9.7150 O.co2 203  GLU203     -0.2457
    123  N          4.1310   29.0490  -10.6890 N.3   210  GLU210     -0.1245
    124  CA         3.9210   29.6120   -9.3640 C.3   210  GLU210      0.1567
    125  C          5.1860   30.3300   -8.9180 C.2   210  GLU210      0.2260
    126  O          6.0660   29.7320   -8.3020 O.2   210  GLU210     -0.2867
    127  CB         3.5530   28.4970   -8.3760 C.3   210  GLU210      0.0388
    128  CG         2.3700   27.6480   -8.8360 C.3   210  GLU210      0.1160
    129  CD         1.9760   26.5660   -7.8420 C.2   210  GLU210      0.3649
    130  OE1        2.8580   25.7800   -7.4260 O.co2 210  GLU210     -0.2457
    131  OE2        0.7780   26.4980   -7.4870 O.co2 210  GLU210     -0.2457
    132  N         -2.5010   31.1430  -11.1780 N.3   225  ASN225     -0.1240
    133  CA        -3.5740   30.8150  -10.2440 C.3   225  ASN225      0.1653
    134  C         -4.4080   32.0490   -9.9190 C.2   225  ASN225      0.2266
    135  O         -3.8850   33.0250   -9.3890 O.2   225  ASN225     -0.2867
    136  CB        -3.0120   30.2450   -8.9370 C.3   225  ASN225      0.1155
    137  CG        -2.1660   28.9970   -9.1510 C.2   225  ASN225      0.2627
    138  OD1       -2.4500   28.1770  -10.0260 O.2   225  ASN225     -0.2716
    139  ND2       -1.1290   28.8400   -8.3330 N.am  225  ASN225     -0.0877
    140  N         -7.5640   33.1980   -7.7210 N.3   227  PHE227     -0.1241
    141  CA        -8.5110   32.8300   -6.6750 C.3   227  PHE227      0.1605
    142  C         -9.7260   33.7430   -6.6540 C.2   227  PHE227      0.2264
    143  O         -9.6250   34.9330   -6.9610 O.2   227  PHE227     -0.2867
    144  CB        -7.8280   32.8460   -5.3070 C.3   227  PHE227      0.0534
    145  CG        -6.7620   31.7960   -5.1550 C.ar  227  PHE227     -0.0203
    146  CD1       -5.4500   32.0480   -5.5490 C.ar  227  PHE227     -0.0042
    147  CD2       -7.0760   30.5400   -4.6440 C.ar  227  PHE227     -0.0042
    148  CE1       -4.4670   31.0620   -5.4340 C.ar  227  PHE227     -0.0003
    149  CE2       -6.1000   29.5490   -4.5280 C.ar  227  PHE227     -0.0003
    150  CZ        -4.7950   29.8110   -4.9240 C.ar  227  PHE227     -0.0000
    151  N         -1.6040   32.4770   -0.9180 N.3   236  ARG236     -0.1245
    152  CA        -1.0420   31.3690   -1.6840 C.3   236  ARG236      0.1563
    153  C          0.4740   31.5200   -1.8590 C.2   236  ARG236      0.2260
    154  O          1.1990   30.5290   -1.9440 O.2   236  ARG236     -0.2867
    155  CB        -1.7200   31.2940   -3.0590 C.3   236  ARG236      0.0307
    156  CG        -1.6920   29.9130   -3.7120 C.3   236  ARG236      0.0489
    157  CD        -0.2810   29.4530   -4.0350 C.3   236  ARG236      0.2205
    158  NE        -0.2230   28.0340   -4.3790 N.pl3 236  ARG236     -0.0865
    159  CZ         0.9090   27.3510   -4.5350 C.cat 236  ARG236      0.5346
    160  NH1        0.8760   26.0620   -4.8480 N.pl3 236  ARG236      0.1354
    161  NH2        2.0770   27.9570   -4.3760 N.pl3 236  ARG236      0.1354
@<TRIPOS>BOND
     1    63    64    1
     2    65    64    1
     3    65    66    2
     4    64    67    1
     5    56    55    2
     6    55    54    1
     7    72    73    1
     8    67    68    1
     9    75    74    2
    10    68    69    1
    11    73    74    1
    12    73    76    1
    13    54    57    1
    14    54    53    1
    15    57    58    1
    16    69    70    1
    17    76    77    1
    18    58    60   ar
    19    58    59   ar
    20    77    78    1
    21    60    62   ar
    22    70    71    1
    23    59    61   ar
    24    80    78   ar
    25   132   133    1
    26    81    82    1
    27    78    79   ar
    28    99   101   ar
    29    99    98   ar
    30   101   102   ar
    31    62    61   ar
    32   123   124    1
    33    84    83    2
    34   116   117    2
    35   116   115    1
    36   133   134    1
    37   133   136    1
    38   138   137    2
    39   102   100   ar
    40    98    97    1
    41    98   100   ar
    42   134   135    2
    43   119   120    1
    44   119   118    1
    45    82    83    1
    46    82    85    1
    47   122   120   ar
    48    46    45    2
    49    97    94    1
    50    93    94    1
    51    92    91    1
    52    90    88   ar
    53    90    91   ar
    54    45    44    1
    55    88    86   ar
    56    91    89   ar
    57   124   125    1
    58   124   127    1
    59   120   121   ar
    60   115   118    1
    61   115   114    1
    62   137   136    1
    63   137   139   am
    64    86    87   ar
    65    86    85    1
    66    89    87   ar
    67    94    95    1
    68   125   126    2
    69   128   127    1
    70   128   129    1
    71    50    52   ar
    72    50    48   ar
    73    20    21    1
    74    44    47    1
    75    44    43    1
    76    27    28    1
    77    27    26    1
    78    52    51   ar
    79   129   131   ar
    80   129   130   ar
    81   140   141    1
    82    25    26    1
    83    25    24    1
    84    48    47    1
    85    48    49   ar
    86    95    96    2
    87    51    49   ar
    88   143   142    2
    89    21    24    1
    90    21    22    1
    91   141   142    1
    92   141   144    1
    93    23    22    2
    94    36    35    1
    95   146   148   ar
    96   146   145   ar
    97   148   150   ar
    98   144   145    1
    99   145   147   ar
   100    35    34    1
   101   150   149   ar
   102   160   159    1
   103   110   112   ar
   104   110   108   ar
   105   147   149   ar
   106   159   158    2
   107   159   161    1
   108   112   113   ar
   109   158   157    1
   110    34    33    1
   111   157   156    1
   112   107   108    1
   113   107   104    1
   114    42    41    1
   115    18    16    1
   116   108   109   ar
   117   156   155    1
   118   103   104    1
   119    19    17    1
   120   113   111   ar
   121   104   105    1
   122   155   152    1
   123    29    30    1
   124    33    30    1
   125   109   111   ar
   126    41    38    1
   127    40    39    2
   128    16    17    1
   129    16    13    1
   130    39    38    1
   131    30    31    1
   132   154   153    2
   133     9    11   ar
   134     9     7   ar
   135   153   152    1
   136   152   151    1
   137   105   106    2
   138    14    13    1
   139    14    15    2
   140    38    37    1
   141    13    12    1
   142    11    10   ar
   143     7     6   ar
   144    32    31    2
   145    10     8   ar
   146     6     8   ar
   147     6     5    1
   148     5     2    1
   149     2     3    1
   150     2     1    1
   151     3     4    2
