@<TRIPOS>MOLECULE
tmp/3ww2A00.pdb
 169 158 0 0 0
SMALL
GASTEIGER

@<TRIPOS>ATOM
      1  N         -4.3940   29.6430    2.7260 N.3    41  PHE41      -0.1241
      2  CA        -5.0130   30.5880    1.7910 C.3    41  PHE41       0.1605
      3  C         -5.6560   31.8270    2.4060 C.2    41  PHE41       0.2264
      4  O         -6.8820   31.9190    2.4780 O.2    41  PHE41      -0.2867
      5  CB        -6.0580   29.8600    0.9360 C.3    41  PHE41       0.0534
      6  CG        -5.4710   28.8220    0.0230 C.ar   41  PHE41      -0.0203
      7  CD1       -4.8750   29.1920   -1.1800 C.ar   41  PHE41      -0.0042
      8  CD2       -5.4600   27.4750    0.3970 C.ar   41  PHE41      -0.0042
      9  CE1       -4.2690   28.2380   -2.0020 C.ar   41  PHE41      -0.0003
     10  CE2       -4.8600   26.5140   -0.4110 C.ar   41  PHE41      -0.0003
     11  CZ        -4.2590   26.8940   -1.6170 C.ar   41  PHE41      -0.0000
     12  N         -3.8320   23.4780    3.1780 N.3    62  MET62      -0.1245
     13  CA        -3.4050   22.2080    2.5880 C.3    62  MET62       0.1570
     14  C         -1.8870   22.1090    2.4070 C.2    62  MET62       0.2261
     15  O         -1.1680   23.1070    2.4580 O.2    62  MET62      -0.2867
     16  CB        -4.0750   22.0170    1.2200 C.3    62  MET62       0.0387
     17  CG        -3.3700   22.7380    0.0650 C.3    62  MET62       0.0595
     18  SD        -4.3400   22.7300   -1.4880 S.3    62  MET62      -0.1393
     19  CE        -4.1850   21.0600   -2.0360 C.3    62  MET62       0.0692
     20  N          1.1780   20.5800   -0.1480 N.3    64  ILE64      -0.1245
     21  CA         1.4320   20.0980   -1.4830 C.3    64  ILE64       0.1561
     22  C          2.8920   19.6870   -1.5750 C.2    64  ILE64       0.2260
     23  O          3.7810   20.4300   -1.1820 O.2    64  ILE64      -0.2867
     24  CB         1.0990   21.1800   -2.5290 C.3    64  ILE64       0.0252
     25  CG1       -0.3910   21.5300   -2.4410 C.3    64  ILE64       0.0019
     26  CG2        1.4370   20.6850   -3.9150 C.3    64  ILE64       0.0019
     27  CD1       -0.8290   22.6550   -3.3680 C.3    64  ILE64       0.0001
     28  N          2.1510   16.2420   -8.4320 N.3    92  LYS92      -0.1245
     29  CA         2.2130   16.6320   -7.0340 C.3    92  LYS92       0.1561
     30  C          1.2080   15.8580   -6.2000 C.2    92  LYS92       0.2260
     31  O          0.1510   15.4430   -6.6920 O.2    92  LYS92      -0.2867
     32  CB         1.9700   18.1350   -6.8860 C.3    92  LYS92       0.0271
     33  CG         0.7820   18.6470   -7.6770 C.3    92  LYS92       0.0035
     34  CD         0.5790   20.1500   -7.4920 C.3    92  LYS92       0.0206
     35  CE         1.8270   20.9600   -7.8440 C.3    92  LYS92       0.1093
     36  NZ         1.5230   22.4290   -7.9080 N.3    92  LYS92      -0.1314
     37  N         -1.1980   15.9800   -2.8950 N.3    94  MET94      -0.1245
     38  CA        -1.8670   16.9380   -2.0260 C.3    94  MET94       0.1570
     39  C         -2.5100   16.2950   -0.8110 C.2    94  MET94       0.2261
     40  O         -3.1520   15.2500   -0.9100 O.2    94  MET94      -0.2867
     41  CB        -2.9060   17.7090   -2.8370 C.3    94  MET94       0.0387
     42  CG        -2.2940   18.3920   -4.0580 C.3    94  MET94       0.0595
     43  SD        -3.4710   19.3420   -5.0150 S.3    94  MET94      -0.1393
     44  CE        -4.2520   18.0520   -5.9940 C.3    94  MET94       0.0692
     45  N         -9.3800   23.2860   -0.5740 N.3   102  CYS102     -0.1235
     46  CA        -8.4410   23.8400   -1.5320 C.3   102  CYS102      0.1677
     47  C         -9.4870   24.7570   -2.1830 C.2   102  CYS102      0.2270
     48  O        -10.3160   24.2880   -2.9510 O.2   102  CYS102     -0.2867
     49  CB        -7.9690   22.7990   -2.5440 C.3   102  CYS102      0.0956
     50  SG        -7.1890   23.5820   -3.9840 S.3   102  CYS102     -0.0801
     51  N        -10.9150   28.4990   -7.4850 N.3   105  HIS105     -0.1241
     52  CA        -9.9810   29.1560   -8.3890 C.3   105  HIS105      0.1621
     53  C        -10.0380   28.5010   -9.7630 C.2   105  HIS105      0.2264
     54  O        -10.7760   27.5340   -9.9830 O.2   105  HIS105     -0.2867
     55  CB        -8.5460   29.0590   -7.8600 C.3   105  HIS105      0.0745
     56  CG        -8.0000   27.6670   -7.8700 C.ar  105  HIS105      0.0817
     57  ND1       -8.2590   26.7580   -6.8640 N.ar  105  HIS105     -0.2268
     58  CD2       -7.2840   26.9980   -8.8050 C.ar  105  HIS105      0.1154
     59  CE1       -7.7290   25.5910   -7.1840 C.ar  105  HIS105      0.1986
     60  NE2       -7.1330   25.7090   -8.3580 N.ar  105  HIS105     -0.2212
     61  N         -7.3730   28.1300  -13.5770 N.3   107  HIS107     -0.1241
     62  CA        -6.0590   28.3510  -14.1580 C.3   107  HIS107      0.1621
     63  C         -6.2840   28.7760  -15.6010 C.2   107  HIS107      0.2264
     64  O         -7.2410   28.3430  -16.2370 O.2   107  HIS107     -0.2867
     65  CB        -5.2390   27.0600  -14.1170 C.3   107  HIS107      0.0745
     66  CG        -5.1090   26.4750  -12.7460 C.ar  107  HIS107      0.0817
     67  ND1       -4.4620   27.1270  -11.7150 N.ar  107  HIS107     -0.2268
     68  CD2       -5.5740   25.3150  -12.2230 C.ar  107  HIS107      0.1154
     69  CE1       -4.5380   26.3970  -10.6180 C.ar  107  HIS107      0.1986
     70  NE2       -5.2060   25.2930  -10.8990 N.ar  107  HIS107     -0.2212
     71  N         -3.0620   25.8660  -16.9020 N.3   110  LYS110     -0.1245
     72  CA        -3.0400   24.5140  -16.3630 C.3   110  LYS110      0.1561
     73  C         -4.3150   23.6680  -16.4250 C.2   110  LYS110      0.2260
     74  O         -5.3850   24.0810  -15.9860 O.2   110  LYS110     -0.2867
     75  CB        -2.5320   24.5450  -14.9160 C.3   110  LYS110      0.0271
     76  CG        -2.1610   23.1820  -14.3650 C.3   110  LYS110      0.0035
     77  CD        -1.6400   23.2760  -12.9330 C.3   110  LYS110      0.0206
     78  CE        -2.7510   23.6140  -11.9610 C.3   110  LYS110      0.1093
     79  NZ        -2.2880   23.5660  -10.5440 N.3   110  LYS110     -0.1314
     80  N         -5.6580   19.9570  -15.2340 N.3   112  GLU112     -0.1245
     81  CA        -5.2740   18.9540  -14.2510 C.3   112  GLU112      0.1567
     82  C         -6.1510   17.7020  -14.1840 C.2   112  GLU112      0.2260
     83  O         -7.2520   17.6530  -14.7390 O.2   112  GLU112     -0.2867
     84  CB        -5.1840   19.6050  -12.8630 C.3   112  GLU112      0.0388
     85  CG        -6.2100   20.7020  -12.6120 C.3   112  GLU112      0.1160
     86  CD        -6.0420   21.3690  -11.2440 C.2   112  GLU112      0.3649
     87  OE1       -6.4590   20.7820  -10.2210 O.co2 112  GLU112     -0.2457
     88  OE2       -5.4830   22.4850  -11.1930 O.co2 112  GLU112     -0.2457
     89  N         -7.0930   14.2480  -11.3490 N.3   114  TYR114     -0.1241
     90  CA        -7.0280   13.8030   -9.9670 C.3   114  TYR114      0.1605
     91  C         -7.0820   12.3010   -9.7910 C.2   114  TYR114      0.2264
     92  O         -7.8270   11.5880  -10.4730 O.2   114  TYR114     -0.2867
     93  CB        -8.1690   14.4040   -9.1500 C.3   114  TYR114      0.0534
     94  CG        -8.3350   15.8880   -9.3150 C.ar  114  TYR114     -0.0201
     95  CD1       -7.2680   16.7580   -9.0930 C.ar  114  TYR114     -0.0009
     96  CD2       -9.5730   16.4270   -9.6750 C.ar  114  TYR114     -0.0009
     97  CE1       -7.4300   18.1320   -9.2260 C.ar  114  TYR114      0.0417
     98  CE2       -9.7510   17.7950   -9.8070 C.ar  114  TYR114      0.0417
     99  CZ        -8.6760   18.6460   -9.5830 C.ar  114  TYR114      0.1957
    100  OH        -8.8550   20.0100   -9.7140 O.3   114  TYR114     -0.2866
    101  N        -12.9650   25.6580   -9.8320 N.3   187  HIS187     -0.1241
    102  CA       -13.0220   24.4250   -9.0580 C.3   187  HIS187      0.1621
    103  C        -12.4710   24.5770   -7.6450 C.2   187  HIS187      0.2264
    104  O        -11.7620   25.5300   -7.3230 O.2   187  HIS187     -0.2867
    105  CB       -12.2760   23.2940   -9.7730 C.3   187  HIS187      0.0745
    106  CG       -10.8080   23.5350   -9.9270 C.ar  187  HIS187      0.0817
    107  ND1      -10.2860   24.3690  -10.8930 N.ar  187  HIS187     -0.2268
    108  CD2       -9.7500   23.0600   -9.2280 C.ar  187  HIS187      0.1154
    109  CE1       -8.9700   24.3970  -10.7830 C.ar  187  HIS187      0.1986
    110  NE2       -8.6200   23.6120   -9.7800 N.ar  187  HIS187     -0.2212
    111  N        -12.1210   21.8500   -3.7700 N.3   189  PHE189     -0.1241
    112  CA       -12.4130   20.5340   -3.2370 C.3   189  PHE189      0.1605
    113  C        -12.0770   20.4150   -1.7640 C.2   189  PHE189      0.2264
    114  O        -11.2810   21.1850   -1.2280 O.2   189  PHE189     -0.2867
    115  CB       -11.6740   19.4700   -4.0560 C.3   189  PHE189      0.0534
    116  CG       -10.1750   19.5090   -3.9100 C.ar  189  PHE189     -0.0203
    117  CD1       -9.5450   18.8440   -2.8570 C.ar  189  PHE189     -0.0042
    118  CD2       -9.3870   20.1720   -4.8480 C.ar  189  PHE189     -0.0042
    119  CE1       -8.1540   18.8350   -2.7440 C.ar  189  PHE189     -0.0003
    120  CE2       -7.9950   20.1690   -4.7450 C.ar  189  PHE189     -0.0003
    121  CZ        -7.3750   19.4960   -3.6880 C.ar  189  PHE189     -0.0000
    122  N         -2.0310   14.8010   -8.0630 N.3   203  GLU203     -0.1245
    123  CA        -2.4090   15.6720   -9.1620 C.3   203  GLU203      0.1567
    124  C         -1.4010   15.5160  -10.2960 C.2   203  GLU203      0.2260
    125  O         -0.1880   15.6410  -10.0970 O.2   203  GLU203     -0.2867
    126  CB        -2.4450   17.1420   -8.7180 C.3   203  GLU203      0.0388
    127  CG        -2.7420   18.1230   -9.8560 C.3   203  GLU203      0.1160
    128  CD        -2.6970   19.5860   -9.4280 C.2   203  GLU203      0.3649
    129  OE1       -3.4860   19.9840   -8.5430 O.co2 203  GLU203     -0.2457
    130  OE2       -1.8720   20.3450   -9.9810 O.co2 203  GLU203     -0.2457
    131  N          3.8940   28.9200  -10.6060 N.3   210  GLU210     -0.1245
    132  CA         3.6440   29.4370   -9.2630 C.3   210  GLU210      0.1567
    133  C          4.9060   30.0830   -8.7000 C.2   210  GLU210      0.2260
    134  O          5.7130   29.4160   -8.0530 O.2   210  GLU210     -0.2867
    135  CB         3.2000   28.3020   -8.3310 C.3   210  GLU210      0.0388
    136  CG         1.9480   27.5800   -8.7820 C.3   210  GLU210      0.1160
    137  CD         1.6030   26.3980   -7.8960 C.2   210  GLU210      0.3649
    138  OE1        2.4480   25.4800   -7.7630 O.co2 210  GLU210     -0.2457
    139  OE2        0.4830   26.3850   -7.3360 O.co2 210  GLU210     -0.2457
    140  N         -2.6390   31.0340  -11.2370 N.3   224  ASN224     -0.1240
    141  CA        -3.7170   30.7200  -10.3010 C.3   224  ASN224      0.1653
    142  C         -4.5390   31.9550   -9.9670 C.2   224  ASN224      0.2266
    143  O         -4.0120   32.9330   -9.4540 O.2   224  ASN224     -0.2867
    144  CB        -3.1770   30.1440   -8.9860 C.3   224  ASN224      0.1155
    145  CG        -2.2500   28.9640   -9.1940 C.2   224  ASN224      0.2627
    146  OD1       -2.4180   28.1800  -10.1300 O.2   224  ASN224     -0.2716
    147  ND2       -1.2710   28.8170   -8.3030 N.am  224  ASN224     -0.0877
    148  N         -7.6950   33.0990   -7.7250 N.3   226  PHE226     -0.1241
    149  CA        -8.6470   32.7060   -6.6980 C.3   226  PHE226      0.1605
    150  C         -9.8540   33.6290   -6.6920 C.2   226  PHE226      0.2264
    151  O         -9.7270   34.8280   -6.9490 O.2   226  PHE226     -0.2867
    152  CB        -7.9850   32.7130   -5.3180 C.3   226  PHE226      0.0534
    153  CG        -6.8920   31.6950   -5.1710 C.ar  226  PHE226     -0.0203
    154  CD1       -5.5710   32.0190   -5.4780 C.ar  226  PHE226     -0.0042
    155  CD2       -7.1890   30.3910   -4.7760 C.ar  226  PHE226     -0.0042
    156  CE1       -4.5600   31.0560   -5.3970 C.ar  226  PHE226     -0.0003
    157  CE2       -6.1820   29.4200   -4.6950 C.ar  226  PHE226     -0.0003
    158  CZ        -4.8670   29.7550   -5.0060 C.ar  226  PHE226     -0.0000
    159  N         -1.5600   32.7310   -0.7140 N.3   235  ARG235     -0.1245
    160  CA        -1.0340   31.5390   -1.3740 C.3   235  ARG235      0.1563
    161  C          0.4500   31.6560   -1.7600 C.2   235  ARG235      0.2260
    162  O          1.0880   30.6540   -2.0860 O.2   235  ARG235     -0.2867
    163  CB        -1.8770   31.2320   -2.6230 C.3   235  ARG235      0.0307
    164  CG        -1.7570   29.8000   -3.1640 C.3   235  ARG235      0.0489
    165  CD        -0.5010   29.5710   -3.9910 C.3   235  ARG235      0.2205
    166  NE        -0.2020   28.1480   -4.1280 N.pl3 235  ARG235     -0.0865
    167  CZ         0.9050   27.6690   -4.6870 C.cat 235  ARG235      0.5346
    168  NH1        1.1010   26.3580   -4.7680 N.pl3 235  ARG235      0.1354
    169  NH2        1.8190   28.5030   -5.1670 N.pl3 235  ARG235      0.1354
@<TRIPOS>BOND
     1    71    72    1
     2    73    72    1
     3    73    74    2
     4    72    75    1
     5    64    63    2
     6    63    62    1
     7    80    81    1
     8    75    76    1
     9    83    82    2
    10    76    77    1
    11    81    82    1
    12    81    84    1
    13    62    65    1
    14    62    61    1
    15    65    66    1
    16    77    78    1
    17    84    85    1
    18    66    68   ar
    19    66    67   ar
    20    85    86    1
    21    68    70   ar
    22    78    79    1
    23    67    69   ar
    24    89    90    1
    25    86    88   ar
    26    86    87   ar
    27   140   141    1
    28    70    69   ar
    29   107   109   ar
    30   107   106   ar
    31   109   110   ar
    32   131   132    1
    33    92    91    2
    34   141   142    1
    35   141   144    1
    36   124   125    2
    37   124   123    1
    38   146   145    2
    39    54    53    2
    40   130   128   ar
    41   142   143    2
    42    90    91    1
    43    90    93    1
    44   106   105    1
    45   106   108   ar
    46   127   128    1
    47   127   126    1
    48   101   102    1
    49    98    96   ar
    50    98    99   ar
    51   110   108   ar
    52   105   102    1
    53    53    52    1
    54   100    99    1
    55    96    94   ar
    56    99    97   ar
    57   128   129   ar
    58    94    93    1
    59    94    95   ar
    60   132   133    1
    61   132   135    1
    62    97    95   ar
    63   145   144    1
    64   145   147   am
    65   123   126    1
    66   123   122    1
    67   102   103    1
    68    58    60   ar
    69    58    56   ar
    70   136   135    1
    71   136   137    1
    72   133   134    2
    73    28    29    1
    74    52    55    1
    75    52    51    1
    76    60    59   ar
    77    36    35    1
    78   137   138   ar
    79   137   139   ar
    80    56    55    1
    81    56    57   ar
    82    35    34    1
    83   148   149    1
    84    33    34    1
    85    33    32    1
    86   103   104    2
    87    59    57   ar
    88    29    32    1
    89    29    30    1
    90   151   150    2
    91   149   150    1
    92   149   152    1
    93    31    30    2
    94    44    43    1
    95   154   156   ar
    96   154   153   ar
    97   156   158   ar
    98   152   153    1
    99   153   155   ar
   100   169   167    1
   101    43    42    1
   102   158   157   ar
   103   118   120   ar
   104   118   116   ar
   105   155   157   ar
   106   168   167    1
   107   120   121   ar
   108   167   166    2
   109   166   165    1
   110    42    41    1
   111   115   116    1
   112   115   112    1
   113   165   164    1
   114    50    49    1
   115    26    24    1
   116   116   117   ar
   117   111   112    1
   118   121   119   ar
   119    27    25    1
   120   112   113    1
   121   164   163    1
   122    48    47    2
   123    37    38    1
   124   117   119   ar
   125    41    38    1
   126   163   160    1
   127    49    46    1
   128    24    25    1
   129    24    21    1
   130    47    46    1
   131   162   161    2
   132    19    18    1
   133    38    39    1
   134     9    11   ar
   135     9     7   ar
   136   113   114    2
   137   161   160    1
   138    11    10   ar
   139    22    21    1
   140    22    23    2
   141    46    45    1
   142    18    17    1
   143    21    20    1
   144   160   159    1
   145     7     6   ar
   146    40    39    2
   147    10     8   ar
   148     6     8   ar
   149     6     5    1
   150    17    16    1
   151     5     2    1
   152    16    13    1
   153     2     3    1
   154     2     1    1
   155     3     4    2
   156    14    15    2
   157    14    13    1
   158    13    12    1
