@<TRIPOS>MOLECULE
tmp/3ww2B00.pdb
 177 165 0 0 0
SMALL
GASTEIGER

@<TRIPOS>ATOM
      1  N          1.3310   -5.8960  -24.6840 N.3    39  ILE39      -0.1245
      2  CA         2.0190   -5.6240  -25.9400 C.3    39  ILE39       0.1561
      3  C          3.2030   -6.5400  -26.2660 C.2    39  ILE39       0.2260
      4  O          4.0320   -6.8300  -25.4040 O.2    39  ILE39      -0.2867
      5  CB         2.5320   -4.1770  -25.9400 C.3    39  ILE39       0.0252
      6  CG1        1.3630   -3.2310  -25.6570 C.3    39  ILE39       0.0019
      7  CG2        3.2170   -3.8570  -27.2660 C.3    39  ILE39       0.0019
      8  CD1        1.7710   -1.9610  -24.9640 C.3    39  ILE39       0.0001
      9  N          6.1730   -6.5900  -29.0610 N.3    41  PHE41      -0.1241
     10  CA         6.8160   -5.7810  -30.0980 C.3    41  PHE41       0.1605
     11  C          7.4640   -6.5350  -31.2630 C.2    41  PHE41       0.2264
     12  O          8.6820   -6.6480  -31.3420 O.2    41  PHE41      -0.2867
     13  CB         7.8420   -4.8560  -29.4380 C.3    41  PHE41       0.0534
     14  CG         7.2430   -3.9160  -28.4120 C.ar   41  PHE41      -0.0203
     15  CD1        6.6260   -2.7300  -28.8050 C.ar   41  PHE41      -0.0042
     16  CD2        7.3000   -4.2190  -27.0500 C.ar   41  PHE41      -0.0042
     17  CE1        6.0780   -1.8530  -27.8560 C.ar   41  PHE41      -0.0003
     18  CE2        6.7560   -3.3530  -26.0940 C.ar   41  PHE41      -0.0003
     19  CZ         6.1450   -2.1670  -26.5000 C.ar   41  PHE41      -0.0000
     20  N          5.4850   -6.3130  -22.9060 N.3    62  MET62      -0.1245
     21  CA         5.0850   -5.6750  -21.6510 C.3    62  MET62       0.1570
     22  C          3.5950   -5.3600  -21.5280 C.2    62  MET62       0.2261
     23  O          2.8320   -5.4760  -22.4890 O.2    62  MET62      -0.2867
     24  CB         5.8660   -4.3740  -21.4670 C.3    62  MET62       0.0387
     25  CG         5.4430   -3.2700  -22.4370 C.3    62  MET62       0.0595
     26  SD         6.5820   -1.8710  -22.4770 S.3    62  MET62      -0.1393
     27  CE         6.1440   -1.0220  -20.9470 C.3    62  MET62       0.0692
     28  N          0.7620   -2.4410  -20.3660 N.3    64  ILE64      -0.1245
     29  CA         0.5600   -1.0260  -20.1230 C.3    64  ILE64       0.1561
     30  C         -0.8750   -0.8150  -19.6810 C.2    64  ILE64       0.2260
     31  O         -1.8120   -1.1760  -20.3920 O.2    64  ILE64      -0.2867
     32  CB         0.8400   -0.1750  -21.3890 C.3    64  ILE64       0.0252
     33  CG1        2.2900   -0.3790  -21.8370 C.3    64  ILE64       0.0019
     34  CG2        0.6090    1.3070  -21.0890 C.3    64  ILE64       0.0019
     35  CD1        2.7050    0.5020  -22.9870 C.3    64  ILE64       0.0001
     36  N          0.2520    6.1200  -17.0420 N.3    92  LYS92      -0.1245
     37  CA         0.1180    4.6870  -17.2300 C.3    92  LYS92       0.1561
     38  C          1.0680    3.9010  -16.3350 C.2    92  LYS92       0.2260
     39  O          2.1200    4.3910  -15.9300 O.2    92  LYS92      -0.2867
     40  CB         0.3630    4.3340  -18.7030 C.3    92  LYS92       0.0271
     41  CG         1.6960    4.8150  -19.2130 C.3    92  LYS92       0.0035
     42  CD         1.5670    5.5630  -20.5390 C.3    92  LYS92       0.0206
     43  CE         1.1650    4.6480  -21.6840 C.3    92  LYS92       0.1093
     44  NZ         1.1010    5.4000  -22.9830 N.3    92  LYS92      -0.1314
     45  N          3.3780    0.6680  -16.1810 N.3    94  MET94      -0.1245
     46  CA         3.9820   -0.3100  -17.0620 C.3    94  MET94       0.1570
     47  C          4.5600   -1.4500  -16.2340 C.2    94  MET94       0.2261
     48  O          5.2650   -1.2270  -15.2470 O.2    94  MET94      -0.2867
     49  CB         5.0620    0.3600  -17.9110 C.3    94  MET94       0.0387
     50  CG         4.5190    1.5010  -18.7810 C.3    94  MET94       0.0595
     51  SD         5.7720    2.2950  -19.8230 S.3    94  MET94      -0.1393
     52  CE         6.6390    3.2860  -18.6470 C.3    94  MET94       0.0692
     53  N         11.4980   -2.8080  -23.0090 N.3   102  CYS102     -0.1235
     54  CA        10.6140   -1.8940  -23.7060 C.3   102  CYS102      0.1677
     55  C         11.6670   -1.5780  -24.7840 C.2   102  CYS102      0.2270
     56  O         12.6910   -0.9540  -24.5010 O.2   102  CYS102     -0.2867
     57  CB        10.3030   -0.6530  -22.8720 C.3   102  CYS102      0.0956
     58  SG         9.3780    0.6140  -23.7980 S.3   102  CYS102     -0.0801
     59  N         13.4410    3.0150  -29.1020 N.3   105  HIS105     -0.1241
     60  CA        12.5490    3.8590  -29.8690 C.3   105  HIS105      0.1621
     61  C         12.6670    5.2880  -29.3770 C.2   105  HIS105      0.2264
     62  O         13.3420    5.5640  -28.3830 O.2   105  HIS105     -0.2867
     63  CB        11.1020    3.4140  -29.6710 C.3   105  HIS105      0.0745
     64  CG        10.5990    3.6140  -28.2720 C.ar  105  HIS105      0.0817
     65  ND1       10.9110    2.7580  -27.2370 N.ar  105  HIS105     -0.2268
     66  CD2        9.8280    4.5860  -27.7310 C.ar  105  HIS105      0.1154
     67  CE1       10.3530    3.1910  -26.1220 C.ar  105  HIS105      0.1986
     68  NE2        9.6900    4.3000  -26.3930 N.ar  105  HIS105     -0.2212
     69  N         10.2370    9.2780  -29.5740 N.3   107  HIS107     -0.1241
     70  CA         8.9690    9.9240  -29.8950 C.3   107  HIS107      0.1621
     71  C          9.3040   11.2810  -30.4470 C.2   107  HIS107      0.2264
     72  O         10.1840   11.9620  -29.9270 O.2   107  HIS107     -0.2867
     73  CB         8.1270   10.1200  -28.6400 C.3   107  HIS107      0.0745
     74  CG         7.9420    8.8730  -27.8450 C.ar  107  HIS107      0.0817
     75  ND1        7.1330    7.8400  -28.2650 N.ar  107  HIS107     -0.2268
     76  CD2        8.5010    8.4690  -26.6820 C.ar  107  HIS107      0.1154
     77  CE1        7.2040    6.8500  -27.3940 C.ar  107  HIS107      0.1986
     78  NE2        8.0260    7.2060  -26.4260 N.ar  107  HIS107     -0.2212
     79  N          6.2020   13.1410  -27.8840 N.3   110  LYS110     -0.1245
     80  CA         6.1180   12.8440  -26.4540 C.3   110  LYS110      0.1561
     81  C          7.3740   12.9110  -25.5890 C.2   110  LYS110      0.2260
     82  O          8.4310   12.3580  -25.9260 O.2   110  LYS110     -0.2867
     83  CB         5.4670   11.4740  -26.2310 C.3   110  LYS110      0.0271
     84  CG         5.2130   11.1610  -24.7480 C.3   110  LYS110      0.0035
     85  CD         4.6010    9.7800  -24.5360 C.3   110  LYS110      0.0206
     86  CE         5.5740    8.6910  -24.9300 C.3   110  LYS110      0.1093
     87  NZ         5.0700    7.3420  -24.5690 N.3   110  LYS110     -0.1314
     88  N          8.4740   12.1330  -21.6530 N.3   112  GLU112     -0.1245
     89  CA         8.0080   11.3150  -20.5480 C.3   112  GLU112      0.1567
     90  C          8.8660   11.3910  -19.2910 C.2   112  GLU112      0.2260
     91  O          9.9190   12.0270  -19.2740 O.2   112  GLU112     -0.2867
     92  CB         7.8830    9.8570  -21.0180 C.3   112  GLU112      0.0388
     93  CG         8.9920    9.4100  -21.9680 C.3   112  GLU112      0.1160
     94  CD         8.7800    8.0030  -22.5180 C.2   112  GLU112      0.3649
     95  OE1        9.3220    7.0300  -21.9440 O.co2 112  GLU112     -0.2457
     96  OE2        8.0590    7.8650  -23.5290 O.co2 112  GLU112     -0.2457
     97  N          9.6810    8.8650  -15.5400 N.3   114  TYR114     -0.1241
     98  CA         9.4990    7.5850  -14.8770 C.3   114  TYR114      0.1605
     99  C          9.5360    7.6820  -13.3650 C.2   114  TYR114      0.2264
    100  O         10.3140    8.4490  -12.7850 O.2   114  TYR114     -0.2867
    101  CB        10.5820    6.6050  -15.3240 C.3   114  TYR114      0.0534
    102  CG        10.7880    6.5850  -16.8170 C.ar  114  TYR114     -0.0201
    103  CD1        9.7130    6.3980  -17.6830 C.ar  114  TYR114     -0.0009
    104  CD2       12.0580    6.7610  -17.3660 C.ar  114  TYR114     -0.0009
    105  CE1        9.8960    6.3820  -19.0640 C.ar  114  TYR114      0.0417
    106  CE2       12.2540    6.7500  -18.7430 C.ar  114  TYR114      0.0417
    107  CZ        11.1680    6.5570  -19.5880 C.ar  114  TYR114      0.1957
    108  OH        11.3580    6.5130  -20.9510 O.3   114  TYR114     -0.2866
    109  N         15.4780    5.5840  -26.5610 N.3   187  HIS187     -0.1241
    110  CA        15.5590    4.9830  -25.2480 C.3   187  HIS187      0.1621
    111  C         14.9360    3.6170  -25.2200 C.2   187  HIS187      0.2264
    112  O         14.2510    3.1980  -26.1570 O.2   187  HIS187     -0.2867
    113  CB        14.8910    5.8730  -24.1860 C.3   187  HIS187      0.0745
    114  CG        13.4880    6.2780  -24.5220 C.ar  187  HIS187      0.0817
    115  ND1       13.1880    7.1240  -25.5680 N.ar  187  HIS187     -0.2268
    116  CD2       12.3040    5.9580  -23.9460 C.ar  187  HIS187      0.1154
    117  CE1       11.8800    7.3080  -25.6230 C.ar  187  HIS187      0.1986
    118  NE2       11.3200    6.6110  -24.6510 N.ar  187  HIS187     -0.2212
    119  N         14.3820    0.2580  -21.9070 N.3   189  PHE189     -0.1241
    120  CA        14.6270   -0.1000  -20.5260 C.3   189  PHE189      0.1605
    121  C         14.1870   -1.5210  -20.2600 C.2   189  PHE189      0.2264
    122  O         13.4100   -2.1040  -21.0280 O.2   189  PHE189     -0.2867
    123  CB        13.9220    0.8900  -19.5770 C.3   189  PHE189      0.0534
    124  CG        12.4260    0.9100  -19.7000 C.ar  189  PHE189     -0.0203
    125  CD1       11.6440   -0.0200  -19.0230 C.ar  189  PHE189     -0.0042
    126  CD2       11.7920    1.8830  -20.4710 C.ar  189  PHE189     -0.0042
    127  CE1       10.2420    0.0190  -19.1050 C.ar  189  PHE189     -0.0003
    128  CE2       10.3940    1.9310  -20.5610 C.ar  189  PHE189     -0.0003
    129  CZ         9.6200    0.9940  -19.8730 C.ar  189  PHE189     -0.0000
    130  N          4.3840    5.9780  -15.7250 N.3   203  GLU203     -0.1245
    131  CA         4.7990    6.9370  -16.7370 C.3   203  GLU203      0.1567
    132  C          3.8800    8.1460  -16.7130 C.2   203  GLU203      0.2260
    133  O          2.6590    8.0170  -16.8190 O.2   203  GLU203     -0.2867
    134  CB         4.7800    6.3170  -18.1420 C.3   203  GLU203      0.0388
    135  CG         5.2160    7.2950  -19.2510 C.3   203  GLU203      0.1160
    136  CD         5.1330    6.7070  -20.6730 C.2   203  GLU203      0.3649
    137  OE1        5.8030    5.6920  -20.9480 O.co2 203  GLU203     -0.2457
    138  OE2        4.4040    7.2670  -21.5220 O.co2 203  GLU203     -0.2457
    139  N         -1.1290    6.8340  -30.1230 N.3   210  GLU210     -0.1245
    140  CA        -1.0400    5.4340  -30.5140 C.3   210  GLU210      0.1567
    141  C         -2.4530    4.9380  -30.7930 C.2   210  GLU210      0.2260
    142  O         -3.4190    5.4390  -30.2200 O.2   210  GLU210     -0.2867
    143  CB        -0.4470    4.5890  -29.3870 C.3   210  GLU210      0.0388
    144  CG         0.4520    5.3330  -28.4390 C.3   210  GLU210      0.1160
    145  CD         0.9800    4.4330  -27.3440 C.2   210  GLU210      0.3649
    146  OE1        1.7600    3.5100  -27.6610 O.co2 210  GLU210     -0.2457
    147  OE2        0.6090    4.6430  -26.1670 O.co2 210  GLU210     -0.2457
    148  N          5.2410    6.6990  -32.0340 N.3   223  ASN223     -0.1240
    149  CA         6.2720    5.7550  -31.5880 C.3   223  ASN223      0.1653
    150  C          7.0770    5.2440  -32.7750 C.2   223  ASN223      0.2266
    151  O          6.5490    4.5250  -33.6110 O.2   223  ASN223     -0.2867
    152  CB         5.6690    4.5260  -30.8900 C.3   223  ASN223      0.1155
    153  CG         4.8730    4.8700  -29.6550 C.2   223  ASN223      0.2627
    154  OD1        5.2190    5.7850  -28.9140 O.2   223  ASN223     -0.2716
    155  ND2        3.8040    4.1150  -29.4100 N.am  223  ASN223     -0.0877
    156  N         10.1070    2.8960  -33.6220 N.3   225  PHE225     -0.1241
    157  CA        11.0810    1.9310  -33.1180 C.3   225  PHE225      0.1605
    158  C         12.2630    1.7070  -34.0480 C.2   225  PHE225      0.2264
    159  O         12.1090    1.6700  -35.2650 O.2   225  PHE225     -0.2867
    160  CB        10.4090    0.5780  -32.8540 C.3   225  PHE225      0.0534
    161  CG         9.2230    0.6580  -31.9410 C.ar  225  PHE225     -0.0203
    162  CD1        7.9950    1.1040  -32.4150 C.ar  225  PHE225     -0.0042
    163  CD2        9.3350    0.2910  -30.6010 C.ar  225  PHE225     -0.0042
    164  CE1        6.8860    1.1840  -31.5670 C.ar  225  PHE225     -0.0003
    165  CE2        8.2310    0.3660  -29.7430 C.ar  225  PHE225     -0.0003
    166  CZ         7.0040    0.8130  -30.2280 C.ar  225  PHE225     -0.0000
    167  N          3.4060   -4.2860  -33.4600 N.3   234  ARG234     -0.1245
    168  CA         2.9020   -3.7670  -32.1840 C.3   234  ARG234      0.1563
    169  C          1.5570   -3.0240  -32.2320 C.2   234  ARG234      0.2260
    170  O          1.1710   -2.3840  -31.2510 O.2   234  ARG234     -0.2867
    171  CB         3.9500   -2.8580  -31.5260 C.3   234  ARG234      0.0307
    172  CG         4.1080   -1.4990  -32.1880 C.3   234  ARG234      0.0489
    173  CD         3.8670   -0.3640  -31.2020 C.3   234  ARG234      0.2205
    174  NE         2.5780   -0.4820  -30.5250 N.pl3 234  ARG234     -0.0865
    175  CZ         2.0110    0.4880  -29.8120 C.cat 234  ARG234      0.5346
    176  NH1        0.8360    0.2860  -29.2290 N.pl3 234  ARG234      0.1354
    177  NH2        2.6080    1.6660  -29.6900 N.pl3 234  ARG234      0.1354
@<TRIPOS>BOND
     1   159   158    2
     2   158   157    1
     3   156   157    1
     4   151   150    2
     5   167   168    1
     6   157   160    1
     7   160   161    1
     8   150   149    1
     9   162   161   ar
    10   162   164   ar
    11   169   168    1
    12   169   170    2
    13   172   171    1
    14   172   173    1
    15   168   171    1
    16   148   149    1
    17   161   163   ar
    18   149   152    1
    19   164   166   ar
    20    12    11    2
    21    11    10    1
    22   173   174    1
    23   152   153    1
    24   141   140    1
    25   141   142    2
    26   163   165   ar
    27   174   175    2
    28   140   139    1
    29   140   143    1
    30    71    72    2
    31    71    70    1
    32   166   165   ar
    33    10    13    1
    34    10     9    1
    35    70    69    1
    36    70    73    1
    37    60    63    1
    38    60    61    1
    39    60    59    1
    40   175   177    1
    41   175   176    1
    42    63    64    1
    43   153   155   am
    44   153   154    2
    45    13    14    1
    46   143   144    1
    47    61    62    2
    48    15    14   ar
    49    15    17   ar
    50    73    74    1
    51   144   145    1
    52    14    16   ar
    53    64    66   ar
    54    64    65   ar
    55    75    74   ar
    56    75    77   ar
    57    79    80    1
    58    17    19   ar
    59    74    76   ar
    60    66    68   ar
    61   146   145   ar
    62    77    78   ar
    63   145   147   ar
    64     7     5    1
    65    65    67   ar
    66    16    18   ar
    67    76    78   ar
    68   109   110    1
    69    19    18   ar
    70    80    83    1
    71    80    81    1
    72    68    67   ar
    73     3     2    1
    74     3     4    2
    75    83    84    1
    76   112   111    2
    77     2     5    1
    78     2     1    1
    79     5     6    1
    80    82    81    2
    81     6     8    1
    82   117   115   ar
    83   117   118   ar
    84   115   114   ar
    85   110   111    1
    86   110   113    1
    87    86    87    1
    88    86    85    1
    89    55    56    2
    90    55    54    1
    91    84    85    1
    92   118   116   ar
    93   114   113    1
    94   114   116   ar
    95    58    57    1
    96    54    53    1
    97    54    57    1
    98    96    94   ar
    99    35    33    1
   100    44    43    1
   101    20    21    1
   102    94    93    1
   103    94    95   ar
   104    23    22    2
   105    26    25    1
   106    26    27    1
   107    25    24    1
   108    93    92    1
   109   119   120    1
   110    33    32    1
   111    43    42    1
   112    88    89    1
   113    21    22    1
   114    21    24    1
   115   138   136   ar
   116    32    34    1
   117    32    29    1
   118   122   121    2
   119    92    89    1
   120   108   107    1
   121   137   136   ar
   122   136   135    1
   123   128   126   ar
   124   128   129   ar
   125    89    90    1
   126    42    41    1
   127   120   121    1
   128   120   123    1
   129   126   124   ar
   130    31    30    2
   131    28    29    1
   132    29    30    1
   133   129   127   ar
   134    51    50    1
   135    51    52    1
   136   124   123    1
   137   124   125   ar
   138   107   105   ar
   139   107   106   ar
   140    90    91    2
   141   135   134    1
   142    41    40    1
   143   127   125   ar
   144   105   103   ar
   145    50    49    1
   146   106   104   ar
   147    40    37    1
   148   134   131    1
   149    49    46    1
   150   103   102   ar
   151   104   102   ar
   152    37    36    1
   153    37    38    1
   154    46    47    1
   155    46    45    1
   156   133   132    2
   157   102   101    1
   158   131   132    1
   159   131   130    1
   160    38    39    2
   161    47    48    2
   162    97    98    1
   163   101    98    1
   164    98    99    1
   165    99   100    2
