@<TRIPOS>MOLECULE
tmp/3wweA00.pdb
 152 147 0 0 0
SMALL
GASTEIGER

@<TRIPOS>ATOM
      1  N        -39.1670   -4.0150   -1.1010 N.3    48  SER48      -0.1217
      2  CA       -40.5340   -3.5970   -0.8830 C.3    48  SER48       0.1889
      3  C        -41.5590   -4.6330   -1.0950 C.2    48  SER48       0.2288
      4  O        -42.5910   -4.6440   -0.4060 O.2    48  SER48      -0.2866
      5  CB       -40.8650   -2.4200   -1.7900 C.3    48  SER48       0.2089
      6  OG       -40.0650   -1.3220   -1.4530 O.3    48  SER48      -0.2183
      7  N        -40.2540    7.9950    5.2840 N.3   102  ASN102     -0.1225
      8  CA       -40.5810    8.1140    3.8890 C.3   102  ASN102      0.1785
      9  C        -41.2730    6.9080    3.2310 C.2   102  ASN102      0.2597
     10  O        -42.3010    7.0650    2.5540 O.2   102  ASN102     -0.2718
     11  CB       -39.3220    8.4660    3.0880 C.3   102  ASN102      0.1169
     12  CG       -39.6480    8.6950    1.5930 C.2   102  ASN102      0.2627
     13  OD1      -39.3470    7.8490    0.7420 O.2   102  ASN102     -0.2716
     14  ND2      -40.3110    9.8140    1.2890 N.am  102  ASN102     -0.0877
     15  N        -40.7230    5.7160    3.4820 N.am  103  TRP103     -0.1976
     16  CA       -41.1570    4.4640    2.8510 C.3   103  TRP103      0.1640
     17  C        -41.4000    3.3760    3.9290 C.2   103  TRP103      0.2290
     18  O        -40.5590    3.1570    4.8010 O.2   103  TRP103     -0.2864
     19  CB       -40.0420    4.0650    1.8760 C.3   103  TRP103      0.0576
     20  CG       -40.5130    3.2090    0.7440 C.ar  103  TRP103      0.0006
     21  CD1      -40.0640    1.9720    0.4420 C.ar  103  TRP103      0.0946
     22  CD2      -41.5990    3.4780   -0.1390 C.ar  103  TRP103      0.0152
     23  NE1      -40.8110    1.4250   -0.5600 N.ar  103  TRP103     -0.2442
     24  CE2      -41.7700    2.3280   -0.9410 C.ar  103  TRP103      0.0810
     25  CE3      -42.4630    4.5780   -0.3250 C.ar  103  TRP103      0.0012
     26  CZ2      -42.7760    2.2220   -1.9270 C.ar  103  TRP103      0.0191
     27  CZ3      -43.4800    4.4800   -1.3090 C.ar  103  TRP103      0.0001
     28  CH2      -43.6170    3.2900   -2.0960 C.ar  103  TRP103      0.0015
     29  N        -36.1360    3.6090    6.8190 N.3   108  GLU108     -0.1245
     30  CA       -34.8940    3.9300    6.1100 C.3   108  GLU108      0.1567
     31  C        -34.6600    5.3430    5.6110 C.2   108  GLU108      0.2260
     32  O        -33.6330    5.5940    4.9900 O.2   108  GLU108     -0.2867
     33  CB       -34.7180    2.9570    4.9390 C.3   108  GLU108      0.0388
     34  CG       -36.0330    2.5430    4.2730 C.3   108  GLU108      0.1160
     35  CD       -36.4130    3.4200    3.0930 C.2   108  GLU108      0.3649
     36  OE1      -36.4670    4.6730    3.2160 O.co2 108  GLU108     -0.2457
     37  OE2      -36.6710    2.8330    2.0240 O.co2 108  GLU108     -0.2457
     38  N        -32.9450   -2.5030   -2.9430 N.3   154  SER154     -0.1202
     39  CA       -33.9970   -1.5090   -3.0100 C.3   154  SER154      0.2020
     40  C        -34.1870   -0.8710   -1.6250 C.2   154  SER154      0.2619
     41  O        -33.2180   -0.3100   -1.0690 O.2   154  SER154     -0.2717
     42  CB       -35.2840   -2.2120   -3.5280 C.3   154  SER154      0.2103
     43  OG       -36.3260   -1.2780   -3.8100 O.3   154  SER154     -0.2182
     44  N        -35.3980   -0.9570   -1.0640 N.am  155  SER155     -0.1951
     45  CA       -35.6260   -0.3730    0.2610 C.3   155  SER155      0.1924
     46  C        -34.6320   -0.9540    1.2790 C.2   155  SER155      0.2314
     47  O        -34.1510   -0.2330    2.1640 O.2   155  SER155     -0.2863
     48  CB       -37.0590   -0.6080    0.6980 C.3   155  SER155      0.2116
     49  OG       -37.3150    0.1150    1.8430 O.3   155  SER155     -0.2180
     50  N        -31.5860    0.9650    0.7950 N.3   158  THR158     -0.1218
     51  CA       -31.6640    2.2980    1.3960 C.3   158  THR158      0.1862
     52  C        -31.4000    2.1600    2.9410 C.2   158  THR158      0.2287
     53  O        -30.6590    2.9640    3.5480 O.2   158  THR158     -0.2866
     54  CB       -33.0550    2.8850    1.1840 C.3   158  THR158      0.1770
     55  OG1      -33.3940    2.8250   -0.2250 O.3   158  THR158     -0.2211
     56  CG2      -33.0820    4.2970    1.6960 C.3   158  THR158      0.0375
     57  N        -31.8100    3.9510   -2.0550 N.3   180  GLU180     -0.1245
     58  CA       -31.9300    5.4030   -2.2630 C.3   180  GLU180      0.1567
     59  C        -30.9890    6.1640   -1.3170 C.2   180  GLU180      0.2260
     60  O        -30.4520    5.6200   -0.3380 O.2   180  GLU180     -0.2867
     61  CB       -33.3740    5.8540   -1.9570 C.3   180  GLU180      0.0388
     62  CG       -34.2720    6.1870   -3.2000 C.3   180  GLU180      0.1160
     63  CD       -33.8360    7.4910   -3.8920 C.2   180  GLU180      0.3649
     64  OE1      -34.6280    7.9450   -4.7460 O.co2 180  GLU180     -0.2457
     65  OE2      -32.7370    8.0830   -3.5990 O.co2 180  GLU180     -0.2457
     66  N        -32.1280    9.6900   -1.2120 N.3   182  TYR182     -0.1241
     67  CA       -33.0940   10.7720   -0.9870 C.3   182  TYR182      0.1605
     68  C        -32.4110   12.1080   -0.9300 C.2   182  TYR182      0.2264
     69  O        -32.5540   12.8810    0.0120 O.2   182  TYR182     -0.2867
     70  CB       -33.8360   10.5650    0.2830 C.3   182  TYR182      0.0534
     71  CG       -34.5800    9.2920    0.3510 C.ar  182  TYR182     -0.0201
     72  CD1      -35.5060    8.9320   -0.6400 C.ar  182  TYR182     -0.0009
     73  CD2      -34.4430    8.4720    1.4610 C.ar  182  TYR182     -0.0009
     74  CE1      -36.2910    7.7860   -0.5080 C.ar  182  TYR182      0.0417
     75  CE2      -35.2210    7.3290    1.6050 C.ar  182  TYR182      0.0417
     76  CZ       -36.1400    6.9910    0.6260 C.ar  182  TYR182      0.1957
     77  OH       -36.8920    5.8410    0.8230 O.3   182  TYR182     -0.2866
     78  N        -38.7200   14.0720   -6.4440 N.3   193  PHE193     -0.1241
     79  CA       -37.9780   13.0830   -7.1990 C.3   193  PHE193      0.1605
     80  C        -37.2510   13.7710   -8.4130 C.2   193  PHE193      0.2264
     81  O        -36.0720   13.5280   -8.6810 O.2   193  PHE193     -0.2867
     82  CB       -38.9230   11.9880   -7.7250 C.3   193  PHE193      0.0534
     83  CG       -38.3180   11.1710   -8.8380 C.ar  193  PHE193     -0.0203
     84  CD1      -37.1750   10.4350   -8.6170 C.ar  193  PHE193     -0.0042
     85  CD2      -38.8130   11.2500  -10.1230 C.ar  193  PHE193     -0.0042
     86  CE1      -36.5020    9.7820   -9.6620 C.ar  193  PHE193     -0.0003
     87  CE2      -38.1530   10.6080  -11.2100 C.ar  193  PHE193     -0.0003
     88  CZ       -36.9860    9.8710  -10.9720 C.ar  193  PHE193     -0.0000
     89  N        -31.9730   12.4940    2.8300 N.3   211  ARG211     -0.1245
     90  CA       -32.9420   12.0980    3.8330 C.3   211  ARG211      0.1563
     91  C        -32.6970   10.6730    4.3660 C.2   211  ARG211      0.2260
     92  O        -33.2500   10.3110    5.4050 O.2   211  ARG211     -0.2867
     93  CB       -34.3370   12.1670    3.2210 C.3   211  ARG211      0.0307
     94  CG       -34.9410   13.5980    3.1780 C.3   211  ARG211      0.0489
     95  CD       -36.3960   13.6220    2.6830 C.3   211  ARG211      0.2205
     96  NE       -36.4590   13.2680    1.2810 N.pl3 211  ARG211     -0.0865
     97  CZ       -37.3270   12.3890    0.7980 C.cat 211  ARG211      0.5346
     98  NH1      -38.1480   11.8120    1.6520 N.pl3 211  ARG211      0.1354
     99  NH2      -37.4080   12.1150   -0.5150 N.pl3 211  ARG211      0.1354
    100  N        -37.4690    2.5790  -10.3320 N.3   237  TRP237     -0.1241
    101  CA       -38.6510    2.0150   -9.6680 C.3   237  TRP237      0.1605
    102  C        -39.9050    2.8720   -9.8900 C.2   237  TRP237      0.2264
    103  O        -39.8930    4.0850   -9.6740 O.2   237  TRP237     -0.2867
    104  CB       -38.3890    1.8600   -8.1560 C.3   237  TRP237      0.0550
    105  CG       -39.4970    1.2650   -7.3810 C.ar  237  TRP237      0.0003
    106  CD1      -40.4250    1.9350   -6.6440 C.ar  237  TRP237      0.0946
    107  CD2      -39.8770   -0.1230   -7.3290 C.ar  237  TRP237      0.0152
    108  NE1      -41.3670    1.0610   -6.1460 N.ar  237  TRP237     -0.2442
    109  CE2      -41.0560   -0.2060   -6.5500 C.ar  237  TRP237      0.0810
    110  CE3      -39.3400   -1.2990   -7.8670 C.ar  237  TRP237      0.0012
    111  CZ2      -41.7150   -1.4240   -6.2920 C.ar  237  TRP237      0.0191
    112  CZ3      -39.9920   -2.5200   -7.6130 C.ar  237  TRP237      0.0001
    113  CH2      -41.1730   -2.5680   -6.8280 C.ar  237  TRP237      0.0015
    114  N        -43.6800    3.6070   -8.7210 N.3   239  CYS239     -0.1235
    115  CA       -44.6370    3.3760   -7.6340 C.3   239  CYS239      0.1677
    116  C        -46.0200    3.0930   -8.2440 C.2   239  CYS239      0.2270
    117  O        -46.2470    3.3250   -9.4200 O.2   239  CYS239     -0.2867
    118  CB       -44.7530    4.6070   -6.7440 C.3   239  CYS239      0.0956
    119  SG       -43.3450    4.7990   -5.5980 S.3   239  CYS239     -0.0801
    120  N        -40.7420    6.8730   -9.5550 N.3   249  CYS249     -0.1221
    121  CA       -40.5330    7.6190   -8.3150 C.3   249  CYS249      0.1808
    122  C        -39.1560    7.4360   -7.6840 C.2   249  CYS249      0.2601
    123  O        -38.8520    7.9960   -6.6080 O.2   249  CYS249     -0.2717
    124  CB       -41.6270    7.2690   -7.3160 C.3   249  CYS249      0.0970
    125  SG       -41.5510    5.5630   -7.0220 S.3   249  CYS249     -0.0800
    126  N        -38.3220    6.6600   -8.3610 N.am  250  ALA250     -0.1979
    127  CA       -36.9510    6.4630   -7.8810 C.3   250  ALA250      0.1597
    128  C        -36.0200    6.0560   -9.0090 C.2   250  ALA250      0.2287
    129  O        -36.3080    5.1240   -9.7660 O.2   250  ALA250     -0.2864
    130  CB       -36.8990    5.4170   -6.7960 C.3   250  ALA250      0.0319
    131  N        -32.1060    4.9640   -9.4160 N.3   252  TYR252     -0.1241
    132  CA       -30.9180    4.6080   -8.6330 C.3   252  TYR252      0.1605
    133  C        -29.5320    5.0630   -9.1330 C.2   252  TYR252      0.2264
    134  O        -28.5140    4.9240   -8.4360 O.2   252  TYR252     -0.2867
    135  CB       -30.9810    3.1100   -8.3200 C.3   252  TYR252      0.0534
    136  CG       -32.2610    2.8260   -7.5770 C.ar  252  TYR252     -0.0201
    137  CD1      -33.4280    2.4910   -8.2690 C.ar  252  TYR252     -0.0009
    138  CD2      -32.3400    3.0130   -6.1890 C.ar  252  TYR252     -0.0009
    139  CE1      -34.6560    2.3630   -7.5930 C.ar  252  TYR252      0.0417
    140  CE2      -33.5640    2.8800   -5.5060 C.ar  252  TYR252      0.0417
    141  CZ       -34.7030    2.5580   -6.2220 C.ar  252  TYR252      0.1957
    142  OH       -35.8910    2.3880   -5.5920 O.3   252  TYR252     -0.2866
    143  N        -33.5480   -3.2900  -11.5560 N.3   280  HIS280     -0.1241
    144  CA       -33.8270   -3.0930  -10.1440 C.3   280  HIS280      0.1621
    145  C        -34.3690   -4.3590   -9.4690 C.2   280  HIS280      0.2264
    146  O        -35.5850   -4.5760   -9.4360 O.2   280  HIS280     -0.2867
    147  CB       -34.8460   -1.9700   -9.9640 C.3   280  HIS280      0.0745
    148  CG       -34.9350   -1.4820   -8.5540 C.ar  280  HIS280      0.0817
    149  ND1      -33.8880   -0.8400   -7.9330 N.ar  280  HIS280     -0.2268
    150  CD2      -35.8940   -1.6480   -7.6040 C.ar  280  HIS280      0.1154
    151  CE1      -34.1860   -0.6390   -6.6580 C.ar  280  HIS280      0.1986
    152  NE2      -35.3980   -1.1220   -6.4280 N.ar  280  HIS280     -0.2212
@<TRIPOS>BOND
     1   143   144    1
     2    87    88   ar
     3    87    85   ar
     4    88    86   ar
     5   100   101    1
     6   144   147    1
     7   144   145    1
     8    85    83   ar
     9   147   148    1
    10   102   103    2
    11   102   101    1
    12   129   128    2
    13   101   104    1
    14    86    84   ar
    15   120   121    1
    16   145   146    2
    17   117   116    2
    18   131   132    1
    19   133   132    1
    20   133   134    2
    21   128   127    1
    22    83    84   ar
    23    83    82    1
    24   114   115    1
    25    81    80    2
    26   132   135    1
    27   148   149   ar
    28   148   150   ar
    29    80    79    1
    30   126   127    1
    31   126   122   am
    32   135   136    1
    33   121   122    1
    34   121   124    1
    35   137   139   ar
    36   137   136   ar
    37   116   115    1
    38   104   105    1
    39   149   151   ar
    40   127   130    1
    41   110   112   ar
    42   110   107   ar
    43    82    79    1
    44   122   123    2
    45   115   118    1
    46   112   113   ar
    47   150   152   ar
    48   139   141   ar
    49   136   138   ar
    50   105   107   ar
    51   105   106   ar
    52   107   109   ar
    53   124   125    1
    54    79    78    1
    55   125   119    1
    56   113   111   ar
    57   118   119    1
    58   151   152   ar
    59   106   108   ar
    60   109   111   ar
    61   109   108   ar
    62   141   142    1
    63   141   140   ar
    64   138   140   ar
    65    64    63   ar
    66    63    65   ar
    67    63    62    1
    68    43    42    1
    69    42    39    1
    70    62    61    1
    71    39    38    1
    72    39    40    1
    73    58    57    1
    74    58    61    1
    75    58    59    1
    76    28    26   ar
    77    28    27   ar
    78    26    24   ar
    79     5     6    1
    80     5     2    1
    81    40    41    2
    82    40    44   am
    83    59    60    2
    84    27    25   ar
    85    66    67    1
    86     1     2    1
    87     3     2    1
    88     3     4    2
    89    44    45    1
    90    67    68    1
    91    67    70    1
    92    24    23   ar
    93    24    22   ar
    94    68    69    2
    95    72    74   ar
    96    72    71   ar
    97    23    21   ar
    98    99    97    1
    99    74    76   ar
   100    25    22   ar
   101    55    54    1
   102    22    20   ar
   103    45    48    1
   104    45    46    1
   105    70    71    1
   106    71    73   ar
   107    21    20   ar
   108    76    77    1
   109    76    75   ar
   110    48    49    1
   111    13    12    2
   112    20    19    1
   113    50    51    1
   114    97    96    2
   115    97    98    1
   116    54    51    1
   117    54    56    1
   118    46    47    2
   119    96    95    1
   120    14    12   am
   121    51    52    1
   122    73    75   ar
   123    12    11    1
   124    19    16    1
   125    37    35   ar
   126    10     9    2
   127    95    94    1
   128    89    90    1
   129    16    15    1
   130    16    17    1
   131    52    53    2
   132    11     8    1
   133    35    36   ar
   134    35    34    1
   135    94    93    1
   136    93    90    1
   137     9    15   am
   138     9     8    1
   139    90    91    1
   140     8     7    1
   141    17    18    2
   142    34    33    1
   143    91    92    2
   144    33    30    1
   145    32    31    2
   146    31    30    1
   147    30    29    1
