@<TRIPOS>MOLECULE
tmp/3wwgC07.pdb
 119 112 0 0 0
SMALL
GASTEIGER

@<TRIPOS>ATOM
      1  N         37.2400    3.2340    2.5650 N.3    70  GLN70      -0.1245
      2  CA        36.7590    3.6630    3.8820 C.3    70  GLN70       0.1566
      3  C         37.5950    3.1030    5.0380 C.2    70  GLN70       0.2260
      4  O         37.3730    3.4540    6.1890 O.2    70  GLN70      -0.2867
      5  CB        35.2880    3.2750    4.0580 C.3    70  GLN70       0.0367
      6  CG        34.3740    3.9080    3.0150 C.3    70  GLN70       0.0905
      7  CD        34.4870    5.4280    2.9980 C.2    70  GLN70       0.2608
      8  OE1       34.5200    6.0620    4.0560 O.2    70  GLN70      -0.2717
      9  NE2       34.5680    6.0140    1.8060 N.am   70  GLN70      -0.0878
     10  N         37.4430   14.5920  -12.5740 N.3   270  ASN270     -0.1240
     11  CA        36.3370   13.7000  -12.9820 C.3   270  ASN270      0.1653
     12  C         36.5800   12.8780  -14.2580 C.2   270  ASN270      0.2266
     13  O         35.6280   12.4350  -14.9080 O.2   270  ASN270     -0.2867
     14  CB        35.0140   14.4890  -13.0960 C.3   270  ASN270      0.1155
     15  CG        34.3650   14.7380  -11.7450 C.2   270  ASN270      0.2627
     16  OD1       34.1950   13.8190  -10.9440 O.2   270  ASN270     -0.2716
     17  ND2       33.9920   15.9850  -11.4900 N.am  270  ASN270     -0.0877
     18  N         33.7760    7.1790   -4.6780 N.3   328  GLN328     -0.1245
     19  CA        33.2970    7.6740   -5.9730 C.3   328  GLN328      0.1566
     20  C         32.9920    6.5550   -6.9850 C.2   328  GLN328      0.2260
     21  O         33.1570    6.7190   -8.1970 O.2   328  GLN328     -0.2867
     22  CB        34.2750    8.7370   -6.5090 C.3   328  GLN328      0.0367
     23  CG        34.4880    9.8460   -5.4800 C.3   328  GLN328      0.0905
     24  CD        35.4970   10.9030   -5.8860 C.2   328  GLN328      0.2608
     25  OE1       36.4050   11.2330   -5.1160 O.2   328  GLN328     -0.2717
     26  NE2       35.3390   11.4510   -7.0840 N.am  328  GLN328     -0.0878
     27  N         30.0940    5.3730   -8.1260 N.3   330  ASP330     -0.1239
     28  CA        28.7080    5.5890   -8.5380 C.3   330  ASP330      0.1674
     29  C         28.0430    4.3750   -9.1830 C.2   330  ASP330      0.2266
     30  O         28.6940    3.5860   -9.8660 O.2   330  ASP330     -0.2867
     31  CB        28.6750    6.7030   -9.5990 C.3   330  ASP330      0.1410
     32  CG        29.0590    8.0610   -9.0580 C.2   330  ASP330      0.3668
     33  OD1       29.6790    8.1480   -7.9750 O.co2 330  ASP330     -0.2456
     34  OD2       28.7490    9.0610   -9.7410 O.co2 330  ASP330     -0.2456
     35  N         29.3480    5.5800   -3.4130 N.3   349  ASP349     -0.1225
     36  CA        28.9590    6.9450   -3.7830 C.3   349  ASP349      0.1805
     37  C         27.5290    6.9090   -4.3070 C.2   349  ASP349      0.2597
     38  O         26.8080    5.9360   -4.0480 O.2   349  ASP349     -0.2718
     39  CB        29.9320    7.5300   -4.8030 C.3   349  ASP349      0.1424
     40  CG        30.0330    9.0490   -4.7230 C.2   349  ASP349      0.3668
     41  OD1       29.0270    9.7210   -5.0170 O.co2 349  ASP349     -0.2456
     42  OD2       31.1190    9.5760   -4.3800 O.co2 349  ASP349     -0.2456
     43  N         27.1170    7.9680   -5.0080 N.am  350  ASP350     -0.1974
     44  CA        25.7380    8.1130   -5.4850 C.3   350  ASP350      0.1709
     45  C         25.2050    6.8230   -6.0980 C.2   350  ASP350      0.2293
     46  O         25.7770    6.2980   -7.0550 O.2   350  ASP350     -0.2864
     47  CB        25.6440    9.2520   -6.4990 C.3   350  ASP350      0.1436
     48  CG        25.7130   10.6080   -5.8460 C.2   350  ASP350      0.3671
     49  OD1       25.1470   10.7450   -4.7490 O.co2 350  ASP350     -0.2456
     50  OD2       26.3030   11.5450   -6.4310 O.co2 350  ASP350     -0.2456
     51  N         29.3980    6.6320    1.8660 N.3   371  VAL371     -0.1231
     52  CA        29.3270    7.9810    1.2570 C.3   371  VAL371      0.1692
     53  C         28.1550    8.1520    0.2650 C.2   371  VAL371      0.2591
     54  O         27.8450    7.2510   -0.5300 O.2   371  VAL371     -0.2718
     55  CB        30.6560    8.3410    0.5530 C.3   371  VAL371      0.0266
     56  CG1       30.5890    9.7100   -0.1180 C.3   371  VAL371      0.0020
     57  CG2       31.8060    8.3170    1.5510 C.3   371  VAL371      0.0020
     58  N         27.5240    9.3240    0.3300 N.am  372  ALA372     -0.1980
     59  CA        26.4740    9.7660   -0.5990 C.3   372  ALA372      0.1597
     60  C         25.1230    9.0830   -0.3720 C.2   372  ALA372      0.2287
     61  O         25.0560    7.9920    0.2050 O.2   372  ALA372     -0.2864
     62  CB        26.9300    9.6050   -2.0470 C.3   372  ALA372      0.0319
     63  N         23.6520   18.2410   -6.9050 N.3   379  TRP379     -0.1241
     64  CA        24.8360   18.6160   -7.7030 C.3   379  TRP379      0.1605
     65  C         24.6070   19.7520   -8.7040 C.2   379  TRP379      0.2264
     66  O         25.3470   20.7300   -8.7110 O.2   379  TRP379     -0.2867
     67  CB        25.4400   17.4190   -8.4420 C.3   379  TRP379      0.0550
     68  CG        25.9970   16.3260   -7.5790 C.ar  379  TRP379      0.0003
     69  CD1       25.6310   15.0080   -7.5970 C.ar  379  TRP379      0.0946
     70  CD2       27.0460   16.4360   -6.6050 C.ar  379  TRP379      0.0152
     71  NE1       26.3780   14.2910   -6.6930 N.ar  379  TRP379     -0.2442
     72  CE2       27.2520   15.1410   -6.0660 C.ar  379  TRP379      0.0810
     73  CE3       27.8320   17.4990   -6.1340 C.ar  379  TRP379      0.0012
     74  CZ2       28.2060   14.8830   -5.0780 C.ar  379  TRP379      0.0191
     75  CZ3       28.7820   17.2460   -5.1510 C.ar  379  TRP379      0.0001
     76  CH2       28.9650   15.9430   -4.6340 C.ar  379  TRP379      0.0015
     77  N         29.3960   10.1720    9.3320 N.3   401  ASN401     -0.1240
     78  CA        29.1890   11.5820    9.6880 C.3   401  ASN401      0.1653
     79  C         28.3570   12.3330    8.6390 C.2   401  ASN401      0.2266
     80  O         28.0920   11.8140    7.5450 O.2   401  ASN401     -0.2867
     81  CB        30.5330   12.2820    9.8650 C.3   401  ASN401      0.1155
     82  CG        31.4330   12.1420    8.6440 C.2   401  ASN401      0.2627
     83  OD1       31.1220   12.6510    7.5650 O.2   401  ASN401     -0.2716
     84  ND2       32.5580   11.4580    8.8100 N.am  401  ASN401     -0.0877
     85  N         29.2590   14.7970    6.8820 N.3   403  GLY403     -0.1210
     86  CA        30.1120   15.0770    5.7260 C.3   403  GLY403      0.1956
     87  C         30.0120   14.0460    4.6070 C.2   403  GLY403      0.2612
     88  O         30.3540   14.3380    3.4660 O.2   403  GLY403     -0.2717
     89  N         29.5350   12.8420    4.9260 N.am  404  ASN404     -0.1960
     90  CA        29.3290   11.8070    3.9130 C.3   404  ASN404      0.1819
     91  C         28.1270   12.0650    2.9860 C.2   404  ASN404      0.2621
     92  O         27.9350   11.3360    2.0170 O.2   404  ASN404     -0.2715
     93  CB        29.1320   10.4440    4.5710 C.3   404  ASN404      0.1195
     94  CG        30.3330    9.9970    5.3820 C.2   404  ASN404      0.2630
     95  OD1       31.4920   10.2990    5.0720 O.2   404  ASN404     -0.2716
     96  ND2       30.0570    9.2610    6.4270 N.am  404  ASN404     -0.0877
     97  N         27.3240   13.0870    3.2910 N.am  405  ASN405     -0.1972
     98  CA        26.0400   13.3230    2.6080 C.3   405  ASN405      0.1688
     99  C         25.1580   12.0780    2.6330 C.2   405  ASN405      0.2292
    100  O         24.8110   11.5480    1.5840 O.2   405  ASN405     -0.2864
    101  CB        26.2630   13.7700    1.1650 C.3   405  ASN405      0.1181
    102  CG        27.0730   15.0470    1.0730 C.2   405  ASN405      0.2629
    103  OD1       26.7430   16.0430    1.7050 O.2   405  ASN405     -0.2716
    104  ND2       28.1190   15.0290    0.2730 N.am  405  ASN405     -0.0877
    105  N         32.0110   21.3240   -4.3100 N.3   419  PRO419     -0.2102
    106  CA        32.2440   20.0300   -4.9670 C.3   419  PRO419      0.1504
    107  C         32.2660   18.8200   -4.0100 C.2   419  PRO419      0.2575
    108  O         32.3340   17.6800   -4.4750 O.2   419  PRO419     -0.2718
    109  CB        33.6070   20.2170   -5.6630 C.3   419  PRO419      0.0282
    110  CG        34.1360   21.5530   -5.2380 C.3   419  PRO419      0.0208
    111  CD        33.2630   22.0840   -4.1430 C.3   419  PRO419      0.0893
    112  N         32.2260   19.0740   -2.7000 N.am  420  ASP420     -0.1974
    113  CA        32.0300   18.0260   -1.6880 C.3   420  ASP420      0.1708
    114  C         30.5480   17.8750   -1.3180 C.2   420  ASP420      0.2293
    115  O         30.1870   16.9720   -0.5650 O.2   420  ASP420     -0.2864
    116  CB        32.8530   18.3220   -0.4220 C.3   420  ASP420      0.1436
    117  CG        32.3480   19.5490    0.3380 C.2   420  ASP420      0.3671
    118  OD1       32.4430   20.6730   -0.2090 O.co2 420  ASP420     -0.2456
    119  OD2       31.8540   19.3880    1.4760 O.co2 420  ASP420     -0.2456
@<TRIPOS>BOND
     1    13    12    2
     2    12    11    1
     3    14    11    1
     4    14    15    1
     5    11    10    1
     6    15    17   am
     7    15    16    2
     8    30    29    2
     9    34    32   ar
    10    31    32    1
    11    31    28    1
    12    29    28    1
    13    32    33   ar
    14    66    65    2
    15    65    64    1
    16    28    27    1
    17    67    64    1
    18    67    68    1
    19    21    20    2
    20    64    63    1
    21    69    68   ar
    22    69    71   ar
    23    68    70   ar
    24    26    24   am
    25    46    45    2
    26    20    19    1
    27    71    72   ar
    28    70    73   ar
    29    70    72   ar
    30    22    19    1
    31    22    23    1
    32    47    48    1
    33    47    44    1
    34    50    48   ar
    35    73    75   ar
    36    45    44    1
    37    72    74   ar
    38    19    18    1
    39    24    23    1
    40    24    25    2
    41    48    49   ar
    42   109   110    1
    43   109   106    1
    44    44    43    1
    45   110   111    1
    46    75    76   ar
    47    74    76   ar
    48    41    40   ar
    49    43    37   am
    50   106   105    1
    51   106   107    1
    52    39    40    1
    53    39    36    1
    54    40    42   ar
    55   108   107    2
    56   105   111    1
    57    37    38    2
    58    37    36    1
    59   107   112   am
    60    36    35    1
    61   112   113    1
    62    62    59    1
    63   113   114    1
    64   113   116    1
    65   114   115    2
    66    59    60    1
    67    59    58    1
    68    54    53    2
    69   116   117    1
    70    60    61    2
    71   118   117   ar
    72    56    55    1
    73    53    58   am
    74    53    52    1
    75   104   102   am
    76   117   119   ar
    77    55    52    1
    78    55    57    1
    79   102   101    1
    80   102   103    2
    81   101    98    1
    82    52    51    1
    83   100    99    2
    84     9     7   am
    85    92    91    2
    86     1     2    1
    87    98    99    1
    88    98    97    1
    89    91    97   am
    90    91    90    1
    91     7     6    1
    92     7     8    2
    93     6     5    1
    94    88    87    2
    95     2     5    1
    96     2     3    1
    97    90    93    1
    98    90    89    1
    99    93    94    1
   100    87    89   am
   101    87    86    1
   102     3     4    2
   103    95    94    2
   104    94    96   am
   105    86    85    1
   106    80    79    2
   107    83    82    2
   108    79    78    1
   109    82    84   am
   110    82    81    1
   111    77    78    1
   112    78    81    1
