@<TRIPOS>MOLECULE
tmp/3wwgB06.pdb
 130 124 0 0 0
SMALL
GASTEIGER

@<TRIPOS>ATOM
      1  N        -48.2640   19.6340   40.6670 N.3   272  ALA272     -0.1245
      2  CA       -46.8470   19.4800   40.3450 C.3   272  ALA272      0.1562
      3  C        -45.9430   19.9450   41.4950 C.2   272  ALA272      0.2260
      4  O        -44.9140   20.5910   41.2670 O.2   272  ALA272     -0.2867
      5  CB       -46.5190   20.2360   39.0670 C.3   272  ALA272      0.0290
      6  N        -44.0050   18.2190   43.4090 N.3   274  ASN274     -0.1240
      7  CA       -42.9230   17.2470   43.6250 C.3   274  ASN274      0.1653
      8  C        -43.1760   16.2880   44.8070 C.2   274  ASN274      0.2266
      9  O        -42.2480   15.6380   45.2990 O.2   274  ASN274     -0.2867
     10  CB       -41.5830   17.9810   43.7830 C.3   274  ASN274      0.1155
     11  CG       -40.4190   17.2170   43.1740 C.2   274  ASN274      0.2627
     12  OD1      -40.3160   17.0880   41.9520 O.2   274  ASN274     -0.2716
     13  ND2      -39.5270   16.7190   44.0230 N.am  274  ASN274     -0.0877
     14  N        -43.8000    7.4570   40.6540 N.3   303  PHE303     -0.1227
     15  CA       -43.0670    8.7240   40.6310 C.3   303  PHE303      0.1736
     16  C        -41.5810    8.4420   40.9210 C.2   303  PHE303      0.2595
     17  O        -41.1060    7.3270   40.6500 O.2   303  PHE303     -0.2718
     18  CB       -43.6940    9.6870   41.6620 C.3   303  PHE303      0.0547
     19  CG       -43.2510   11.1210   41.5170 C.ar  303  PHE303     -0.0202
     20  CD1      -43.3970   11.7900   40.3090 C.ar  303  PHE303     -0.0042
     21  CD2      -42.6930   11.8000   42.5880 C.ar  303  PHE303     -0.0042
     22  CE1      -42.9890   13.1010   40.1660 C.ar  303  PHE303     -0.0003
     23  CE2      -42.2750   13.1180   42.4500 C.ar  303  PHE303     -0.0003
     24  CZ       -42.4260   13.7700   41.2340 C.ar  303  PHE303     -0.0000
     25  N        -40.8480    9.4340   41.4400 N.am  304  ASN304     -0.1974
     26  CA       -39.4680    9.2410   41.9130 C.3   304  ASN304      0.1688
     27  C        -39.3980    8.0570   42.8290 C.2   304  ASN304      0.2292
     28  O        -40.3190    7.8370   43.6100 O.2   304  ASN304     -0.2864
     29  CB       -38.9590   10.4520   42.7030 C.3   304  ASN304      0.1181
     30  CG       -38.8810   11.7020   41.8760 C.2   304  ASN304      0.2629
     31  OD1      -38.7340   12.7900   42.4130 O.2   304  ASN304     -0.2716
     32  ND2      -39.0010   11.5620   40.5640 N.am  304  ASN304     -0.0877
     33  N        -40.7180   10.5900   35.1110 N.3   332  GLN332     -0.1245
     34  CA       -40.1400   10.8930   36.4200 C.3   332  GLN332      0.1566
     35  C        -39.8600    9.6700   37.3120 C.2   332  GLN332      0.2260
     36  O        -39.8320    9.7630   38.5360 O.2   332  GLN332     -0.2867
     37  CB       -40.9740   11.9820   37.1050 C.3   332  GLN332      0.0367
     38  CG       -41.0280   13.2300   36.2200 C.3   332  GLN332      0.0905
     39  CD       -41.7420   14.4090   36.8360 C.2   332  GLN332      0.2608
     40  OE1      -42.5800   15.0360   36.1920 O.2   332  GLN332     -0.2717
     41  NE2      -41.4030   14.7370   38.0620 N.am  332  GLN332     -0.0878
     42  N        -37.0840    8.0690   38.2180 N.3   334  ASP334     -0.1239
     43  CA       -35.6360    8.0650   38.4080 C.3   334  ASP334      0.1674
     44  C        -35.1500    6.9320   39.3200 C.2   334  ASP334      0.2266
     45  O        -35.9420    6.2560   39.9810 O.2   334  ASP334     -0.2867
     46  CB       -35.1700    9.4210   38.9480 C.3   334  ASP334      0.1410
     47  CG       -35.7650    9.7570   40.2890 C.2   334  ASP334      0.3668
     48  OD1      -36.4670    8.9150   40.8850 O.co2 334  ASP334     -0.2456
     49  OD2      -35.5280   10.8820   40.7510 O.co2 334  ASP334     -0.2456
     50  N        -36.2890    8.6040   33.8010 N.3   353  ASP353     -0.1225
     51  CA       -35.7820    9.8960   34.2490 C.3   353  ASP353      0.1805
     52  C        -34.3470    9.6980   34.7530 C.2   353  ASP353      0.2597
     53  O        -33.7070    8.7110   34.4000 O.2   353  ASP353     -0.2718
     54  CB       -36.7150   10.5050   35.3040 C.3   353  ASP353      0.1424
     55  CG       -36.6810   12.0390   35.3130 C.2   353  ASP353      0.3668
     56  OD1      -35.7540   12.6270   35.9220 O.co2 353  ASP353     -0.2456
     57  OD2      -37.5890   12.6590   34.7290 O.co2 353  ASP353     -0.2456
     58  N        -33.8310   10.6400   35.5410 N.am  354  ASP354     -0.1974
     59  CA       -32.4260   10.6270   35.9740 C.3   354  ASP354      0.1709
     60  C        -32.0480    9.2540   36.5030 C.2   354  ASP354      0.2293
     61  O        -32.6770    8.7470   37.4250 O.2   354  ASP354     -0.2864
     62  CB       -32.1950   11.6680   37.0770 C.3   354  ASP354      0.1436
     63  CG       -32.0860   13.0900   36.5440 C.2   354  ASP354      0.3671
     64  OD1      -31.6310   13.2680   35.3960 O.co2 354  ASP354     -0.2456
     65  OD2      -32.4370   14.0380   37.2920 O.co2 354  ASP354     -0.2456
     66  N        -27.9060    9.4390   39.9320 N.3   357  LYS357     -0.1245
     67  CA       -27.9340   10.7940   40.4360 C.3   357  LYS357      0.1561
     68  C        -26.7090   11.0480   41.3000 C.2   357  LYS357      0.2260
     69  O        -26.6700   10.6810   42.4820 O.2   357  LYS357     -0.2867
     70  CB       -29.2370   11.0510   41.1730 C.3   357  LYS357      0.0271
     71  CG       -30.4180   10.9890   40.2020 C.3   357  LYS357      0.0035
     72  CD       -31.7420   10.7340   40.8910 C.3   357  LYS357      0.0206
     73  CE       -32.1960   11.9890   41.6130 C.3   357  LYS357      0.1093
     74  NZ       -33.5820   11.8090   42.1410 N.3   357  LYS357     -0.1314
     75  N        -25.2300   13.2480   43.2170 N.3   359  TYR359     -0.1241
     76  CA       -25.5240   14.4480   44.0060 C.3   359  TYR359      0.1605
     77  C        -24.7520   14.5130   45.3180 C.2   359  TYR359      0.2264
     78  O        -24.8290   15.5280   46.0210 O.2   359  TYR359     -0.2867
     79  CB       -27.0090   14.4950   44.3610 C.3   359  TYR359      0.0534
     80  CG       -27.9940   14.6300   43.2010 C.ar  359  TYR359     -0.0201
     81  CD1      -27.5710   14.8520   41.8940 C.ar  359  TYR359     -0.0009
     82  CD2      -29.3600   14.5730   43.4410 C.ar  359  TYR359     -0.0009
     83  CE1      -28.4750   14.9820   40.8640 C.ar  359  TYR359      0.0417
     84  CE2      -30.2770   14.7290   42.4140 C.ar  359  TYR359      0.0417
     85  CZ       -29.8240   14.9210   41.1290 C.ar  359  TYR359      0.1957
     86  OH       -30.7120   15.0580   40.1030 O.3   359  TYR359     -0.2866
     87  N        -29.3050   20.5720   37.9900 N.3   383  TRP383     -0.1227
     88  CA       -30.4830   21.0130   38.7960 C.3   383  TRP383      0.1737
     89  C        -30.1720   21.9820   39.9440 C.2   383  TRP383      0.2596
     90  O        -30.8620   22.9840   40.1090 O.2   383  TRP383     -0.2718
     91  CB       -31.2850   19.8350   39.3900 C.3   383  TRP383      0.0564
     92  CG       -31.8900   18.8840   38.4140 C.ar  383  TRP383      0.0003
     93  CD1      -31.6380   17.5460   38.3220 C.ar  383  TRP383      0.0946
     94  CD2      -32.8660   19.1740   37.4100 C.ar  383  TRP383      0.0152
     95  NE1      -32.3870   16.9850   37.3220 N.ar  383  TRP383     -0.2442
     96  CE2      -33.1520   17.9600   36.7430 C.ar  383  TRP383      0.0810
     97  CE3      -33.5270   20.3400   37.0060 C.ar  383  TRP383      0.0012
     98  CZ2      -34.0640   17.8790   35.6850 C.ar  383  TRP383      0.0191
     99  CZ3      -34.4420   20.2590   35.9450 C.ar  383  TRP383      0.0001
    100  CH2      -34.6980   19.0360   35.3010 C.ar  383  TRP383      0.0015
    101  N        -29.1860   21.6470   40.7730 N.am  384  THR384     -0.1953
    102  CA       -28.7530   22.5040   41.8810 C.3   384  THR384      0.1897
    103  C        -27.2330   22.3780   42.0350 C.2   384  THR384      0.2313
    104  O        -26.7040   21.2650   41.9750 O.2   384  THR384     -0.2863
    105  CB       -29.4170   22.0830   43.2100 C.3   384  THR384      0.1794
    106  OG1      -30.8380   21.9710   43.0390 O.3   384  THR384     -0.2208
    107  CG2      -29.1360   23.1080   44.3070 C.3   384  THR384      0.0378
    108  N        -23.5270   22.0980   43.7510 N.3   386  ARG386     -0.1245
    109  CA       -23.1530   21.2420   44.8640 C.3   386  ARG386      0.1563
    110  C        -21.6460   21.2050   45.0500 C.2   386  ARG386      0.2260
    111  O        -20.8740   21.3750   44.0970 O.2   386  ARG386     -0.2867
    112  CB       -23.6220   19.7910   44.6510 C.3   386  ARG386      0.0307
    113  CG       -25.0370   19.6200   44.1500 C.3   386  ARG386      0.0489
    114  CD       -25.4910   18.1620   44.1650 C.3   386  ARG386      0.2205
    115  NE       -26.8800   18.0460   43.7150 N.pl3 386  ARG386     -0.0865
    116  CZ       -27.2970   18.1650   42.4520 C.cat 386  ARG386      0.5346
    117  NH1      -26.4470   18.3790   41.4550 N.pl3 386  ARG386      0.1354
    118  NH2      -28.5950   18.0660   42.1810 N.pl3 386  ARG386      0.1354
    119  N        -32.9100   24.5750   38.3630 N.3   419  TYR419     -0.1241
    120  CA       -34.3760   24.6940   38.4140 C.3   419  TYR419      0.1605
    121  C        -34.8430   26.0370   39.0320 C.2   419  TYR419      0.2264
    122  O        -35.9260   26.5300   38.7000 O.2   419  TYR419     -0.2867
    123  CB       -35.0130   23.4760   39.1090 C.3   419  TYR419      0.0534
    124  CG       -35.0260   23.5080   40.6220 C.ar  419  TYR419     -0.0201
    125  CD1      -33.9050   23.1210   41.3600 C.ar  419  TYR419     -0.0009
    126  CD2      -36.1710   23.8980   41.3200 C.ar  419  TYR419     -0.0009
    127  CE1      -33.9170   23.1390   42.7470 C.ar  419  TYR419      0.0417
    128  CE2      -36.1930   23.9160   42.7080 C.ar  419  TYR419      0.0417
    129  CZ       -35.0630   23.5350   43.4160 C.ar  419  TYR419      0.1957
    130  OH       -35.0770   23.5500   44.7900 O.3   419  TYR419     -0.2866
@<TRIPOS>BOND
     1    50    51    1
     2    51    52    1
     3    51    54    1
     4    53    52    2
     5    57    55   ar
     6    52    58   am
     7    33    34    1
     8   100    98   ar
     9   100    99   ar
    10    54    55    1
    11    55    56   ar
    12    64    63   ar
    13    58    59    1
    14    98    96   ar
    15    99    97   ar
    16    59    60    1
    17    59    62    1
    18    40    39    2
    19    38    39    1
    20    38    37    1
    21    34    37    1
    22    34    35    1
    23    60    61    2
    24    63    62    1
    25    63    65   ar
    26    96    95   ar
    27    96    94   ar
    28    39    41   am
    29    97    94   ar
    30    35    36    2
    31    95    93   ar
    32    94    92   ar
    33    87    88    1
    34    42    43    1
    35    93    92   ar
    36   119   120    1
    37    43    46    1
    38    43    44    1
    39   120   121    1
    40   120   123    1
    41    92    91    1
    42   122   121    2
    43    88    91    1
    44    88    89    1
    45    46    47    1
    46     5     2    1
    47   123   124    1
    48    44    45    2
    49    66    67    1
    50    89    90    2
    51    89   101   am
    52    86    85    1
    53    22    20   ar
    54    22    24   ar
    55    71    72    1
    56    71    70    1
    57    47    49   ar
    58    47    48   ar
    59    20    19   ar
    60     2     1    1
    61     2     3    1
    62    67    70    1
    63    67    68    1
    64    32    30   am
    65   124   126   ar
    66   124   125   ar
    67    15    14    1
    68    15    16    1
    69    15    18    1
    70    17    16    2
    71   101   102    1
    72    83    85   ar
    73    83    81   ar
    74    72    73    1
    75    16    25   am
    76    85    84   ar
    77    24    23   ar
    78     4     3    2
    79    68    69    2
    80   126   128   ar
    81   125   127   ar
    82    25    26    1
    83   117   116    1
    84    19    18    1
    85    19    21   ar
    86    73    74    1
    87    30    31    2
    88    30    29    1
    89   102   103    1
    90   102   105    1
    91    81    80   ar
    92    26    29    1
    93    26    27    1
    94    12    11    2
    95   104   103    2
    96   118   116    1
    97    84    82   ar
    98    23    21   ar
    99   116   115    2
   100   128   129   ar
   101   127   129   ar
   102    27    28    2
   103   106   105    1
   104    11    10    1
   105    11    13   am
   106    80    82   ar
   107    80    79    1
   108   105   107    1
   109    75    76    1
   110     6     7    1
   111   129   130    1
   112     7    10    1
   113     7     8    1
   114   115   114    1
   115   108   109    1
   116    76    79    1
   117    76    77    1
   118   111   110    2
   119   113   114    1
   120   113   112    1
   121   112   109    1
   122     8     9    2
   123   109   110    1
   124    77    78    2
