@<TRIPOS>MOLECULE
tmp/3wwhA00.pdb
 191 183 0 0 0
SMALL
GASTEIGER

@<TRIPOS>ATOM
      1  N          6.2800    8.9610   22.7970 N.3    66  TYR66      -0.1241
      2  CA         7.3710    8.9170   23.7700 C.3    66  TYR66       0.1605
      3  C          8.6830    9.3130   23.1500 C.2    66  TYR66       0.2264
      4  O          8.7950    9.4590   21.9560 O.2    66  TYR66      -0.2867
      5  CB         7.4930    7.5200   24.3890 C.3    66  TYR66       0.0534
      6  CG         8.1630    6.4690   23.5370 C.ar   66  TYR66      -0.0201
      7  CD1        7.5830    6.0360   22.3470 C.ar   66  TYR66      -0.0009
      8  CD2        9.3670    5.8910   23.9220 C.ar   66  TYR66      -0.0009
      9  CE1        8.1850    5.0560   21.5790 C.ar   66  TYR66       0.0417
     10  CE2        9.9560    4.8950   23.1730 C.ar   66  TYR66       0.0417
     11  CZ         9.3730    4.4950   21.9800 C.ar   66  TYR66       0.1957
     12  OH         9.9660    3.5070   21.2130 O.3    66  TYR66      -0.2866
     13  N         13.0610    8.2940   24.1670 N.3    68  VAL68      -0.1245
     14  CA        14.0690    7.7850   25.0790 C.3    68  VAL68       0.1561
     15  C         15.3350    8.6180   24.8850 C.2    68  VAL68       0.2260
     16  O         15.8670    8.7020   23.7660 O.2    68  VAL68      -0.2867
     17  CB        14.3730    6.3030   24.8370 C.3    68  VAL68       0.0252
     18  CG1       15.5970    5.8480   25.6210 C.3    68  VAL68       0.0019
     19  CG2       13.1600    5.4440   25.1700 C.3    68  VAL68       0.0019
     20  N         15.4530   15.9260   22.3030 N.3    82  HIS82      -0.1241
     21  CA        14.5300   14.8570   22.6400 C.3    82  HIS82       0.1621
     22  C         13.1700   15.3530   23.1020 C.2    82  HIS82       0.2264
     23  O         12.1480   14.8630   22.6520 O.2    82  HIS82      -0.2867
     24  CB        15.1480   13.9360   23.6940 C.3    82  HIS82       0.0745
     25  CG        15.8350   12.7700   23.0790 C.ar   82  HIS82       0.0817
     26  ND1       17.1970   12.6980   22.8990 N.ar   82  HIS82      -0.2268
     27  CD2       15.3190   11.6620   22.5100 C.ar   82  HIS82       0.1154
     28  CE1       17.4930   11.5660   22.2900 C.ar   82  HIS82       0.1986
     29  NE2       16.3680   10.9210   22.0400 N.ar   82  HIS82      -0.2212
     30  N         11.2490   16.9460   20.2990 N.3    85  ARG85      -0.1245
     31  CA        10.6200   15.9390   19.4370 C.3    85  ARG85       0.1563
     32  C          9.4070   15.3060   20.0930 C.2    85  ARG85       0.2260
     33  O          8.3660   15.1350   19.4610 O.2    85  ARG85      -0.2867
     34  CB        11.6190   14.8600   19.0200 C.3    85  ARG85       0.0307
     35  CG        11.0430   13.8620   18.0180 C.3    85  ARG85       0.0489
     36  CD        12.0590   12.8130   17.6230 C.3    85  ARG85       0.2205
     37  NE        12.3160   11.8790   18.7100 N.pl3  85  ARG85      -0.0865
     38  CZ        13.2770   10.9650   18.7070 C.cat  85  ARG85       0.5346
     39  NH1       14.1000   10.8490   17.6640 N.pl3  85  ARG85       0.1354
     40  NH2       13.4230   10.1560   19.7510 N.pl3  85  ARG85       0.1354
     41  N          7.1190   -1.6740    6.6200 N.3   176  ARG176     -0.1245
     42  CA         6.9180   -0.6670    7.6610 C.3   176  ARG176      0.1563
     43  C          5.5090   -0.0940    7.5360 C.2   176  ARG176      0.2260
     44  O          5.0490    0.2180    6.4240 O.2   176  ARG176     -0.2867
     45  CB         7.9470    0.4560    7.5180 C.3   176  ARG176      0.0307
     46  CG         7.9660    1.4590    8.6600 C.3   176  ARG176      0.0489
     47  CD         8.6460    0.8940    9.9100 C.3   176  ARG176      0.2205
     48  NE         8.6370    1.8640   11.0110 N.pl3 176  ARG176     -0.0865
     49  CZ         7.7290    1.9200   11.9870 C.cat 176  ARG176      0.5346
     50  NH1        6.7430    1.0340   12.0900 N.pl3 176  ARG176      0.1354
     51  NH2        7.8300    2.8640   12.9070 N.pl3 176  ARG176      0.1354
     52  N          5.2320    6.9180   10.8080 N.3   184  PRO184     -0.2116
     53  CA         6.4790    6.4480   11.4230 C.3   184  PRO184      0.1372
     54  C          7.4080    7.5730   11.8650 C.2   184  PRO184      0.2244
     55  O          8.3960    7.2900   12.5220 O.2   184  PRO184     -0.2868
     56  CB         7.1380    5.6340   10.3140 C.3   184  PRO184      0.0268
     57  CG         6.6840    6.3240    9.0690 C.3   184  PRO184      0.0207
     58  CD         5.2670    6.7620    9.3420 C.3   184  PRO184      0.0892
     59  N          7.1580    9.0410   17.0910 N.3   187  LYS187     -0.1231
     60  CA         7.6440    7.9010   17.8540 C.3   187  LYS187      0.1693
     61  C          6.4900    7.2910   18.6400 C.2   187  LYS187      0.2592
     62  O          5.7470    8.0090   19.2970 O.2   187  LYS187     -0.2718
     63  CB         8.7640    8.3370   18.7990 C.3   187  LYS187      0.0285
     64  CG         9.7270    7.2300   19.1150 C.3   187  LYS187      0.0035
     65  CD        10.9390    7.7780   19.8570 C.3   187  LYS187      0.0206
     66  CE        11.7670    6.6790   20.4770 C.3   187  LYS187      0.1093
     67  NZ        12.0140    5.6070   19.4840 N.3   187  LYS187     -0.1314
     68  N          6.3200    5.9830   18.5420 N.am  188  ASN188     -0.1974
     69  CA         5.1360    5.3310   19.0780 C.3   188  ASN188      0.1688
     70  C          5.4260    3.9140   19.5360 C.2   188  ASN188      0.2292
     71  O          6.4670    3.3470   19.1950 O.2   188  ASN188     -0.2864
     72  CB         3.9960    5.3810   18.0350 C.3   188  ASN188      0.1181
     73  CG         4.2470    4.4930   16.8370 C.2   188  ASN188      0.2629
     74  OD1        4.2260    3.2680   16.9420 O.2   188  ASN188     -0.2716
     75  ND2        4.4690    5.1060   15.6720 N.am  188  ASN188     -0.0877
     76  N          4.2810   -1.3390   17.7400 N.3   191  TRP191     -0.1241
     77  CA         5.3930   -2.0850   17.1320 C.3   191  TRP191      0.1605
     78  C          5.0070   -3.3860   16.4130 C.2   191  TRP191      0.2264
     79  O          5.8570   -4.2740   16.2110 O.2   191  TRP191     -0.2867
     80  CB         6.4360   -2.3870   18.2230 C.3   191  TRP191      0.0550
     81  CG         7.3990   -1.2840   18.4460 C.ar  191  TRP191      0.0003
     82  CD1        7.1180    0.0400   18.6250 C.ar  191  TRP191      0.0946
     83  CD2        8.8160   -1.4130   18.5950 C.ar  191  TRP191      0.0152
     84  NE1        8.2750    0.7440   18.8450 N.ar  191  TRP191     -0.2442
     85  CE2        9.3320   -0.1260   18.8280 C.ar  191  TRP191      0.0810
     86  CE3        9.6990   -2.4980   18.5430 C.ar  191  TRP191      0.0012
     87  CZ2       10.7020    0.1100   19.0240 C.ar  191  TRP191      0.0191
     88  CZ3       11.0570   -2.2570   18.7210 C.ar  191  TRP191      0.0001
     89  CH2       11.5360   -0.9680   18.9530 C.ar  191  TRP191      0.0015
     90  N          7.2730   -4.0060   13.4360 N.3   194  LEU194     -0.1245
     91  CA         8.6620   -4.1480   13.8720 C.3   194  LEU194      0.1561
     92  C          8.8950   -5.4740   14.5890 C.2   194  LEU194      0.2260
     93  O          9.9060   -6.1370   14.3670 O.2   194  LEU194     -0.2867
     94  CB         9.0560   -2.9790   14.7830 C.3   194  LEU194      0.0270
     95  CG         8.8690   -1.5890   14.1540 C.3   194  LEU194      0.0019
     96  CD1        9.3740   -0.5040   15.0800 C.3   194  LEU194      0.0001
     97  CD2        9.5800   -1.5190   12.8120 C.3   194  LEU194      0.0001
     98  N         13.5130    1.5320    7.9090 N.3   220  GLU220     -0.1231
     99  CA        14.3100    1.5640    9.1210 C.3   220  GLU220      0.1699
    100  C         14.2610    0.1670    9.7570 C.2   220  GLU220      0.2592
    101  O         13.6330   -0.7600    9.2240 O.2   220  GLU220     -0.2718
    102  CB        13.7740    2.6280   10.0870 C.3   220  GLU220      0.0402
    103  CG        12.3730    2.3700   10.6280 C.3   220  GLU220      0.1161
    104  CD        11.8500    3.5110   11.4950 C.2   220  GLU220      0.3649
    105  OE1       12.6560    4.2810   12.0330 O.co2 220  GLU220     -0.2457
    106  OE2       10.6170    3.6460   11.6150 O.co2 220  GLU220     -0.2457
    107  N         14.9230    0.0250   10.8950 N.am  221  GLY221     -0.1957
    108  CA        14.8990   -1.2300   11.6570 C.3   221  GLY221      0.1869
    109  C         13.9880   -1.2030   12.8720 C.2   221  GLY221      0.2309
    110  O         13.2280   -0.2400   13.1020 O.2   221  GLY221     -0.2863
    111  N         13.4930   -0.2810   15.9340 N.3   223  GLY223     -0.1210
    112  CA        13.9370    0.6830   16.9160 C.3   223  GLY223      0.1956
    113  C         15.2630    1.3410   16.5860 C.2   223  GLY223      0.2612
    114  O         15.9250    1.8330   17.4720 O.2   223  GLY223     -0.2717
    115  N         15.6510    1.3740   15.3170 N.am  224  PHE224     -0.1962
    116  CA        16.8990    2.0060   14.9260 C.3   224  PHE224      0.1771
    117  C         16.8050    2.4820   13.4880 C.2   224  PHE224      0.2619
    118  O         16.0070    1.9510   12.7100 O.2   224  PHE224     -0.2715
    119  CB        18.0990    1.0650   15.1320 C.3   224  PHE224      0.0574
    120  CG        18.0370   -0.2160   14.3320 C.ar  224  PHE224     -0.0200
    121  CD1       18.5290   -0.2700   13.0370 C.ar  224  PHE224     -0.0042
    122  CD2       17.5060   -1.3790   14.8860 C.ar  224  PHE224     -0.0042
    123  CE1       18.4810   -1.4480   12.3120 C.ar  224  PHE224     -0.0003
    124  CE2       17.4610   -2.5590   14.1650 C.ar  224  PHE224     -0.0003
    125  CZ        17.9370   -2.5930   12.8730 C.ar  224  PHE224     -0.0000
    126  N         17.6130    3.4740   13.1430 N.am  225  ASN225     -0.1972
    127  CA        17.7250    3.9450   11.7580 C.3   225  ASN225      0.1688
    128  C         18.8800    3.2480   11.0500 C.2   225  ASN225      0.2292
    129  O         19.7880    2.7280   11.6950 O.2   225  ASN225     -0.2864
    130  CB        17.9340    5.4600   11.7260 C.3   225  ASN225      0.1181
    131  CG        16.7400    6.2320   12.2470 C.2   225  ASN225      0.2629
    132  OD1       16.8620    6.9890   13.1930 O.2   225  ASN225     -0.2716
    133  ND2       15.5680    6.0340   11.6380 N.am  225  ASN225     -0.0877
    134  N         11.8030    7.0240   11.6540 N.3   242  LEU242     -0.1245
    135  CA        11.7750    8.0490   12.6750 C.3   242  LEU242      0.1561
    136  C         12.9350    9.0020   12.4520 C.2   242  LEU242      0.2260
    137  O         14.0470    8.5500   12.1720 O.2   242  LEU242     -0.2867
    138  CB        11.9100    7.4420   14.0700 C.3   242  LEU242      0.0270
    139  CG        11.6560    8.4500   15.2140 C.3   242  LEU242      0.0019
    140  CD1       10.1700    8.7110   15.3900 C.3   242  LEU242      0.0001
    141  CD2       12.3270    8.0260   16.4960 C.3   242  LEU242      0.0001
    142  N         15.5180   10.1450   13.9000 N.3   244  GLY244     -0.1210
    143  CA        16.3310    9.7680   15.0290 C.3   244  GLY244      0.1956
    144  C         17.2780   10.8690   15.4280 C.2   244  GLY244      0.2612
    145  O         17.8110   11.5730   14.5700 O.2   244  GLY244     -0.2717
    146  N         17.4730   11.0240   16.7330 N.am  245  ILE245     -0.1965
    147  CA        18.4450   11.9830   17.2460 C.3   245  ILE245      0.1727
    148  C         19.8590   11.4130   17.1170 C.2   245  ILE245      0.2617
    149  O         20.8230   12.1680   16.9370 O.2   245  ILE245     -0.2715
    150  CB        18.0560   12.4290   18.6610 C.3   245  ILE245      0.0290
    151  CG1       16.7990   13.3010   18.5430 C.3   245  ILE245      0.0022
    152  CG2       19.1780   13.2100   19.3290 C.3   245  ILE245      0.0023
    153  CD1       16.0080   13.4710   19.7880 C.3   245  ILE245      0.0001
    154  N         19.9900   10.0850   17.1180 N.am  246  THR246     -0.1937
    155  CA        21.2830    9.4720   16.8270 C.3   246  THR246      0.2028
    156  C         21.6020    9.6860   15.3500 C.2   246  THR246      0.2642
    157  O         22.7100   10.0880   15.0040 O.2   246  THR246     -0.2714
    158  CB        21.3520    7.9710   17.1580 C.3   246  THR246      0.1808
    159  OG1       20.7380    7.7230   18.4300 O.3   246  THR246     -0.2208
    160  CG2       22.7980    7.5160   17.2180 C.3   246  THR246      0.0379
    161  N         20.6180    9.4360   14.5000 N.am  247  ARG247     -0.1977
    162  CA        20.7730    9.6940   13.0770 C.3   247  ARG247      0.1597
    163  C         21.2250   11.1270   12.8280 C.2   247  ARG247      0.2287
    164  O         22.1200   11.3590   12.0210 O.2   247  ARG247     -0.2864
    165  CB        19.4690    9.4240   12.3200 C.3   247  ARG247      0.0334
    166  CG        19.6050    9.5240   10.8000 C.3   247  ARG247      0.0492
    167  CD        18.2630    9.4260   10.0980 C.3   247  ARG247      0.2205
    168  NE        17.4850   10.6580   10.2160 N.pl3 247  ARG247     -0.0865
    169  CZ        16.2400   10.8190    9.7730 C.cat 247  ARG247      0.5346
    170  NH1       15.5900    9.8200    9.1700 N.pl3 247  ARG247      0.1354
    171  NH2       15.6470   11.9880    9.9200 N.pl3 247  ARG247      0.1354
    172  N         21.8520    2.9580   13.8420 N.3   280  CYS280     -0.1221
    173  CA        21.9910    3.8690   14.9560 C.3   280  CYS280      0.1808
    174  C         20.7010    4.0660   15.7490 C.2   280  CYS280      0.2602
    175  O         19.5950    4.0550   15.1920 O.2   280  CYS280     -0.2717
    176  CB        22.5540    5.2000   14.4750 C.3   280  CYS280      0.0970
    177  SG        21.5510    6.0630   13.2700 S.3   280  CYS280     -0.0800
    178  N         20.8550    4.2470   17.0590 N.am  281  THR281     -0.1939
    179  CA        19.7170    4.4540   17.9330 C.3   281  THR281      0.2028
    180  C         20.2250    4.8980   19.3110 C.2   281  THR281      0.2642
    181  O         21.3780    4.6380   19.6410 O.2   281  THR281     -0.2714
    182  CB        18.9000    3.1550   18.1100 C.3   281  THR281      0.1808
    183  OG1       17.6730    3.4360   18.7980 O.3   281  THR281     -0.2208
    184  CG2       19.6770    2.1020   18.9010 C.3   281  THR281      0.0379
    185  N         19.3720    5.5540   20.0930 N.am  282  THR282     -0.1950
    186  CA        19.7640    5.9670   21.4420 C.3   282  THR282      0.1897
    187  C         20.1980    4.7790   22.2990 C.2   282  THR282      0.2313
    188  O         21.1890    4.8740   23.0450 O.2   282  THR282     -0.2863
    189  CB        18.6320    6.7270   22.1550 C.3   282  THR282      0.1794
    190  OG1       18.3580    7.9380   21.4650 O.3   282  THR282     -0.2208
    191  CG2       19.0030    7.0810   23.5960 C.3   282  THR282      0.0378
@<TRIPOS>BOND
     1    44    43    2
     2    41    42    1
     3    45    42    1
     4    45    46    1
     5    43    42    1
     6    98    99    1
     7    46    47    1
     8    57    58    1
     9    57    56    1
    10    99   100    1
    11    99   102    1
    12   170   169    1
    13   101   100    2
    14    58    52    1
    15   100   107   am
    16   169   171    1
    17   169   168    2
    18    47    48    1
    19   102   103    1
    20   167   168    1
    21   167   166    1
    22    56    53    1
    23   103   104    1
    24   166   165    1
    25    52    53    1
    26   107   108    1
    27    48    49    2
    28   128   129    2
    29   128   127    1
    30    53    54    1
    31   104   106   ar
    32   104   105   ar
    33   133   131   am
    34   134   135    1
    35   108   109    1
    36   130   127    1
    37   130   131    1
    38   127   126    1
    39    54    55    2
    40    49    50    1
    41    49    51    1
    42   164   163    2
    43   137   136    2
    44   131   132    2
    45   123   125   ar
    46   123   121   ar
    47   165   162    1
    48   136   135    1
    49   135   138    1
    50   118   117    2
    51    97    95    1
    52   163   162    1
    53   109   110    2
    54   125   124   ar
    55   121   120   ar
    56   162   161    1
    57   126   117   am
    58   177   176    1
    59    90    91    1
    60   117   116    1
    61   172   173    1
    62    91    92    1
    63    91    94    1
    64   142   143    1
    65   138   139    1
    66    95    94    1
    67    95    96    1
    68   124   122   ar
    69   120   122   ar
    70   120   119    1
    71    93    92    2
    72   176   173    1
    73   161   156   am
    74   145   144    2
    75   116   119    1
    76   116   115    1
    77   173   174    1
    78   157   156    2
    79   143   144    1
    80   175   174    2
    81   139   140    1
    82   139   141    1
    83   115   113   am
    84   156   155    1
    85   144   146   am
    86    75    73   am
    87   174   178   am
    88   111   112    1
    89    79    78    2
    90    78    77    1
    91   113   112    1
    92   113   114    2
    93   146   147    1
    94   155   154    1
    95   155   158    1
    96    73    74    2
    97    73    72    1
    98   149   148    2
    99   178   179    1
   100    59    60    1
   101   148   154   am
   102   148   147    1
   103    77    76    1
   104    77    80    1
   105   158   160    1
   106   158   159    1
   107   147   150    1
   108    36    35    1
   109    36    37    1
   110    39    38    1
   111    60    61    1
   112    60    63    1
   113   179   182    1
   114   179   180    1
   115    35    34    1
   116    72    69    1
   117   182   183    1
   118   182   184    1
   119    80    81    1
   120    81    83   ar
   121    81    82   ar
   122    68    61   am
   123    68    69    1
   124   151   150    1
   125   151   153    1
   126    86    83   ar
   127    86    88   ar
   128    83    85   ar
   129    82    84   ar
   130    61    62    2
   131   150   152    1
   132    38    37    2
   133    38    40    1
   134    88    89   ar
   135    63    64    1
   136    85    84   ar
   137    85    87   ar
   138    89    87   ar
   139    34    31    1
   140    69    70    1
   141    64    65    1
   142    71    70    2
   143   180   181    2
   144   180   185   am
   145    31    32    1
   146    31    30    1
   147    33    32    2
   148    67    66    1
   149    65    66    1
   150   185   186    1
   151    12    11    1
   152   186   189    1
   153   186   187    1
   154   190   189    1
   155     9    11   ar
   156     9     7   ar
   157     4     3    2
   158    11    10   ar
   159    29    28   ar
   160    29    27   ar
   161   189   191    1
   162    28    26   ar
   163   187   188    2
   164    20    21    1
   165     7     6   ar
   166    27    25   ar
   167    21    22    1
   168    21    24    1
   169    23    22    2
   170     1     2    1
   171    26    25   ar
   172    25    24    1
   173     3     2    1
   174    10     8   ar
   175     6     8   ar
   176     6     5    1
   177    16    15    2
   178     2     5    1
   179    13    14    1
   180    17    14    1
   181    17    19    1
   182    17    18    1
   183    15    14    1
