@<TRIPOS>MOLECULE
tmp/3wwmA00.pdb
 165 158 0 0 0
SMALL
GASTEIGER

@<TRIPOS>ATOM
      1  N         15.5120   -6.8790   21.1220 N.3     5  LYS5       -0.1245
      2  CA        14.9070   -5.7740   21.8620 C.3     5  LYS5        0.1561
      3  C         13.5170   -5.4840   21.3070 C.2     5  LYS5        0.2260
      4  O         13.3840   -5.0990   20.1480 O.2     5  LYS5       -0.2867
      5  CB        15.7650   -4.5150   21.7500 C.3     5  LYS5        0.0271
      6  CG        15.1220   -3.2500   22.3140 C.3     5  LYS5        0.0035
      7  CD        14.8240   -3.3680   23.8030 C.3     5  LYS5        0.0206
      8  CE        14.4920   -2.0190   24.4400 C.3     5  LYS5        0.1093
      9  NZ        13.0480   -1.6610   24.3330 N.3     5  LYS5       -0.1314
     10  N         10.4210   -3.0100   21.3760 N.3     7  GLY7       -0.1210
     11  CA        10.1300   -1.6250   21.7400 C.3     7  GLY7        0.1956
     12  C          8.8680   -1.5280   22.5720 C.2     7  GLY7        0.2612
     13  O          8.1310   -2.5030   22.6980 O.2     7  GLY7       -0.2717
     14  N          8.6250   -0.3470   23.1330 N.am    8  GLY8       -0.1942
     15  CA         7.4740   -0.1020   24.0050 C.3     8  GLY8        0.2014
     16  C          6.4780    0.9280   23.4890 C.2     8  GLY8        0.2638
     17  O          5.6730    1.4560   24.2640 O.2     8  GLY8       -0.2714
     18  N          6.5130    1.2040   22.1850 N.am    9  ALA9       -0.1977
     19  CA         5.5720    2.1350   21.5510 C.3     9  ALA9        0.1597
     20  C          4.1990    1.4890   21.3520 C.2     9  ALA9        0.2287
     21  O          3.9850    0.3310   21.7140 O.2     9  ALA9       -0.2864
     22  CB         6.1270    2.6250   20.2180 C.3     9  ALA9        0.0319
     23  N         12.7120   -5.9970   26.7070 N.3    35  HIS35      -0.1226
     24  CA        11.5090   -5.2510   26.3350 C.3    35  HIS35       0.1752
     25  C         11.4440   -3.9120   27.0590 C.2    35  HIS35       0.2597
     26  O         12.3610   -3.5530   27.8070 O.2    35  HIS35      -0.2718
     27  CB        10.2610   -6.0790   26.6320 C.3    35  HIS35       0.0759
     28  CG         9.9430   -6.1850   28.0860 C.ar   35  HIS35       0.0818
     29  ND1       10.2470   -7.3020   28.8310 N.ar   35  HIS35      -0.2268
     30  CD2        9.3600   -5.3120   28.9380 C.ar   35  HIS35       0.1154
     31  CE1        9.8580   -7.1170   30.0790 C.ar   35  HIS35       0.1986
     32  NE2        9.3180   -5.9160   30.1710 N.ar   35  HIS35      -0.2212
     33  N         10.3620   -3.1720   26.8240 N.am   36  GLY36      -0.1942
     34  CA        10.1240   -1.9040   27.5180 C.3    36  GLY36       0.2014
     35  C          8.6670   -1.7250   27.9060 C.2    36  GLY36       0.2639
     36  O          8.0470   -2.6410   28.4520 O.2    36  GLY36      -0.2714
     37  N          8.1270   -0.5390   27.6260 N.am   37  GLY37      -0.1939
     38  CA         6.7230   -0.2170   27.8960 C.3    37  GLY37       0.2014
     39  C          6.5110    1.2300   28.3110 C.2    37  GLY37       0.2639
     40  O          5.8690    1.5010   29.3230 O.2    37  GLY37      -0.2714
     41  N          7.0390    2.1630   27.5240 N.am   38  SER38      -0.1949
     42  CA         6.9530    3.5900   27.8430 C.3    38  SER38       0.1924
     43  C          5.5610    4.1240   27.5430 C.2    38  SER38       0.2314
     44  O          5.0400    4.9540   28.2830 O.2    38  SER38      -0.2863
     45  CB         7.9950    4.3860   27.0520 C.3    38  SER38       0.2116
     46  OG         7.9750    4.0200   25.6830 O.3    38  SER38      -0.2180
     47  N          6.5650   -1.9240   33.4290 N.3    78  TYR78      -0.1241
     48  CA         7.6520   -2.6400   32.7650 C.3    78  TYR78       0.1605
     49  C          7.8560   -3.9880   33.4390 C.2    78  TYR78       0.2264
     50  O          7.8880   -5.0300   32.7800 O.2    78  TYR78      -0.2867
     51  CB         8.9760   -1.8690   32.8510 C.3    78  TYR78       0.0534
     52  CG         9.1730   -0.7360   31.8710 C.ar   78  TYR78      -0.0201
     53  CD1        8.3250    0.3600   31.8570 C.ar   78  TYR78      -0.0009
     54  CD2       10.2500   -0.7360   30.9930 C.ar   78  TYR78      -0.0009
     55  CE1        8.5250    1.4120   30.9750 C.ar   78  TYR78       0.0417
     56  CE2       10.4550    0.3080   30.1050 C.ar   78  TYR78       0.0417
     57  CZ         9.5860    1.3810   30.1020 C.ar   78  TYR78       0.1957
     58  OH         9.7730    2.4310   29.2330 O.3    78  TYR78      -0.2866
     59  N         14.5570   -3.0310   32.1770 N.3   157  PRO157     -0.2116
     60  CA        14.9310   -2.0850   33.2170 C.3   157  PRO157      0.1372
     61  C         13.8140   -2.0460   34.2540 C.2   157  PRO157      0.2244
     62  O         12.7630   -2.6490   34.0240 O.2   157  PRO157     -0.2868
     63  CB        15.0440   -0.7570   32.4630 C.3   157  PRO157      0.0268
     64  CG        14.2040   -0.9310   31.2510 C.3   157  PRO157      0.0207
     65  CD        14.3710   -2.3690   30.8750 C.3   157  PRO157      0.0892
     66  N         18.2910    3.3060   29.4070 N.3   170  ASP170     -0.1225
     67  CA        17.9860    3.0870   27.9980 C.3   170  ASP170      0.1805
     68  C         17.9850    1.5910   27.6680 C.2   170  ASP170      0.2598
     69  O         19.0310    0.9420   27.6540 O.2   170  ASP170     -0.2718
     70  CB        19.0050    3.8320   27.1400 C.3   170  ASP170      0.1424
     71  CG        18.6270    3.8740   25.6760 C.2   170  ASP170      0.3668
     72  OD1       17.8890    2.9850   25.2050 O.co2 170  ASP170     -0.2456
     73  OD2       19.0870    4.8020   24.9830 O.co2 170  ASP170     -0.2456
     74  N         16.8030    1.0520   27.3970 N.am  171  GLY171     -0.1942
     75  CA        16.6580   -0.3510   27.0340 C.3   171  GLY171      0.2014
     76  C         17.4180   -0.7640   25.7870 C.2   171  GLY171      0.2638
     77  O         17.8730   -1.9050   25.6900 O.2   171  GLY171     -0.2714
     78  N         17.5550    0.1530   24.8300 N.am  172  ASP172     -0.1971
     79  CA        18.2890   -0.1390   23.5980 C.3   172  ASP172      0.1709
     80  C         19.7650   -0.3540   23.8930 C.2   172  ASP172      0.2293
     81  O         20.4090   -1.1800   23.2430 O.2   172  ASP172     -0.2864
     82  CB        18.1230    0.9720   22.5510 C.3   172  ASP172      0.1436
     83  CG        16.7070    1.0640   21.9990 C.2   172  ASP172      0.3671
     84  OD1       16.0030    0.0380   21.9610 O.co2 172  ASP172     -0.2456
     85  OD2       16.2910    2.1690   21.5910 O.co2 172  ASP172     -0.2456
     86  N         10.1090   -2.5150   16.4820 N.3   191  SER191     -0.1202
     87  CA         9.3370   -1.3150   16.7690 C.3   191  SER191      0.2020
     88  C          8.1500   -1.2150   15.8180 C.2   191  SER191      0.2619
     89  O          7.9980   -2.0460   14.9190 O.2   191  SER191     -0.2717
     90  CB        10.2220   -0.0750   16.6530 C.3   191  SER191      0.2103
     91  OG         9.6000    1.0260   17.2870 O.3   191  SER191     -0.2182
     92  N          7.3180   -0.1940   16.0140 N.am  192  ASN192     -0.1960
     93  CA         6.0780   -0.0390   15.2390 C.3   192  ASN192      0.1819
     94  C          6.2660    0.6080   13.8570 C.2   192  ASN192      0.2621
     95  O          5.3610    1.2620   13.3520 O.2   192  ASN192     -0.2715
     96  CB         5.0230    0.7220   16.0630 C.3   192  ASN192      0.1195
     97  CG         5.4460    2.1440   16.4170 C.2   192  ASN192      0.2630
     98  OD1        6.5430    2.5960   16.0720 O.2   192  ASN192     -0.2716
     99  ND2        4.5670    2.8590   17.1170 N.am  192  ASN192     -0.0877
    100  N          7.4420    0.4220   13.2580 N.am  193  VAL193     -0.1977
    101  CA         7.7410    0.8930   11.9030 C.3   193  VAL193      0.1596
    102  C          8.5130   -0.2220   11.2010 C.2   193  VAL193      0.2287
    103  O          8.9920   -1.1360   11.8620 O.2   193  VAL193     -0.2864
    104  CB         8.5670    2.2050   11.9180 C.3   193  VAL193      0.0276
    105  CG1        7.7980    3.3140   12.6220 C.3   193  VAL193      0.0022
    106  CG2        9.9240    2.0000   12.5820 C.3   193  VAL193      0.0022
    107  N         14.2380    4.7350    8.2840 N.3   197  LEU197     -0.1245
    108  CA        13.6390    5.2890    7.0830 C.3   197  LEU197      0.1561
    109  C         14.0260    6.7600    6.9320 C.2   197  LEU197      0.2260
    110  O         14.1830    7.4690    7.9230 O.2   197  LEU197     -0.2867
    111  CB        12.1220    5.0550    7.1040 C.3   197  LEU197      0.0270
    112  CG        11.1720    5.8980    7.9560 C.3   197  LEU197      0.0019
    113  CD1        9.8230    5.1940    8.0000 C.3   197  LEU197      0.0001
    114  CD2       11.6780    6.1420    9.3690 C.3   197  LEU197      0.0001
    115  N         10.3750    9.8520    7.1770 N.3   200  TYR200     -0.1241
    116  CA         9.3460    9.3540    8.0860 C.3   200  TYR200      0.1605
    117  C          8.1000   10.2100    7.8800 C.2   200  TYR200      0.2264
    118  O          8.2190   11.4290    7.7720 O.2   200  TYR200     -0.2867
    119  CB         9.8360    9.4390    9.5370 C.3   200  TYR200      0.0534
    120  CG         8.7560    9.2650   10.5850 C.ar  200  TYR200     -0.0201
    121  CD1        8.3760    7.9980   11.0250 C.ar  200  TYR200     -0.0009
    122  CD2        8.1230   10.3730   11.1460 C.ar  200  TYR200     -0.0009
    123  CE1        7.3860    7.8400   11.9860 C.ar  200  TYR200      0.0417
    124  CE2        7.1360   10.2270   12.1070 C.ar  200  TYR200      0.0417
    125  CZ         6.7670    8.9620   12.5240 C.ar  200  TYR200      0.1957
    126  OH         5.7880    8.8250   13.4850 O.3   200  TYR200     -0.2866
    127  N         16.8750   12.1240   13.4800 N.3   227  ARG227     -0.1231
    128  CA        15.9980   11.7580   14.5970 C.3   227  ARG227      0.1694
    129  C         16.5510   10.5580   15.3750 C.2   227  ARG227      0.2591
    130  O         16.7480   10.6420   16.5900 O.2   227  ARG227     -0.2718
    131  CB        14.5840   11.4510   14.0820 C.3   227  ARG227      0.0321
    132  CG        13.4730   11.5970   15.1150 C.3   227  ARG227      0.0489
    133  CD        13.0230   13.0440   15.2700 C.3   227  ARG227      0.2205
    134  NE        11.5940   13.1470   15.5700 N.pl3 227  ARG227     -0.0865
    135  CZ        11.0350   12.9160   16.7600 C.cat 227  ARG227      0.5346
    136  NH1       11.7710   12.5510   17.8050 N.pl3 227  ARG227      0.1354
    137  NH2        9.7210   13.0460   16.9060 N.pl3 227  ARG227      0.1354
    138  N         16.8110    9.4580   14.6660 N.am  228  MET228     -0.1979
    139  CA        17.3190    8.2300   15.2790 C.3   228  MET228      0.1605
    140  C         18.8510    8.1680   15.1870 C.2   228  MET228      0.2287
    141  O         19.3930    7.3980   14.4060 O.2   228  MET228     -0.2864
    142  CB        16.7030    6.9880   14.6070 C.3   228  MET228      0.0413
    143  CG        15.1820    6.9790   14.4410 C.3   228  MET228      0.0598
    144  SD        14.6070    7.8210   12.9410 S.3   228  MET228     -0.1393
    145  CE        13.5090    6.6260   12.1710 C.3   228  MET228      0.0692
    146  N         20.9500    7.9690   18.2800 N.3   230  ARG230     -0.1231
    147  CA        21.3690    7.1030   19.3980 C.3   230  ARG230      0.1694
    148  C         21.2700    5.6100   19.0790 C.2   230  ARG230      0.2591
    149  O         22.1720    4.8390   19.4130 O.2   230  ARG230     -0.2718
    150  CB        20.5840    7.4290   20.6850 C.3   230  ARG230      0.0321
    151  CG        19.0850    7.6560   20.5020 C.3   230  ARG230      0.0489
    152  CD        18.3480    7.7250   21.8330 C.3   230  ARG230      0.2205
    153  NE        17.9730    6.3990   22.3240 N.pl3 230  ARG230     -0.0865
    154  CZ        16.9940    5.6450   21.8210 C.cat 230  ARG230      0.5346
    155  NH1       16.7480    4.4540   22.3530 N.pl3 230  ARG230      0.1354
    156  NH2       16.2640    6.0620   20.7870 N.pl3 230  ARG230      0.1354
    157  N         20.1790    5.2120   18.4310 N.am  231  LYS231     -0.1980
    158  CA        20.0160    3.8260   18.0030 C.3   231  LYS231      0.1596
    159  C         21.0370    3.4680   16.9230 C.2   231  LYS231      0.2287
    160  O         21.7150    2.4440   17.0290 O.2   231  LYS231     -0.2864
    161  CB        18.5970    3.5600   17.4750 C.3   231  LYS231      0.0298
    162  CG        17.6040    3.0420   18.5120 C.3   231  LYS231      0.0038
    163  CD        16.6580    2.0120   17.9010 C.3   231  LYS231      0.0206
    164  CE        15.2910    1.9830   18.5620 C.3   231  LYS231      0.1093
    165  NZ        14.5190    0.7730   18.1660 N.3   231  LYS231     -0.1314
@<TRIPOS>BOND
     1   109   108    1
     2   109   110    2
     3   108   111    1
     4   108   107    1
     5   111   112    1
     6   115   116    1
     7   118   117    2
     8   117   116    1
     9   112   113    1
    10   112   114    1
    11   116   119    1
    12   119   120    1
    13   120   121   ar
    14   120   122   ar
    15   121   123   ar
    16   122   124   ar
    17   102   103    2
    18   102   101    1
    19   101   104    1
    20   101   100    1
    21   104   106    1
    22   104   105    1
    23   123   125   ar
    24   124   125   ar
    25   145   144    1
    26   125   126    1
    27   144   143    1
    28   100    94   am
    29    95    94    2
    30   127   128    1
    31    94    93    1
    32   131   128    1
    33   131   132    1
    34   141   140    2
    35   143   142    1
    36   128   129    1
    37   142   139    1
    38   138   139    1
    39   138   129   am
    40    89    88    2
    41   132   133    1
    42   140   139    1
    43    93    92    1
    44    93    96    1
    45   133   134    1
    46   129   130    2
    47   134   135    2
    48    88    92   am
    49    88    87    1
    50    96    97    1
    51    98    97    2
    52    97    99   am
    53    86    87    1
    54    90    87    1
    55    90    91    1
    56   135   137    1
    57   135   136    1
    58   159   160    2
    59   159   158    1
    60   161   158    1
    61   161   162    1
    62   163   162    1
    63   163   164    1
    64   158   157    1
    65   165   164    1
    66   146   147    1
    67   157   148   am
    68   148   147    1
    69   148   149    2
    70   147   150    1
    71     4     3    2
    72    22    19    1
    73   151   150    1
    74   151   152    1
    75   156   154    1
    76     1     2    1
    77     3     2    1
    78    20    19    1
    79    20    21    2
    80    10    11    1
    81    19    18    1
    82    85    83   ar
    83    11    12    1
    84     5     2    1
    85     5     6    1
    86   154   153    2
    87   154   155    1
    88   152   153    1
    89    84    83   ar
    90    83    82    1
    91    18    16   am
    92     6     7    1
    93    82    79    1
    94    12    13    2
    95    12    14   am
    96    14    15    1
    97    81    80    2
    98    16    15    1
    99    16    17    2
   100    79    80    1
   101    79    78    1
   102     7     8    1
   103     9     8    1
   104    78    76   am
   105    73    71   ar
   106    72    71   ar
   107    71    70    1
   108    46    45    1
   109    77    76    2
   110    76    75    1
   111    24    27    1
   112    24    23    1
   113    24    25    1
   114    27    28    1
   115    33    25   am
   116    33    34    1
   117    75    74    1
   118    45    42    1
   119    25    26    2
   120    70    67    1
   121    74    68   am
   122    34    35    1
   123    41    42    1
   124    41    39   am
   125    43    42    1
   126    43    44    2
   127    37    38    1
   128    37    35   am
   129    69    68    2
   130    68    67    1
   131    38    39    1
   132    35    36    2
   133    67    66    1
   134    28    29   ar
   135    28    30   ar
   136    39    40    2
   137    29    31   ar
   138    30    32   ar
   139    58    57    1
   140    31    32   ar
   141    57    56   ar
   142    57    55   ar
   143    56    54   ar
   144    65    64    1
   145    65    59    1
   146    55    53   ar
   147    54    52   ar
   148    64    63    1
   149    53    52   ar
   150    52    51    1
   151    59    60    1
   152    63    60    1
   153    48    51    1
   154    48    47    1
   155    48    49    1
   156    50    49    2
   157    60    61    1
   158    62    61    2
