@<TRIPOS>MOLECULE
tmp/3wwoA00.pdb
 158 154 0 0 0
SMALL
GASTEIGER

@<TRIPOS>ATOM
      1  N          0.0360    9.1060   24.8510 N.3    10  THR10      -0.1203
      2  CA        -1.0550    8.1870   24.5360 C.3    10  THR10       0.1994
      3  C         -1.5780    8.4400   23.1440 C.2    10  THR10       0.2618
      4  O         -1.1880    9.4010   22.4890 O.2    10  THR10      -0.2717
      5  CB        -2.3770    8.4180   25.3000 C.3    10  THR10       0.1784
      6  OG1       -2.2820    9.5070   26.2210 O.3    10  THR10      -0.2211
      7  CG2       -2.8430    7.1420   25.9560 C.3    10  THR10       0.0376
      8  N         -2.5720    7.6380   22.7780 N.am   11  ILE11      -0.1965
      9  CA        -3.3310    7.8680   21.5630 C.3    11  ILE11       0.1727
     10  C         -4.0260    9.2320   21.6150 C.2    11  ILE11       0.2616
     11  O         -4.3280    9.7430   22.6930 O.2    11  ILE11      -0.2715
     12  CB        -4.3410    6.7330   21.2960 C.3    11  ILE11       0.0290
     13  CG1       -5.4400    6.7010   22.3560 C.3    11  ILE11       0.0022
     14  CG2       -3.6270    5.3900   21.2710 C.3    11  ILE11       0.0023
     15  CD1       -6.6300    5.8540   21.9520 C.3    11  ILE11       0.0001
     16  N         -4.2440    9.8120   20.4360 N.am   12  CYS12      -0.1954
     17  CA        -4.8200   11.1430   20.2550 C.3    12  CYS12       0.1843
     18  C         -3.8710   12.2580   20.6500 C.2    12  CYS12       0.2625
     19  O         -4.0600   13.4110   20.2620 O.2    12  CYS12      -0.2714
     20  CB        -6.1150   11.3140   21.0410 C.3    12  CYS12       0.0997
     21  SG        -7.3140   10.0280   20.6840 S.3    12  CYS12      -0.0797
     22  N         -2.8550   11.9240   21.4320 N.am   13  HIS13      -0.1973
     23  CA        -1.9480   12.9530   21.9090 C.3    13  HIS13       0.1656
     24  C         -0.6670   12.9600   21.0880 C.2    13  HIS13       0.2291
     25  O         -0.6160   12.3700   20.0060 O.2    13  HIS13      -0.2864
     26  CB        -1.7040   12.7620   23.4030 C.3    13  HIS13       0.0771
     27  CG        -2.8940   13.1200   24.2360 C.ar   13  HIS13       0.0820
     28  ND1       -4.0420   12.3600   24.2470 N.ar   13  HIS13      -0.2267
     29  CD2       -3.1320   14.1760   25.0470 C.ar   13  HIS13       0.1154
     30  CE1       -4.9320   12.9250   25.0410 C.ar   13  HIS13       0.1986
     31  NE2       -4.4040   14.0270   25.5420 N.ar   13  HIS13      -0.2212
     32  N         -0.7310    6.9320   30.2030 N.3    79  SER79      -0.1202
     33  CA        -2.0180    6.3990   29.7590 C.3    79  SER79       0.2020
     34  C         -1.8200    5.2010   28.8330 C.2    79  SER79       0.2619
     35  O         -1.0790    4.2690   29.1570 O.2    79  SER79      -0.2717
     36  CB        -2.8420    7.5080   29.1020 C.3    79  SER79       0.2103
     37  OG        -4.2140    7.1550   29.0440 O.3    79  SER79      -0.2182
     38  N         -2.4770    5.2150   27.6810 N.am   80  GLY80      -0.1956
     39  CA        -2.3120    4.1550   26.6870 C.3    80  GLY80       0.1869
     40  C         -0.8890    3.9430   26.2010 C.2    80  GLY80       0.2309
     41  O         -0.5810    2.9100   25.6050 O.2    80  GLY80      -0.2863
     42  N         -1.7070    2.1350   31.3660 N.3   105  LEU105     -0.1245
     43  CA        -1.9270    0.7100   31.1670 C.3   105  LEU105      0.1561
     44  C         -0.6120   -0.0350   31.3660 C.2   105  LEU105      0.2260
     45  O          0.3650    0.2420   30.6770 O.2   105  LEU105     -0.2867
     46  CB        -2.4400    0.4600   29.7470 C.3   105  LEU105      0.0270
     47  CG        -3.9540    0.4380   29.5100 C.3   105  LEU105      0.0019
     48  CD1       -4.7480    1.0980   30.6250 C.3   105  LEU105      0.0001
     49  CD2       -4.2980    1.0890   28.1810 C.3   105  LEU105      0.0001
     50  N         -6.3180   -3.4370   28.9650 N.3   117  TYR117     -0.1241
     51  CA        -7.1790   -2.5050   28.2410 C.3   117  TYR117      0.1605
     52  C         -8.6390   -2.9530   28.2260 C.2   117  TYR117      0.2264
     53  O         -9.5530   -2.1280   28.2670 O.2   117  TYR117     -0.2867
     54  CB        -6.6940   -2.3120   26.8040 C.3   117  TYR117      0.0534
     55  CG        -7.7470   -1.7020   25.9080 C.ar  117  TYR117     -0.0201
     56  CD1       -7.9990   -0.3390   25.9340 C.ar  117  TYR117     -0.0009
     57  CD2       -8.5050   -2.4930   25.0560 C.ar  117  TYR117     -0.0009
     58  CE1       -8.9700    0.2230   25.1320 C.ar  117  TYR117      0.0417
     59  CE2       -9.4820   -1.9410   24.2480 C.ar  117  TYR117      0.0417
     60  CZ        -9.7100   -0.5810   24.2940 C.ar  117  TYR117      0.1957
     61  OH       -10.6750   -0.0090   23.4970 O.3   117  TYR117     -0.2866
     62  N        -10.0570   -1.8710   31.4860 N.3   120  PHE120     -0.1241
     63  CA       -10.3540   -0.4460   31.5030 C.3   120  PHE120      0.1605
     64  C        -11.6490   -0.1460   30.7540 C.2   120  PHE120      0.2264
     65  O        -12.4750    0.6230   31.2370 O.2   120  PHE120     -0.2867
     66  CB        -9.2130    0.3580   30.8790 C.3   120  PHE120      0.0534
     67  CG        -9.5910    1.7740   30.5410 C.ar  120  PHE120     -0.0203
     68  CD1       -9.8760    2.6880   31.5420 C.ar  120  PHE120     -0.0042
     69  CD2       -9.6630    2.1940   29.2230 C.ar  120  PHE120     -0.0042
     70  CE1      -10.2250    3.9910   31.2380 C.ar  120  PHE120     -0.0003
     71  CE2      -10.0120    3.4980   28.9090 C.ar  120  PHE120     -0.0003
     72  CZ       -10.2980    4.3960   29.9180 C.ar  120  PHE120     -0.0000
     73  N        -17.8370    8.4620   28.1930 N.3   127  TRP127     -0.1241
     74  CA       -17.1030    9.2000   27.1630 C.3   127  TRP127      0.1605
     75  C        -17.7510   10.5260   26.7610 C.2   127  TRP127      0.2264
     76  O        -17.1890   11.3010   25.9830 O.2   127  TRP127     -0.2867
     77  CB       -16.9190    8.3040   25.9350 C.3   127  TRP127      0.0550
     78  CG       -15.9680    7.1850   26.2030 C.ar  127  TRP127      0.0003
     79  CD1      -16.2730    5.8740   26.4240 C.ar  127  TRP127      0.0946
     80  CD2      -14.5470    7.2910   26.3170 C.ar  127  TRP127      0.0152
     81  NE1      -15.1240    5.1530   26.6540 N.ar  127  TRP127     -0.2442
     82  CE2      -14.0530    6.0040   26.5990 C.ar  127  TRP127      0.0810
     83  CE3      -13.6460    8.3520   26.2010 C.ar  127  TRP127      0.0012
     84  CZ2      -12.6960    5.7470   26.7550 C.ar  127  TRP127      0.0191
     85  CZ3      -12.3030    8.0960   26.3660 C.ar  127  TRP127      0.0001
     86  CH2      -11.8390    6.8040   26.6290 C.ar  127  TRP127      0.0015
     87  N        -11.2720    7.1890   18.0390 N.3   145  VAL145     -0.1245
     88  CA       -11.9220    8.2000   18.8590 C.3   145  VAL145      0.1561
     89  C        -11.3120    9.5800   18.6160 C.2   145  VAL145      0.2260
     90  O        -10.1070    9.7110   18.4080 O.2   145  VAL145     -0.2867
     91  CB       -11.8400    7.8410   20.3610 C.3   145  VAL145      0.0252
     92  CG1      -10.4150    7.9420   20.8750 C.3   145  VAL145      0.0019
     93  CG2      -12.7490    8.7350   21.1890 C.3   145  VAL145      0.0019
     94  N        -11.3230   12.9020   20.9300 N.3   147  LEU147     -0.1245
     95  CA       -11.6390   13.2830   22.3020 C.3   147  LEU147      0.1561
     96  C        -12.4530   14.5680   22.4160 C.2   147  LEU147      0.2260
     97  O        -12.0900   15.5940   21.8620 O.2   147  LEU147     -0.2867
     98  CB       -10.3450   13.4500   23.0890 C.3   147  LEU147      0.0270
     99  CG        -9.5350   12.1760   23.2860 C.3   147  LEU147      0.0019
    100  CD1       -8.2380   12.5180   23.9980 C.3   147  LEU147      0.0001
    101  CD2      -10.3530   11.1640   24.0750 C.3   147  LEU147      0.0001
    102  N         -9.7750   14.0560   31.8570 N.3   156  ILE156     -0.1245
    103  CA        -8.3720   13.8300   31.5190 C.3   156  ILE156      0.1561
    104  C         -7.4600   14.9250   32.0730 C.2   156  ILE156      0.2260
    105  O         -6.5200   14.6590   32.8150 O.2   156  ILE156     -0.2867
    106  CB        -8.1980   13.7400   29.9870 C.3   156  ILE156      0.0252
    107  CG1       -8.8630   12.4670   29.4540 C.3   156  ILE156      0.0019
    108  CG2       -6.7270   13.7820   29.6200 C.3   156  ILE156      0.0019
    109  CD1       -8.8120   12.3200   27.9480 C.3   156  ILE156      0.0001
    110  N         -6.9130    2.3460   19.5280 N.3   177  PHE177     -0.1241
    111  CA        -6.1150    1.4140   20.3180 C.3   177  PHE177      0.1605
    112  C         -5.8530    0.1000   19.5850 C.2   177  PHE177      0.2264
    113  O         -5.2610   -0.8190   20.1550 O.2   177  PHE177     -0.2867
    114  CB        -6.8260    1.1110   21.6360 C.3   177  PHE177      0.0534
    115  CG        -5.8900    0.9020   22.7810 C.ar  177  PHE177     -0.0203
    116  CD1       -5.0820    1.9400   23.2080 C.ar  177  PHE177     -0.0042
    117  CD2       -5.8230   -0.3170   23.4300 C.ar  177  PHE177     -0.0042
    118  CE1       -4.2190    1.7690   24.2720 C.ar  177  PHE177     -0.0003
    119  CE2       -4.9630   -0.4990   24.4970 C.ar  177  PHE177     -0.0003
    120  CZ        -4.1640    0.5470   24.9160 C.ar  177  PHE177     -0.0000
    121  N        -10.1640    9.5060   34.9670 N.3   208  ILE208     -0.1231
    122  CA       -10.4270    8.5560   33.8900 C.3   208  ILE208      0.1692
    123  C         -9.9520    7.1540   34.2670 C.2   208  ILE208      0.2592
    124  O        -10.6650    6.1690   34.0560 O.2   208  ILE208     -0.2718
    125  CB        -9.8600    9.0370   32.5300 C.3   208  ILE208      0.0266
    126  CG1      -10.3900    8.1530   31.3960 C.3   208  ILE208      0.0019
    127  CG2       -8.3360    9.0630   32.5220 C.3   208  ILE208      0.0020
    128  CD1      -10.2670    8.7630   30.0150 C.3   208  ILE208      0.0001
    129  N         -8.7520    7.0720   34.8330 N.am  209  PHE209     -0.1976
    130  CA        -8.2720    5.8370   35.4270 C.3   209  PHE209      0.1639
    131  C         -8.5600    5.9040   36.9280 C.2   209  PHE209      0.2290
    132  O         -7.8050    6.5210   37.6820 O.2   209  PHE209     -0.2864
    133  CB        -6.7720    5.6790   35.1840 C.3   209  PHE209      0.0560
    134  CG        -6.4160    5.2010   33.8010 C.ar  209  PHE209     -0.0200
    135  CD1       -7.3020    5.3160   32.7430 C.ar  209  PHE209     -0.0042
    136  CD2       -5.1710    4.6440   33.5610 C.ar  209  PHE209     -0.0042
    137  CE1       -6.9640    4.8700   31.4740 C.ar  209  PHE209     -0.0003
    138  CE2       -4.8230    4.2070   32.2980 C.ar  209  PHE209     -0.0003
    139  CZ        -5.7190    4.3240   31.2490 C.ar  209  PHE209     -0.0000
    140  N         -5.0220   12.8850   35.5170 N.3   234  HIS234     -0.1226
    141  CA        -4.5080   11.8500   34.6290 C.3   234  HIS234      0.1752
    142  C         -3.2220   12.2860   33.9270 C.2   234  HIS234      0.2595
    143  O         -2.3770   11.4500   33.6070 O.2   234  HIS234     -0.2718
    144  CB        -5.5830   11.4760   33.6110 C.3   234  HIS234      0.0759
    145  CG        -5.2680   10.2520   32.8120 C.ar  234  HIS234      0.0818
    146  ND1       -4.9880    9.0340   33.3920 N.ar  234  HIS234     -0.2268
    147  CD2       -5.2110   10.0530   31.4740 C.ar  234  HIS234      0.1154
    148  CE1       -4.7500    8.1430   32.4450 C.ar  234  HIS234      0.1986
    149  NE2       -4.8810    8.7360   31.2720 N.ar  234  HIS234     -0.2212
    150  N         -3.0770   13.5870   33.6940 N.am  235  LYS235     -0.1980
    151  CA        -1.9030   14.1290   33.0110 C.3   235  LYS235      0.1596
    152  C         -0.8980   14.7240   33.9980 C.2   235  LYS235      0.2287
    153  O         -0.7030   15.9370   34.0530 O.2   235  LYS235     -0.2864
    154  CB        -2.3100   15.2080   31.9930 C.3   235  LYS235      0.0298
    155  CG        -3.2890   14.7630   30.9200 C.3   235  LYS235      0.0038
    156  CD        -2.8070   13.5150   30.1960 C.3   235  LYS235      0.0206
    157  CE        -3.3720   13.4490   28.7840 C.3   235  LYS235      0.1093
    158  NZ        -2.7870   12.3210   28.0130 N.3   235  LYS235     -0.1314
@<TRIPOS>BOND
     1    87    88    1
     2    90    89    2
     3    89    88    1
     4    88    91    1
     5   110   111    1
     6   112   113    2
     7   112   111    1
     8    25    24    2
     9    17    16    1
    10    17    18    1
    11    17    20    1
    12    19    18    2
    13   111   114    1
    14    91    92    1
    15    91    93    1
    16    16    10   am
    17    18    22   am
    18    21    20    1
    19    94    95    1
    20    24    23    1
    21    14    12    1
    22    12     9    1
    23    12    13    1
    24    22    23    1
    25     9    10    1
    26     9     8    1
    27    10    11    2
    28   114   115    1
    29    97    96    2
    30    23    26    1
    31    15    13    1
    32    95    96    1
    33    95    98    1
    34     4     3    2
    35     8     3   am
    36   115   116   ar
    37   115   117   ar
    38    98    99    1
    39     3     2    1
    40   116   118   ar
    41    99   100    1
    42    99   101    1
    43    26    27    1
    44   117   119   ar
    45    61    60    1
    46    27    28   ar
    47    27    29   ar
    48    28    30   ar
    49    59    60   ar
    50    59    57   ar
    51   118   120   ar
    52    60    58   ar
    53   119   120   ar
    54     2     1    1
    55     2     5    1
    56    30    31   ar
    57    29    31   ar
    58    57    55   ar
    59    58    56   ar
    60     5     7    1
    61     5     6    1
    62    41    40    2
    63    55    56   ar
    64    55    54    1
    65    77    78    1
    66    77    74    1
    67    76    75    2
    68    40    39    1
    69    83    80   ar
    70    83    85   ar
    71    78    80   ar
    72    78    79   ar
    73    80    82   ar
    74    85    86   ar
    75    79    81   ar
    76    82    81   ar
    77    82    84   ar
    78    86    84   ar
    79    39    38    1
    80    75    74    1
    81    54    51    1
    82    74    73    1
    83    38    34   am
    84   109   107    1
    85   158   157    1
    86    49    47    1
    87    52    51    1
    88    52    53    2
    89    51    50    1
    90   157   156    1
    91    34    35    2
    92    34    33    1
    93    71    69   ar
    94    71    72   ar
    95    37    36    1
    96    36    33    1
    97    69    67   ar
    98   107   106    1
    99    47    46    1
   100    47    48    1
   101   108   106    1
   102    46    43    1
   103    33    32    1
   104    72    70   ar
   105   106   103    1
   106   128   126    1
   107   156   155    1
   108    67    66    1
   109    67    68   ar
   110    45    44    2
   111    64    65    2
   112    64    63    1
   113    66    63    1
   114   155   154    1
   115    43    42    1
   116    43    44    1
   117    70    68   ar
   118   139   137   ar
   119   139   138   ar
   120   149   147   ar
   121   149   148   ar
   122   126   125    1
   123   147   145   ar
   124   137   135   ar
   125    62    63    1
   126   103   102    1
   127   103   104    1
   128   154   151    1
   129   104   105    2
   130   138   136   ar
   131   148   146   ar
   132   127   125    1
   133   125   122    1
   134   135   134   ar
   135   145   146   ar
   136   145   144    1
   137   151   150    1
   138   151   152    1
   139   136   134   ar
   140   143   142    2
   141   144   141    1
   142   150   142   am
   143   134   133    1
   144   122   123    1
   145   122   121    1
   146   142   141    1
   147   152   153    2
   148   124   123    2
   149   123   129   am
   150   141   140    1
   151   129   130    1
   152   133   130    1
   153   130   131    1
   154   131   132    2
