@<TRIPOS>MOLECULE
tmp/3wwoA01.pdb
 118 118 0 0 0
SMALL
GASTEIGER

@<TRIPOS>ATOM
      1  N         -2.5720    7.6380   22.7780 N.3    11  ILE11      -0.1245
      2  CA        -3.3310    7.8680   21.5630 C.3    11  ILE11       0.1561
      3  C         -4.0260    9.2320   21.6150 C.2    11  ILE11       0.2260
      4  O         -4.3280    9.7430   22.6930 O.2    11  ILE11      -0.2867
      5  CB        -4.3410    6.7330   21.2960 C.3    11  ILE11       0.0252
      6  CG1       -5.4400    6.7010   22.3560 C.3    11  ILE11       0.0019
      7  CG2       -3.6270    5.3900   21.2710 C.3    11  ILE11       0.0019
      8  CD1       -6.6300    5.8540   21.9520 C.3    11  ILE11       0.0001
      9  N         -6.3180   -3.4370   28.9650 N.3   117  TYR117     -0.1241
     10  CA        -7.1790   -2.5050   28.2410 C.3   117  TYR117      0.1605
     11  C         -8.6390   -2.9530   28.2260 C.2   117  TYR117      0.2264
     12  O         -9.5530   -2.1280   28.2670 O.2   117  TYR117     -0.2867
     13  CB        -6.6940   -2.3120   26.8040 C.3   117  TYR117      0.0534
     14  CG        -7.7470   -1.7020   25.9080 C.ar  117  TYR117     -0.0201
     15  CD1       -7.9990   -0.3390   25.9340 C.ar  117  TYR117     -0.0009
     16  CD2       -8.5050   -2.4930   25.0560 C.ar  117  TYR117     -0.0009
     17  CE1       -8.9700    0.2230   25.1320 C.ar  117  TYR117      0.0417
     18  CE2       -9.4820   -1.9410   24.2480 C.ar  117  TYR117      0.0417
     19  CZ        -9.7100   -0.5810   24.2940 C.ar  117  TYR117      0.1957
     20  OH       -10.6750   -0.0090   23.4970 O.3   117  TYR117     -0.2866
     21  N        -10.0570   -1.8710   31.4860 N.3   120  PHE120     -0.1227
     22  CA       -10.3540   -0.4460   31.5030 C.3   120  PHE120      0.1736
     23  C        -11.6490   -0.1460   30.7540 C.2   120  PHE120      0.2596
     24  O        -12.4750    0.6230   31.2370 O.2   120  PHE120     -0.2718
     25  CB        -9.2130    0.3580   30.8790 C.3   120  PHE120      0.0547
     26  CG        -9.5910    1.7740   30.5410 C.ar  120  PHE120     -0.0202
     27  CD1       -9.8760    2.6880   31.5420 C.ar  120  PHE120     -0.0042
     28  CD2       -9.6630    2.1940   29.2230 C.ar  120  PHE120     -0.0042
     29  CE1      -10.2250    3.9910   31.2380 C.ar  120  PHE120     -0.0003
     30  CE2      -10.0120    3.4980   28.9090 C.ar  120  PHE120     -0.0003
     31  CZ       -10.2980    4.3960   29.9180 C.ar  120  PHE120     -0.0000
     32  N        -11.8260   -0.7480   29.5810 N.am  121  SER121     -0.1952
     33  CA       -13.0220   -0.5210   28.7760 C.3   121  SER121      0.1924
     34  C        -14.2820   -1.0230   29.4800 C.2   121  SER121      0.2314
     35  O        -15.3690   -0.4500   29.3540 O.2   121  SER121     -0.2863
     36  CB       -12.8810   -1.2100   27.4200 C.3   121  SER121      0.2116
     37  OG       -11.7270   -0.7450   26.7470 O.3   121  SER121     -0.2180
     38  N        -17.8370    8.4620   28.1930 N.3   127  TRP127     -0.1241
     39  CA       -17.1030    9.2000   27.1630 C.3   127  TRP127      0.1605
     40  C        -17.7510   10.5260   26.7610 C.2   127  TRP127      0.2264
     41  O        -17.1890   11.3010   25.9830 O.2   127  TRP127     -0.2867
     42  CB       -16.9190    8.3040   25.9350 C.3   127  TRP127      0.0550
     43  CG       -15.9680    7.1850   26.2030 C.ar  127  TRP127      0.0003
     44  CD1      -16.2730    5.8740   26.4240 C.ar  127  TRP127      0.0946
     45  CD2      -14.5470    7.2910   26.3170 C.ar  127  TRP127      0.0152
     46  NE1      -15.1240    5.1530   26.6540 N.ar  127  TRP127     -0.2442
     47  CE2      -14.0530    6.0040   26.5990 C.ar  127  TRP127      0.0810
     48  CE3      -13.6460    8.3520   26.2010 C.ar  127  TRP127      0.0012
     49  CZ2      -12.6960    5.7470   26.7550 C.ar  127  TRP127      0.0191
     50  CZ3      -12.3030    8.0960   26.3660 C.ar  127  TRP127      0.0001
     51  CH2      -11.8390    6.8040   26.6290 C.ar  127  TRP127      0.0015
     52  N        -16.9050    8.7700   18.4290 N.3   132  PHE132     -0.1241
     53  CA       -16.3850    7.4880   17.9720 C.3   132  PHE132      0.1605
     54  C        -16.7150    7.2790   16.5000 C.2   132  PHE132      0.2264
     55  O        -17.7380    7.7480   15.9960 O.2   132  PHE132     -0.2867
     56  CB       -16.9500    6.3410   18.8080 C.3   132  PHE132      0.0534
     57  CG       -16.4260    6.3090   20.2150 C.ar  132  PHE132     -0.0203
     58  CD1      -15.1890    5.7510   20.4980 C.ar  132  PHE132     -0.0042
     59  CD2      -17.1640    6.8440   21.2490 C.ar  132  PHE132     -0.0042
     60  CE1      -14.6970    5.7270   21.7850 C.ar  132  PHE132     -0.0003
     61  CE2      -16.6850    6.8140   22.5450 C.ar  132  PHE132     -0.0003
     62  CZ       -15.4500    6.2570   22.8150 C.ar  132  PHE132     -0.0000
     63  N        -11.8200    0.7880   15.3130 N.3   143  THR143     -0.1203
     64  CA       -12.5850    1.8050   16.0190 C.3   143  THR143      0.1994
     65  C        -11.6440    2.8950   16.5170 C.2   143  THR143      0.2618
     66  O        -10.5800    2.6210   17.0770 O.2   143  THR143     -0.2717
     67  CB       -13.4020    1.2130   17.1820 C.3   143  THR143      0.1784
     68  OG1      -14.2530    0.1770   16.6830 O.3   143  THR143     -0.2211
     69  CG2      -14.2790    2.2680   17.8110 C.3   143  THR143      0.0376
     70  N        -12.0580    4.1340   16.2820 N.am  144  ALA144     -0.1965
     71  CA       -11.2190    5.2970   16.5160 C.3   144  ALA144      0.1728
     72  C        -11.9870    6.2930   17.3710 C.2   144  ALA144      0.2616
     73  O        -13.2170    6.2570   17.4130 O.2   144  ALA144     -0.2715
     74  CB       -10.8410    5.9270   15.1820 C.3   144  ALA144      0.0334
     75  N        -11.2720    7.1890   18.0390 N.am  145  VAL145     -0.1977
     76  CA       -11.9220    8.2000   18.8590 C.3   145  VAL145      0.1596
     77  C        -11.3120    9.5800   18.6160 C.2   145  VAL145      0.2287
     78  O        -10.1070    9.7110   18.4080 O.2   145  VAL145     -0.2864
     79  CB       -11.8400    7.8410   20.3610 C.3   145  VAL145      0.0276
     80  CG1      -10.4150    7.9420   20.8750 C.3   145  VAL145      0.0022
     81  CG2      -12.7490    8.7350   21.1890 C.3   145  VAL145      0.0022
     82  N         -6.7200    5.5540   17.8390 N.3   176  SER176     -0.1202
     83  CA        -7.2790    4.2170   18.0240 C.3   176  SER176      0.2020
     84  C         -6.3520    3.3480   18.8650 C.2   176  SER176      0.2619
     85  O         -5.1450    3.5600   18.8990 O.2   176  SER176     -0.2717
     86  CB        -7.4820    3.5280   16.6750 C.3   176  SER176      0.2103
     87  OG        -7.8860    2.1790   16.8440 O.3   176  SER176     -0.2182
     88  N         -6.9130    2.3460   19.5280 N.am  177  PHE177     -0.1961
     89  CA        -6.1150    1.4140   20.3180 C.3   177  PHE177      0.1771
     90  C         -5.8530    0.1000   19.5850 C.2   177  PHE177      0.2620
     91  O         -5.2610   -0.8190   20.1550 O.2   177  PHE177     -0.2715
     92  CB        -6.8260    1.1110   21.6360 C.3   177  PHE177      0.0574
     93  CG        -5.8900    0.9020   22.7810 C.ar  177  PHE177     -0.0200
     94  CD1       -5.0820    1.9400   23.2080 C.ar  177  PHE177     -0.0042
     95  CD2       -5.8230   -0.3170   23.4300 C.ar  177  PHE177     -0.0042
     96  CE1       -4.2190    1.7690   24.2720 C.ar  177  PHE177     -0.0003
     97  CE2       -4.9630   -0.4990   24.4970 C.ar  177  PHE177     -0.0003
     98  CZ        -4.1640    0.5470   24.9160 C.ar  177  PHE177     -0.0000
     99  N         -6.3260    0.0090   18.3430 N.am  178  PHE178     -0.1960
    100  CA        -6.0760   -1.1480   17.4870 C.3   178  PHE178      0.1771
    101  C         -6.2790   -2.4700   18.2260 C.2   178  PHE178      0.2619
    102  O         -5.4290   -3.3570   18.1700 O.2   178  PHE178     -0.2715
    103  CB        -4.6540   -1.0760   16.9430 C.3   178  PHE178      0.0574
    104  CG        -4.2840    0.2710   16.4020 C.ar  178  PHE178     -0.0200
    105  CD1       -4.8170    0.7230   15.2050 C.ar  178  PHE178     -0.0042
    106  CD2       -3.3820    1.0790   17.0760 C.ar  178  PHE178     -0.0042
    107  CE1       -4.4590    1.9620   14.7020 C.ar  178  PHE178     -0.0003
    108  CE2       -3.0190    2.3140   16.5760 C.ar  178  PHE178     -0.0003
    109  CZ        -3.5600    2.7580   15.3890 C.ar  178  PHE178     -0.0000
    110  N         -7.4170   -2.5940   18.9040 N.am  179  GLU179     -0.1977
    111  CA        -7.6560   -3.6860   19.8420 C.3   179  GLU179      0.1602
    112  C         -7.5910   -5.0670   19.1920 C.2   179  GLU179      0.2287
    113  O         -7.0480   -6.0030   19.7770 O.2   179  GLU179     -0.2864
    114  CB        -9.0020   -3.4920   20.5470 C.3   179  GLU179      0.0415
    115  CG        -9.1590   -4.2760   21.8430 C.3   179  GLU179      0.1163
    116  CD       -10.6080   -4.5340   22.2180 C.2   179  GLU179      0.3649
    117  OE1      -10.8920   -5.6070   22.7970 O.co2 179  GLU179     -0.2457
    118  OE2      -11.4620   -3.6640   21.9370 O.co2 179  GLU179     -0.2457
@<TRIPOS>BOND
     1   107   105   ar
     2   107   109   ar
     3    74    71    1
     4   105   104   ar
     5    63    64    1
     6   109   108   ar
     7    55    54    2
     8    64    65    1
     9    64    67    1
    10    70    71    1
    11    70    65   am
    12   104   103    1
    13   104   106   ar
    14    54    53    1
    15    71    72    1
    16    65    66    2
    17   108   106   ar
    18    86    87    1
    19    86    83    1
    20    68    67    1
    21   103   100    1
    22    67    69    1
    23    72    73    2
    24    72    75   am
    25   100   101    1
    26   100    99    1
    27    82    83    1
    28    53    52    1
    29    53    56    1
    30    83    84    1
    31    75    76    1
    32   102   101    2
    33   101   110   am
    34    99    90   am
    35    78    77    2
    36    77    76    1
    37    56    57    1
    38    76    79    1
    39    84    85    2
    40    84    88   am
    41   110   111    1
    42   112   113    2
    43   112   111    1
    44    88    89    1
    45    90    91    2
    46    90    89    1
    47   111   114    1
    48    57    58   ar
    49    57    59   ar
    50    89    92    1
    51    79    80    1
    52    79    81    1
    53    58    60   ar
    54   114   115    1
    55    59    61   ar
    56     7     5    1
    57     5     2    1
    58     5     6    1
    59     2     3    1
    60     2     1    1
    61     3     4    2
    62    92    93    1
    63    60    62   ar
    64   115   116    1
    65   118   116   ar
    66     8     6    1
    67   116   117   ar
    68    61    62   ar
    69    93    94   ar
    70    93    95   ar
    71    94    96   ar
    72    95    97   ar
    73    20    19    1
    74    18    19   ar
    75    18    16   ar
    76    96    98   ar
    77    19    17   ar
    78    97    98   ar
    79    16    14   ar
    80    17    15   ar
    81    14    15   ar
    82    14    13    1
    83    42    43    1
    84    42    39    1
    85    41    40    2
    86    48    45   ar
    87    48    50   ar
    88    43    45   ar
    89    43    44   ar
    90    45    47   ar
    91    50    51   ar
    92    44    46   ar
    93    47    46   ar
    94    47    49   ar
    95    51    49   ar
    96    37    36    1
    97    40    39    1
    98    13    10    1
    99    39    38    1
   100    36    33    1
   101    11    10    1
   102    11    12    2
   103    10     9    1
   104    33    34    1
   105    33    32    1
   106    30    28   ar
   107    30    31   ar
   108    28    26   ar
   109    35    34    2
   110    32    23   am
   111    31    29   ar
   112    26    25    1
   113    26    27   ar
   114    23    24    2
   115    23    22    1
   116    25    22    1
   117    29    27   ar
   118    21    22    1
