@<TRIPOS>MOLECULE
tmp/3wwxA00.pdb
 88 84 0 0 0
SMALL
GASTEIGER

@<TRIPOS>ATOM
      1  N         21.1700   14.7500   -0.7110 N.3   118  PHE118     -0.1241
      2  CA        22.0960   13.6360   -0.9710 C.3   118  PHE118      0.1605
      3  C         23.0620   13.8460   -2.1120 C.2   118  PHE118      0.2264
      4  O         24.1050   13.1770   -2.1800 O.2   118  PHE118     -0.2867
      5  CB        21.3110   12.3360   -1.1180 C.3   118  PHE118      0.0534
      6  CG        20.6410   11.9120    0.1700 C.ar  118  PHE118     -0.0203
      7  CD1       21.3660   11.8380    1.3550 C.ar  118  PHE118     -0.0042
      8  CD2       19.2940   11.6420    0.2150 C.ar  118  PHE118     -0.0042
      9  CE1       20.7610   11.4720    2.5400 C.ar  118  PHE118     -0.0003
     10  CE2       18.6870   11.2720    1.3970 C.ar  118  PHE118     -0.0003
     11  CZ        19.4120   11.1990    2.5570 C.ar  118  PHE118     -0.0000
     12  N         32.3330   12.3540    1.9660 N.3   209  SER209     -0.1217
     13  CA        31.3230   11.8140    1.0740 C.3   209  SER209      0.1889
     14  C         31.5610   12.2260   -0.3630 C.2   209  SER209      0.2288
     15  O         32.1650   13.2640   -0.6210 O.2   209  SER209     -0.2866
     16  CB        29.9410   12.3270    1.5000 C.3   209  SER209      0.2089
     17  OG        28.8950   11.7690    0.7270 O.3   209  SER209     -0.2183
     18  N         28.6960   12.3610   -2.2980 N.3   211  LEU211     -0.1231
     19  CA        27.4050   12.9690   -2.6530 C.3   211  LEU211      0.1693
     20  C         26.9420   12.4470   -4.0270 C.2   211  LEU211      0.2593
     21  O         26.3710   13.1800   -4.8410 O.2   211  LEU211     -0.2718
     22  CB        27.5240   14.4970   -2.6780 C.3   211  LEU211      0.0284
     23  CG        27.9930   15.1600   -1.3810 C.3   211  LEU211      0.0019
     24  CD1       28.1130   16.6800   -1.5530 C.3   211  LEU211      0.0001
     25  CD2       27.0750   14.8660   -0.2210 C.3   211  LEU211      0.0001
     26  N         27.2300   11.1800   -4.2940 N.am  212  SER212     -0.1938
     27  CA        27.1340   10.6540   -5.6600 C.3   212  SER212      0.2055
     28  C         27.6490    9.2320   -5.7250 C.2   212  SER212      0.2642
     29  O         28.1980    8.7180   -4.7430 O.2   212  SER212     -0.2714
     30  CB        27.9540   11.5240   -6.6170 C.3   212  SER212      0.2130
     31  OG        28.1750   10.8800   -7.8580 O.3   212  SER212     -0.2179
     32  N         27.4810    8.6200   -6.8980 N.am  213  ARG213     -0.1977
     33  CA        27.9240    7.2510   -7.1530 C.3   213  ARG213      0.1597
     34  C         28.8230    7.2100   -8.3880 C.2   213  ARG213      0.2287
     35  O         29.4800    8.1950   -8.7340 O.2   213  ARG213     -0.2864
     36  CB        26.7090    6.3350   -7.3490 C.3   213  ARG213      0.0334
     37  CG        25.9060    6.2860   -6.0120 C.3   213  ARG213      0.0492
     38  CD        26.4630    5.1450   -5.2130 C.3   213  ARG213      0.2205
     39  NE        26.0740    5.0260   -3.8360 N.pl3 213  ARG213     -0.0865
     40  CZ        26.1420    5.8950   -2.8200 C.cat 213  ARG213      0.5346
     41  NH1       26.7910    7.0700   -2.9370 N.pl3 213  ARG213      0.1354
     42  NH2       25.5090    5.5550   -1.6720 N.pl3 213  ARG213      0.1354
     43  N         24.3140    2.2170   10.9500 N.3   297  GLY297     -0.1210
     44  CA        24.0330    3.6230   10.7620 C.3   297  GLY297      0.1956
     45  C         24.6580    4.1440    9.4950 C.2   297  GLY297      0.2612
     46  O         25.7910    3.8260    9.1630 O.2   297  GLY297     -0.2717
     47  N         23.8840    4.9450    8.7700 N.am  298  GLY298     -0.1942
     48  CA        24.3900    5.6620    7.6200 C.3   298  GLY298      0.2014
     49  C         23.8520    7.0890    7.6160 C.2   298  GLY298      0.2639
     50  O         22.6570    7.3450    7.7720 O.2   298  GLY298     -0.2714
     51  N         24.7660    8.0380    7.4710 N.am  299  ILE299     -0.1963
     52  CA        24.4520    9.4250    7.2480 C.3   299  ILE299      0.1727
     53  C         25.7240    9.9860    6.5780 C.2   299  ILE299      0.2616
     54  O         26.7220    9.2810    6.4530 O.2   299  ILE299     -0.2715
     55  CB        24.0480   10.1200    8.5760 C.3   299  ILE299      0.0290
     56  CG1       23.4930   11.5250    8.3470 C.3   299  ILE299      0.0022
     57  CG2       25.2190   10.1510    9.5280 C.3   299  ILE299      0.0023
     58  CD1       22.6670   12.0280    9.5320 C.3   299  ILE299      0.0001
     59  N         25.6910   11.2210    6.1080 N.am  300  HIS300     -0.1973
     60  CA        26.7930   11.7630    5.3040 C.3   300  HIS300      0.1656
     61  C         28.1620   11.5540    5.9420 C.2   300  HIS300      0.2291
     62  O         28.4150   11.9930    7.0470 O.2   300  HIS300     -0.2864
     63  CB        26.6080   13.2560    5.0820 C.3   300  HIS300      0.0771
     64  CG        25.3220   13.6010    4.4170 C.ar  300  HIS300      0.0820
     65  ND1       24.0890   13.3100    4.9720 N.ar  300  HIS300     -0.2267
     66  CD2       25.0710   14.2420    3.2560 C.ar  300  HIS300      0.1154
     67  CE1       23.1430   13.7300    4.1650 C.ar  300  HIS300      0.1986
     68  NE2       23.7090   14.3190    3.1250 N.ar  300  HIS300     -0.2212
     69  N         29.5580    8.9480    7.1720 N.3   302  SER302     -0.1202
     70  CA        29.5740    8.1970    8.4140 C.3   302  SER302      0.2020
     71  C         28.8150    6.8840    8.3030 C.2   302  SER302      0.2619
     72  O         27.5860    6.8660    8.2330 O.2   302  SER302     -0.2717
     73  CB        28.9970    9.0350    9.5440 C.3   302  SER302      0.2103
     74  OG        29.2270    8.3570   10.7760 O.3   302  SER302     -0.2182
     75  N         29.5670    5.7920    8.2840 N.am  303  SER303     -0.1951
     76  CA        29.0050    4.4330    8.2640 C.3   303  SER303      0.1924
     77  C         29.3310    3.8070    9.6080 C.2   303  SER303      0.2314
     78  O         30.5000    3.5860    9.9090 O.2   303  SER303     -0.2863
     79  CB        29.6030    3.6150    7.1360 C.3   303  SER303      0.2116
     80  OG        28.9970    2.3330    7.0730 O.3   303  SER303     -0.2180
     81  N         31.5480    7.2770    3.2420 N.3   323  ASP323     -0.1239
     82  CA        30.2710    6.6010    3.0660 C.3   323  ASP323      0.1674
     83  C         30.1940    5.8120    1.7640 C.2   323  ASP323      0.2266
     84  O         29.1310    5.2820    1.4360 O.2   323  ASP323     -0.2867
     85  CB        29.1060    7.5760    3.2040 C.3   323  ASP323      0.1410
     86  CG        29.1970    8.7500    2.2550 C.2   323  ASP323      0.3668
     87  OD1       29.9120    8.6710    1.2330 O.co2 323  ASP323     -0.2456
     88  OD2       28.5340    9.7670    2.5360 O.co2 323  ASP323     -0.2456
@<TRIPOS>BOND
     1    35    34    2
     2    34    33    1
     3    31    30    1
     4    36    33    1
     5    36    37    1
     6    33    32    1
     7    32    28   am
     8    30    27    1
     9    37    38    1
    10    28    27    1
    11    28    29    2
    12    27    26    1
    13    38    39    1
    14    21    20    2
    15    26    20   am
    16    20    19    1
    17    39    40    2
    18    41    40    1
    19    40    42    1
    20    22    19    1
    21    22    23    1
    22    19    18    1
    23     4     3    2
    24     3     2    1
    25    24    23    1
    26    23    25    1
    27     5     2    1
    28     5     6    1
    29     2     1    1
    30    15    14    2
    31    14    13    1
    32     6     8   ar
    33     6     7   ar
    34     8    10   ar
    35    17    16    1
    36    13    16    1
    37    13    12    1
    38    87    86   ar
    39     7     9   ar
    40    10    11   ar
    41    84    83    2
    42    83    82    1
    43    86    88   ar
    44    86    85    1
    45     9    11   ar
    46    82    85    1
    47    82    81    1
    48    68    66   ar
    49    68    67   ar
    50    66    64   ar
    51    67    65   ar
    52    64    65   ar
    53    64    63    1
    54    63    60    1
    55    60    61    1
    56    60    59    1
    57    61    62    2
    58    59    53   am
    59    54    53    2
    60    53    52    1
    61    80    79    1
    62    79    76    1
    63    69    70    1
    64    52    51    1
    65    52    55    1
    66    51    49   am
    67    49    48    1
    68    49    50    2
    69    48    47    1
    70    72    71    2
    71    76    75    1
    72    76    77    1
    73    75    71   am
    74    71    70    1
    75    56    55    1
    76    56    58    1
    77    70    73    1
    78    55    57    1
    79    47    45   am
    80    46    45    2
    81    45    44    1
    82    73    74    1
    83    77    78    2
    84    44    43    1
