@<TRIPOS>MOLECULE
tmp/3wx9A04.pdb
 99 92 0 0 0
SMALL
GASTEIGER

@<TRIPOS>ATOM
      1  N         13.8770   19.3680   32.9960 N.3    20  SER20      -0.1217
      2  CA        14.1310   20.2590   31.8650 C.3    20  SER20       0.1889
      3  C         13.4330   21.5720   32.1300 C.2    20  SER20       0.2288
      4  O         12.2080   21.5770   32.4120 O.2    20  SER20      -0.2866
      5  CB        13.5290   19.6180   30.6310 C.3    20  SER20       0.2089
      6  OG        13.1340   20.5670   29.6300 O.3    20  SER20      -0.2183
      7  N         12.6970   23.9590   29.9920 N.3    22  VAL22      -0.1231
      8  CA        11.6340   24.1790   28.9730 C.3    22  VAL22       0.1692
      9  C         10.3870   23.3180   29.3280 C.2    22  VAL22       0.2591
     10  O          9.2240   23.7940   29.2500 O.2    22  VAL22      -0.2718
     11  CB        12.1610   23.7890   27.5710 C.3    22  VAL22       0.0266
     12  CG1       11.0670   23.8090   26.5610 C.3    22  VAL22       0.0020
     13  CG2       13.2740   24.7560   27.1120 C.3    22  VAL22       0.0020
     14  N         10.6020   22.0710   29.7270 N.am   23  ARG23      -0.1980
     15  CA         9.4670   21.2170   30.1310 C.3    23  ARG23       0.1597
     16  C          8.6740   21.8440   31.2650 C.2    23  ARG23       0.2287
     17  O          7.4290   21.8800   31.2250 O.2    23  ARG23      -0.2864
     18  CB         9.9470   19.8110   30.6070 C.3    23  ARG23       0.0334
     19  CG         9.1420   18.6250   30.0950 C.3    23  ARG23       0.0492
     20  CD         7.7310   18.5370   30.6090 C.3    23  ARG23       0.2205
     21  NE         6.8440   18.4540   29.4590 N.pl3  23  ARG23      -0.0865
     22  CZ         6.0810   19.4580   29.0270 C.cat  23  ARG23       0.5346
     23  NH1        5.3300   19.2980   27.9380 N.pl3  23  ARG23       0.1354
     24  NH2        6.0410   20.6140   29.6850 N.pl3  23  ARG23       0.1354
     25  N          6.6690   24.8800   30.0770 N.3    26  LEU26      -0.1245
     26  CA         5.4750   24.4810   29.3430 C.3    26  LEU26       0.1561
     27  C          4.3760   23.8730   30.2340 C.2    26  LEU26       0.2260
     28  O          3.1550   23.9650   29.9200 O.2    26  LEU26      -0.2867
     29  CB         5.8260   23.5110   28.1740 C.3    26  LEU26       0.0270
     30  CG         6.7060   24.1210   27.1130 C.3    26  LEU26       0.0019
     31  CD1        7.0290   23.0620   26.1000 C.3    26  LEU26       0.0001
     32  CD2        6.0130   25.2570   26.3670 C.3    26  LEU26       0.0001
     33  N         11.5440   12.6750   21.5640 N.3   131  LEU131     -0.1245
     34  CA        12.3000   13.0630   22.7280 C.3   131  LEU131      0.1561
     35  C         12.3500   12.0190   23.8040 C.2   131  LEU131      0.2260
     36  O         13.3640   11.8110   24.3450 O.2   131  LEU131     -0.2867
     37  CB        11.7630   14.3590   23.3170 C.3   131  LEU131      0.0270
     38  CG        12.3830   14.8850   24.6020 C.3   131  LEU131      0.0019
     39  CD1       13.8430   14.9310   24.5000 C.3   131  LEU131      0.0001
     40  CD2       11.8240   16.2430   24.8520 C.3   131  LEU131      0.0001
     41  N         15.3270   10.0010   25.8990 N.3   135  GLN135     -0.1245
     42  CA        15.3420    9.9260   27.4030 C.3   135  GLN135      0.1566
     43  C         15.4020    8.4810   27.9150 C.2   135  GLN135      0.2260
     44  O         16.1370    8.2270   28.9050 O.2   135  GLN135     -0.2867
     45  CB        14.1920   10.7400   28.0380 C.3   135  GLN135      0.0367
     46  CG        14.4090   12.1380   27.6670 C.3   135  GLN135      0.0905
     47  CD        13.1890   13.0150   27.9140 C.2   135  GLN135      0.2608
     48  OE1       12.0520   12.5490   27.9080 O.2   135  GLN135     -0.2717
     49  NE2       13.4460   14.3150   28.1400 N.am  135  GLN135     -0.0878
     50  N         14.3560   28.3410   20.8490 N.3   346  LYS346     -0.1245
     51  CA        14.2770   28.2830   22.2800 C.3   346  LYS346      0.1561
     52  C         14.3090   29.6810   22.9830 C.2   346  LYS346      0.2260
     53  O         13.4920   29.9650   23.8530 O.2   346  LYS346     -0.2867
     54  CB        15.4100   27.3780   22.7710 C.3   346  LYS346      0.0271
     55  CG        15.3540   27.2350   24.2330 C.3   346  LYS346      0.0035
     56  CD        16.3380   26.0920   24.5490 C.3   346  LYS346      0.0206
     57  CE        16.4370   25.8030   25.9910 C.3   346  LYS346      0.1093
     58  NZ        17.7310   25.0070   26.1280 N.3   346  LYS346     -0.1314
     59  N          6.7680   23.7670   21.2680 N.3   360  VAL360     -0.1231
     60  CA         7.9720   23.1170   21.8790 C.3   360  VAL360      0.1678
     61  C          9.1610   23.4870   20.9720 C.2   360  VAL360      0.2434
     62  O          9.1780   23.1410   19.8020 O.2   360  VAL360     -0.2733
     63  CB         7.9120   21.5660   21.8840 C.3   360  VAL360      0.0265
     64  CG1        9.0860   21.0540   22.7710 C.3   360  VAL360      0.0020
     65  CG2        6.6280   21.0000   22.3410 C.3   360  VAL360      0.0020
     66  N         10.2360   24.0800   21.5360 N.am  361  PRO361     -0.2729
     67  CA        11.3940   24.3490   20.7600 C.3   361  PRO361      0.1401
     68  C         11.9900   22.9840   20.2980 C.2   361  PRO361      0.2269
     69  O         12.0010   22.0360   21.1170 O.2   361  PRO361     -0.2865
     70  CB        12.3070   25.0970   21.7390 C.3   361  PRO361      0.0296
     71  CG        11.4440   25.6740   22.7800 C.3   361  PRO361      0.0237
     72  CD        10.3170   24.5750   22.9010 C.3   361  PRO361      0.0939
     73  N         15.5580   19.9660   21.7760 N.3   364  ALA364     -0.1231
     74  CA        15.6010   18.7110   22.6500 C.3   364  ALA364      0.1694
     75  C         15.2520   17.4750   21.8710 C.2   364  ALA364      0.2592
     76  O         15.6670   16.3350   22.2400 O.2   364  ALA364     -0.2718
     77  CB        14.7610   18.8140   23.9030 C.3   364  ALA364      0.0304
     78  N         14.6320   17.6790   20.7040 N.am  365  PHE365     -0.1976
     79  CA        14.4090   16.5150   19.8340 C.3   365  PHE365      0.1639
     80  C         15.6400   16.0410   19.0010 C.2   365  PHE365      0.2290
     81  O         15.5740   15.0710   18.2310 O.2   365  PHE365     -0.2864
     82  CB        13.2220   16.8320   18.8980 C.3   365  PHE365      0.0560
     83  CG        11.9510   17.1300   19.6080 C.ar  365  PHE365     -0.0200
     84  CD1       11.0770   16.1220   19.8950 C.ar  365  PHE365     -0.0042
     85  CD2       11.6030   18.4300   19.9420 C.ar  365  PHE365     -0.0042
     86  CE1        9.8590   16.3910   20.4620 C.ar  365  PHE365     -0.0003
     87  CE2       10.3710   18.6730   20.6230 C.ar  365  PHE365     -0.0003
     88  CZ         9.5530   17.6070   20.8970 C.ar  365  PHE365     -0.0000
     89  N         21.5080   17.9190   20.1940 N.3   369  ARG369     -0.1245
     90  CA        20.9630   19.2170   20.4630 C.3   369  ARG369      0.1563
     91  C         21.6220   20.2460   19.5680 C.2   369  ARG369      0.2260
     92  O         21.9910   21.2760   20.0490 O.2   369  ARG369     -0.2867
     93  CB        21.1650   19.5460   21.9350 C.3   369  ARG369      0.0307
     94  CG        20.4640   18.6280   22.8740 C.3   369  ARG369      0.0489
     95  CD        20.4950   19.2020   24.2620 C.3   369  ARG369      0.2205
     96  NE        19.4360   18.6680   25.0430 N.pl3 369  ARG369     -0.0865
     97  CZ        18.3440   19.3200   25.3700 C.cat 369  ARG369      0.5346
     98  NH1       18.1880   20.5610   25.0360 N.pl3 369  ARG369      0.1354
     99  NH2       17.4220   18.7110   26.0570 N.pl3 369  ARG369      0.1354
@<TRIPOS>BOND
     1    81    80    2
     2    82    83    1
     3    82    79    1
     4    80    79    1
     5    91    92    2
     6    91    90    1
     7    83    84   ar
     8    83    85   ar
     9    62    61    2
    10    79    78    1
    11    84    86   ar
    12    85    87   ar
    13    89    90    1
    14    68    67    1
    15    68    69    2
    16    86    88   ar
    17    90    93    1
    18    87    88   ar
    19    78    75   am
    20    67    66    1
    21    67    70    1
    22    50    51    1
    23    61    66   am
    24    61    60    1
    25    59    60    1
    26    66    72    1
    27    33    34    1
    28    70    71    1
    29    73    74    1
    30    75    76    2
    31    75    74    1
    32    60    63    1
    33    63    65    1
    34    63    64    1
    35    93    94    1
    36    51    54    1
    37    51    52    1
    38    74    77    1
    39    34    37    1
    40    34    35    1
    41    54    55    1
    42    71    72    1
    43    94    95    1
    44    52    53    2
    45    37    38    1
    46    35    36    2
    47    55    56    1
    48    95    96    1
    49    39    38    1
    50    56    57    1
    51    38    40    1
    52    98    97    1
    53    96    97    2
    54    97    99    1
    55    41    42    1
    56    57    58    1
    57    31    30    1
    58    32    30    1
    59    12    11    1
    60    13    11    1
    61    30    29    1
    62    42    43    1
    63    42    45    1
    64    11     8    1
    65    46    47    1
    66    46    45    1
    67    48    47    2
    68    47    49   am
    69    43    44    2
    70    23    22    1
    71    29    26    1
    72     8     9    1
    73     8     7    1
    74    22    21    2
    75    22    24    1
    76    10     9    2
    77     9    14   am
    78    26    25    1
    79    26    27    1
    80    21    20    1
    81     6     5    1
    82    14    15    1
    83    28    27    2
    84    19    18    1
    85    19    20    1
    86    15    18    1
    87    15    16    1
    88     5     2    1
    89    17    16    2
    90     2     3    1
    91     2     1    1
    92     3     4    2
