@<TRIPOS>MOLECULE
tmp/3wx9B01.pdb
 108 106 0 0 0
SMALL
GASTEIGER

@<TRIPOS>ATOM
      1  N         -4.9630    9.1670   54.3170 N.3    86  TRP86      -0.1241
      2  CA        -5.1600    7.8070   54.8040 C.3    86  TRP86       0.1605
      3  C         -3.9630    7.3230   55.6120 C.2    86  TRP86       0.2264
      4  O         -4.1220    6.8500   56.6870 O.2    86  TRP86      -0.2867
      5  CB        -5.5390    6.8020   53.6650 C.3    86  TRP86       0.0550
      6  CG        -5.3220    5.2520   53.9510 C.ar   86  TRP86       0.0003
      7  CD1       -4.1920    4.5150   53.7350 C.ar   86  TRP86       0.0946
      8  CD2       -6.2810    4.3290   54.4200 C.ar   86  TRP86       0.0152
      9  NE1       -4.3800    3.2310   54.0890 N.ar   86  TRP86      -0.2442
     10  CE2       -5.6640    3.0850   54.5100 C.ar   86  TRP86       0.0810
     11  CE3       -7.6080    4.4360   54.7840 C.ar   86  TRP86       0.0012
     12  CZ2       -6.3170    1.9870   54.9250 C.ar   86  TRP86       0.0191
     13  CZ3       -8.2340    3.3430   55.2240 C.ar   86  TRP86       0.0001
     14  CH2       -7.6040    2.1310   55.2830 C.ar   86  TRP86       0.0015
     15  N         -1.9540    5.3550   60.1350 N.3    91  TYR91      -0.1241
     16  CA        -0.6380    4.8480   60.5620 C.3    91  TYR91       0.1605
     17  C          0.2100    5.8860   61.2580 C.2    91  TYR91       0.2264
     18  O          1.2680    5.5280   61.8030 O.2    91  TYR91      -0.2867
     19  CB         0.1600    4.3160   59.3480 C.3    91  TYR91       0.0534
     20  CG        -0.5430    3.2140   58.5450 C.ar   91  TYR91      -0.0201
     21  CD1       -1.3940    2.2700   59.1350 C.ar   91  TYR91      -0.0009
     22  CD2       -0.3740    3.1830   57.1740 C.ar   91  TYR91      -0.0009
     23  CE1       -2.0480    1.2980   58.3740 C.ar   91  TYR91       0.0417
     24  CE2       -1.0380    2.1940   56.3880 C.ar   91  TYR91       0.0417
     25  CZ        -1.8250    1.2660   56.9740 C.ar   91  TYR91       0.1957
     26  OH        -2.4700    0.3110   56.2330 O.3    91  TYR91      -0.2866
     27  N          5.4510   -2.7720   52.3580 N.3   213  ASP213     -0.1225
     28  CA         4.3110   -3.2290   53.1620 C.3   213  ASP213      0.1790
     29  C          3.0150   -3.5240   52.3750 C.2   213  ASP213      0.2439
     30  O          2.0630   -2.7430   52.3850 O.2   213  ASP213     -0.2733
     31  CB         4.0660   -2.1060   54.2270 C.3   213  ASP213      0.1423
     32  CG         2.8180   -2.3960   55.1100 C.2   213  ASP213      0.3668
     33  OD1        2.5410   -3.5700   55.3370 O.co2 213  ASP213     -0.2456
     34  OD2        2.1150   -1.4310   55.4790 O.co2 213  ASP213     -0.2456
     35  N          2.9900   -4.6470   51.6510 N.am  214  PRO214     -0.2729
     36  CA         1.7470   -4.9890   50.9460 C.3   214  PRO214      0.1401
     37  C          0.6260   -5.5110   51.8520 C.2   214  PRO214      0.2269
     38  O         -0.5160   -5.4810   51.4730 O.2   214  PRO214     -0.2865
     39  CB         2.1400   -6.1990   50.0370 C.3   214  PRO214      0.0296
     40  CG         3.7000   -6.1820   49.9410 C.3   214  PRO214      0.0237
     41  CD         4.1210   -5.5370   51.3420 C.3   214  PRO214      0.0939
     42  N          0.0120   -5.2720   55.4840 N.3   216  GLY216     -0.1210
     43  CA        -0.3110   -4.8980   56.8810 C.3   216  GLY216      0.1956
     44  C         -1.7920   -4.8700   57.2180 C.2   216  GLY216      0.2611
     45  O         -2.1690   -5.0900   58.3570 O.2   216  GLY216     -0.2717
     46  N         -2.6350   -4.5510   56.2410 N.am  217  GLU217     -0.1979
     47  CA        -4.1000   -4.5580   56.5120 C.3   217  GLU217      0.1602
     48  C         -4.6740   -5.9590   56.5470 C.2   217  GLU217      0.2287
     49  O         -5.8400   -6.1410   56.9570 O.2   217  GLU217     -0.2864
     50  CB        -4.8840   -3.7010   55.4990 C.3   217  GLU217      0.0415
     51  CG        -4.4950   -2.2600   55.6040 C.3   217  GLU217      0.1163
     52  CD        -4.9480   -1.6510   56.9540 C.2   217  GLU217      0.3649
     53  OE1       -5.8590   -2.2380   57.6090 O.co2 217  GLU217     -0.2457
     54  OE2       -4.3540   -0.6340   57.3350 O.co2 217  GLU217     -0.2457
     55  N          4.1730    1.3030   61.8260 N.3   227  LYS227     -0.1245
     56  CA         4.9570    1.2410   60.6070 C.3   227  LYS227      0.1561
     57  C          6.3420    1.8730   60.9280 C.2   227  LYS227      0.2260
     58  O          6.4900    2.8030   61.7330 O.2   227  LYS227     -0.2867
     59  CB         4.2960    2.1050   59.5060 C.3   227  LYS227      0.0271
     60  CG         2.9980    1.5660   58.8840 C.3   227  LYS227      0.0035
     61  CD         2.6520    0.1320   59.0560 C.3   227  LYS227      0.0206
     62  CE         1.3320   -0.1580   58.3960 C.3   227  LYS227      0.1093
     63  NZ         0.4120   -0.7940   59.3610 N.3   227  LYS227     -0.1314
     64  N          8.6090    4.3060   52.2030 N.3   239  TYR239     -0.1241
     65  CA         7.5230    3.3520   52.4660 C.3   239  TYR239      0.1605
     66  C          6.7910    2.9730   51.1600 C.2   239  TYR239      0.2264
     67  O          6.4010    3.9080   50.4120 O.2   239  TYR239     -0.2867
     68  CB         6.5560    4.0420   53.4580 C.3   239  TYR239      0.0534
     69  CG         5.3360    3.2450   53.7670 C.ar  239  TYR239     -0.0201
     70  CD1        5.3830    2.2460   54.6770 C.ar  239  TYR239     -0.0009
     71  CD2        4.1810    3.4840   53.0930 C.ar  239  TYR239     -0.0009
     72  CE1        4.2660    1.4340   54.9450 C.ar  239  TYR239      0.0417
     73  CE2        2.9950    2.6860   53.3970 C.ar  239  TYR239      0.0417
     74  CZ         3.0980    1.7100   54.3640 C.ar  239  TYR239      0.1957
     75  OH         1.9950    0.9220   54.5830 O.3   239  TYR239     -0.2866
     76  N          3.6260    1.0050   49.4680 N.3   241  GLY241     -0.1210
     77  CA         2.3820    0.3000   49.6100 C.3   241  GLY241      0.1956
     78  C          1.8100   -0.0650   48.2610 C.2   241  GLY241      0.2612
     79  O          2.3090    0.4440   47.2110 O.2   241  GLY241     -0.2717
     80  N          0.7810   -0.9210   48.3220 N.am  242  THR242     -0.1952
     81  CA         0.1880   -1.3610   47.0520 C.3   242  THR242      0.1897
     82  C         -1.3030   -1.6130   47.2110 C.2   242  THR242      0.2313
     83  O         -1.7050   -2.0520   48.2940 O.2   242  THR242     -0.2863
     84  CB         0.9370   -2.5350   46.4820 C.3   242  THR242      0.1794
     85  OG1        0.2780   -2.9880   45.2730 O.3   242  THR242     -0.2208
     86  CG2        0.9930   -3.7610   47.4210 C.3   242  THR242      0.0378
     87  N         -5.3440   -5.4400   48.6620 N.3   246  ILE246     -0.1245
     88  CA        -6.4480   -4.7700   49.3810 C.3   246  ILE246      0.1561
     89  C         -7.5360   -4.2550   48.4620 C.2   246  ILE246      0.2260
     90  O         -8.6120   -3.9190   48.9400 O.2   246  ILE246     -0.2867
     91  CB        -5.9510   -3.5670   50.2480 C.3   246  ILE246      0.0252
     92  CG1       -5.2240   -2.5170   49.3780 C.3   246  ILE246      0.0019
     93  CG2       -5.0510   -4.1360   51.3900 C.3   246  ILE246      0.0019
     94  CD1       -4.8100   -1.2150   50.1840 C.3   246  ILE246      0.0001
     95  N          2.2400    2.7470   45.6680 N.3   255  TRP255     -0.1241
     96  CA         2.7210    4.1220   46.0110 C.3   255  TRP255      0.1605
     97  C          4.0460    4.0180   46.7780 C.2   255  TRP255      0.2264
     98  O          4.4190    2.9860   47.3190 O.2   255  TRP255     -0.2867
     99  CB         1.6360    4.9690   46.8080 C.3   255  TRP255      0.0550
    100  CG         1.2240    4.3230   48.1010 C.ar  255  TRP255      0.0003
    101  CD1        1.8340    4.4960   49.3310 C.ar  255  TRP255      0.0946
    102  CD2        0.1730    3.3650   48.3290 C.ar  255  TRP255      0.0152
    103  NE1        1.2000    3.7350   50.2870 N.ar  255  TRP255     -0.2442
    104  CE2        0.1720    3.0430   49.7200 C.ar  255  TRP255      0.0810
    105  CE3       -0.7780    2.8010   47.5010 C.ar  255  TRP255      0.0012
    106  CZ2       -0.7660    2.1690   50.3020 C.ar  255  TRP255      0.0191
    107  CZ3       -1.7270    1.8540   48.0710 C.ar  255  TRP255      0.0001
    108  CH2       -1.7100    1.5800   49.4620 C.ar  255  TRP255      0.0015
@<TRIPOS>BOND
     1    85    84    1
     2    95    96    1
     3    96    97    1
     4    96    99    1
     5    84    81    1
     6    84    86    1
     7    97    98    2
     8    99   100    1
     9    81    82    1
    10    81    80    1
    11    82    83    2
    12    79    78    2
    13   105   107   ar
    14   105   102   ar
    15   107   108   ar
    16   100   102   ar
    17   100   101   ar
    18    78    80   am
    19    78    77    1
    20   102   104   ar
    21    89    90    2
    22    89    88    1
    23    87    88    1
    24   101   103   ar
    25    92    94    1
    26    92    91    1
    27    88    91    1
    28   108   106   ar
    29    76    77    1
    30   104   103   ar
    31   104   106   ar
    32    40    39    1
    33    40    41    1
    34    39    36    1
    35    91    93    1
    36    67    66    2
    37    36    35    1
    38    36    37    1
    39    66    65    1
    40    41    35    1
    41    38    37    2
    42    35    29   am
    43    64    65    1
    44    27    28    1
    45    29    30    2
    46    29    28    1
    47    65    68    1
    48    71    73   ar
    49    71    69   ar
    50    28    31    1
    51    73    74   ar
    52    68    69    1
    53     5     6    1
    54     5     2    1
    55     7     6   ar
    56     7     9   ar
    57    69    70   ar
    58     6     8   ar
    59     9    10   ar
    60    31    32    1
    61     1     2    1
    62    74    75    1
    63    74    72   ar
    64     8    10   ar
    65     8    11   ar
    66    10    12   ar
    67    70    72   ar
    68    11    13   ar
    69     2     3    1
    70    12    14   ar
    71    32    33   ar
    72    32    34   ar
    73    13    14   ar
    74    42    43    1
    75    50    51    1
    76    50    47    1
    77    51    52    1
    78     3     4    2
    79    26    25    1
    80    46    47    1
    81    46    44   am
    82    24    25   ar
    83    24    22   ar
    84    47    48    1
    85    48    49    2
    86    43    44    1
    87    52    54   ar
    88    52    53   ar
    89    25    23   ar
    90    22    20   ar
    91    44    45    2
    92    23    21   ar
    93    62    61    1
    94    62    63    1
    95    20    21   ar
    96    20    19    1
    97    60    61    1
    98    60    59    1
    99    19    16    1
   100    59    56    1
   101    15    16    1
   102    16    17    1
   103    56    57    1
   104    56    55    1
   105    57    58    2
   106    17    18    2
