@<TRIPOS>MOLECULE
tmp/3wx9B03.pdb
 110 103 0 0 0
SMALL
GASTEIGER

@<TRIPOS>ATOM
      1  N         10.5880  -21.8780   38.6820 N.3    23  ARG23      -0.1245
      2  CA         9.4650  -21.0190   38.3420 C.3    23  ARG23       0.1563
      3  C          8.6980  -21.5770   37.1600 C.2    23  ARG23       0.2260
      4  O          7.4620  -21.5640   37.1810 O.2    23  ARG23      -0.2867
      5  CB         9.9660  -19.5710   38.0770 C.3    23  ARG23       0.0307
      6  CG         8.9390  -18.5000   37.7690 C.3    23  ARG23       0.0489
      7  CD         7.8200  -18.3050   38.7800 C.3    23  ARG23       0.2205
      8  NE         8.1750  -18.2350   40.2210 N.pl3  23  ARG23      -0.0865
      9  CZ         8.6410  -17.1600   40.8790 C.cat  23  ARG23       0.5346
     10  NH1        8.9120  -16.0080   40.2630 N.pl3  23  ARG23       0.1354
     11  NH2        8.8780  -17.2590   42.1810 N.pl3  23  ARG23       0.1354
     12  N          6.7390  -24.6340   38.2920 N.3    26  LEU26      -0.1231
     13  CA         5.5580  -24.2620   39.0580 C.3    26  LEU26       0.1693
     14  C          4.4400  -23.6830   38.1640 C.2    26  LEU26       0.2591
     15  O          3.2120  -23.7670   38.4930 O.2    26  LEU26      -0.2718
     16  CB         5.9520  -23.2920   40.1980 C.3    26  LEU26       0.0284
     17  CG         6.8100  -23.9210   41.2920 C.3    26  LEU26       0.0019
     18  CD1        7.1760  -22.8830   42.3420 C.3    26  LEU26       0.0001
     19  CD2        6.0570  -25.0810   41.9590 C.3    26  LEU26       0.0001
     20  N          4.8110  -23.1250   37.0100 N.am   27  LYS27      -0.1980
     21  CA         3.7740  -22.5510   36.1320 C.3    27  LYS27       0.1596
     22  C          2.9330  -23.6690   35.5860 C.2    27  LYS27       0.2287
     23  O          1.7120  -23.5520   35.5270 O.2    27  LYS27      -0.2864
     24  CB         4.3460  -21.7790   34.9360 C.3    27  LYS27       0.0298
     25  CG         4.8440  -20.3900   35.2580 C.3    27  LYS27       0.0038
     26  CD         5.4100  -19.7540   33.9860 C.3    27  LYS27       0.0206
     27  CE         5.3830  -18.2600   34.0580 C.3    27  LYS27       0.1093
     28  NZ         6.2480  -17.6700   32.9800 N.3    27  LYS27      -0.1314
     29  N          0.4670  -25.1680   38.1770 N.3    30  GLU30      -0.1245
     30  CA        -0.7510  -24.4220   38.4760 C.3    30  GLU30       0.1567
     31  C         -1.8680  -24.7910   37.4840 C.2    30  GLU30       0.2260
     32  O         -3.0250  -24.8720   37.8800 O.2    30  GLU30      -0.2867
     33  CB        -0.5140  -22.9050   38.5360 C.3    30  GLU30       0.0388
     34  CG         0.4470  -22.4480   39.6440 C.3    30  GLU30       0.1160
     35  CD        -0.1340  -22.4450   41.1030 C.2    30  GLU30       0.3649
     36  OE1        0.7110  -22.4880   42.0320 O.co2  30  GLU30      -0.2457
     37  OE2       -1.3800  -22.3350   41.3210 O.co2  30  GLU30      -0.2457
     38  N          2.0770  -23.2340   46.2190 N.3    38  ALA38      -0.1231
     39  CA         3.1610  -22.3820   45.6980 C.3    38  ALA38       0.1694
     40  C          2.8280  -21.0110   45.2250 C.2    38  ALA38       0.2593
     41  O          3.7860  -20.2440   45.0200 O.2    38  ALA38      -0.2718
     42  CB         3.9590  -23.1710   44.5590 C.3    38  ALA38       0.0304
     43  N          1.5330  -20.6740   45.1770 N.am   39  GLY39      -0.1942
     44  CA         1.0680  -19.3970   44.5760 C.3    39  GLY39       0.2014
     45  C          1.3890  -18.2270   45.4680 C.2    39  GLY39       0.2639
     46  O          1.5580  -18.4110   46.6520 O.2    39  GLY39      -0.2714
     47  N          1.4820  -17.0730   44.8250 N.am   40  GLY40      -0.1939
     48  CA         1.5280  -15.7890   45.5770 C.3    40  GLY40       0.2014
     49  C          0.4070  -14.8540   45.2160 C.2    40  GLY40       0.2638
     50  O          0.5200  -13.6650   45.3840 O.2    40  GLY40      -0.2714
     51  N         -0.7220  -15.4220   44.8160 N.am   41  LEU41      -0.1977
     52  CA        -1.8550  -14.6170   44.3890 C.3    41  LEU41       0.1596
     53  C         -2.8700  -14.5030   45.4990 C.2    41  LEU41       0.2287
     54  O         -3.1510  -15.4910   46.2100 O.2    41  LEU41      -0.2864
     55  CB        -2.5790  -15.3830   43.2600 C.3    41  LEU41       0.0297
     56  CG        -1.7440  -15.6850   42.0670 C.3    41  LEU41       0.0022
     57  CD1       -2.6710  -16.4290   41.0390 C.3    41  LEU41       0.0001
     58  CD2       -1.1280  -14.4150   41.4880 C.3    41  LEU41       0.0001
     59  N         11.8630  -11.1040   49.9190 N.3   130  TYR130     -0.1241
     60  CA        10.9770  -11.1640   48.7230 C.3   130  TYR130      0.1605
     61  C         11.7710  -11.3810   47.4490 C.2   130  TYR130      0.2264
     62  O         12.6520  -10.5760   47.0960 O.2   130  TYR130     -0.2867
     63  CB        10.1560   -9.8680   48.7240 C.3   130  TYR130      0.0534
     64  CG         9.3090   -9.6950   47.4760 C.ar  130  TYR130     -0.0201
     65  CD1        8.4420  -10.7100   47.0720 C.ar  130  TYR130     -0.0009
     66  CD2        9.3230   -8.5050   46.8200 C.ar  130  TYR130     -0.0009
     67  CE1        7.6380  -10.5300   45.9200 C.ar  130  TYR130      0.0417
     68  CE2        8.5020   -8.2360   45.6530 C.ar  130  TYR130      0.0417
     69  CZ         7.6630   -9.2910   45.2710 C.ar  130  TYR130      0.1957
     70  OH         6.8460   -9.0570   44.1300 O.3   130  TYR130     -0.2866
     71  N          6.4650  -11.6340   53.0600 N.3   184  ASN184     -0.1240
     72  CA         6.6490  -12.5970   51.9760 C.3   184  ASN184      0.1653
     73  C          8.1360  -12.8660   51.8120 C.2   184  ASN184      0.2266
     74  O          8.8540  -11.9470   51.4080 O.2   184  ASN184     -0.2867
     75  CB         6.0930  -11.9980   50.6800 C.3   184  ASN184      0.1155
     76  CG         6.2400  -12.9500   49.4470 C.2   184  ASN184      0.2627
     77  OD1        6.7520  -14.1010   49.5660 O.2   184  ASN184     -0.2716
     78  ND2        5.8380  -12.4480   48.2770 N.am  184  ASN184     -0.0877
     79  N         -3.1930   -6.3690   47.2640 N.3   245  LYS245     -0.1245
     80  CA        -3.8200   -7.2910   48.2050 C.3   245  LYS245      0.1561
     81  C         -4.9510   -6.6600   49.0150 C.2   245  LYS245      0.2260
     82  O         -5.4620   -7.2760   49.9510 O.2   245  LYS245     -0.2867
     83  CB        -2.7700   -7.8830   49.1490 C.3   245  LYS245      0.0271
     84  CG        -1.3760   -7.9710   48.5490 C.3   245  LYS245      0.0035
     85  CD        -1.2970   -9.0630   47.4940 C.3   245  LYS245      0.0206
     86  CE         0.1430   -9.4680   47.2250 C.3   245  LYS245      0.1093
     87  NZ         0.9760   -8.3090   46.8020 N.3   245  LYS245     -0.1314
     88  N          8.0420  -22.0550   51.1470 N.3   376  ARG376     -0.1245
     89  CA         6.9540  -21.1150   51.2920 C.3   376  ARG376      0.1563
     90  C          5.6220  -21.7530   50.9140 C.2   376  ARG376      0.2260
     91  O          5.5170  -22.2870   49.8640 O.2   376  ARG376     -0.2867
     92  CB         7.1650  -19.8460   50.4650 C.3   376  ARG376      0.0307
     93  CG         6.1350  -18.7430   50.7460 C.3   376  ARG376      0.0489
     94  CD         6.1530  -17.6110   49.7690 C.3   376  ARG376      0.2205
     95  NE         5.5590  -17.9670   48.4990 N.pl3 376  ARG376     -0.0865
     96  CZ         5.5420  -17.1810   47.4480 C.cat 376  ARG376      0.5346
     97  NH1        6.0860  -16.0030   47.5050 N.pl3 376  ARG376      0.1354
     98  NH2        4.9870  -17.5900   46.3310 N.pl3 376  ARG376      0.1354
     99  N         -5.1520  -18.9610   48.3660 N.3   381  TYR381     -0.1241
    100  CA        -5.6440  -19.2540   47.0010 C.3   381  TYR381      0.1605
    101  C         -5.7010  -20.7210   46.7020 C.2   381  TYR381      0.2264
    102  O         -5.2040  -21.1320   45.6670 O.2   381  TYR381     -0.2867
    103  CB        -4.5930  -18.7360   46.0090 C.3   381  TYR381      0.0534
    104  CG        -4.9310  -18.7350   44.4890 C.ar  381  TYR381     -0.0201
    105  CD1       -5.6700  -17.6900   43.9280 C.ar  381  TYR381     -0.0009
    106  CD2       -4.4680  -19.7540   43.6220 C.ar  381  TYR381     -0.0009
    107  CE1       -5.9930  -17.6290   42.6390 C.ar  381  TYR381      0.0417
    108  CE2       -4.7900  -19.7140   42.2400 C.ar  381  TYR381      0.0417
    109  CZ        -5.5630  -18.6350   41.7700 C.ar  381  TYR381      0.1957
    110  OH        -5.9130  -18.4660   40.4440 O.3   381  TYR381     -0.2866
@<TRIPOS>BOND
     1    28    27    1
     2    26    27    1
     3    26    25    1
     4    24    25    1
     5    24    21    1
     6    23    22    2
     7    22    21    1
     8    21    20    1
     9    20    14   am
    10     3     4    2
    11     3     2    1
    12    31    32    2
    13    31    30    1
    14     6     5    1
    15     6     7    1
    16     5     2    1
    17    14    15    2
    18    14    13    1
    19    29    30    1
    20    12    13    1
    21     2     1    1
    22    30    33    1
    23    33    34    1
    24     7     8    1
    25    13    16    1
    26    34    35    1
    27    16    17    1
    28     8     9    2
    29    10     9    1
    30   110   109    1
    31     9    11    1
    32    57    56    1
    33    35    37   ar
    34    35    36   ar
    35    17    19    1
    36    17    18    1
    37    58    56    1
    38   109   108   ar
    39   109   107   ar
    40    56    55    1
    41   108   106   ar
    42   107   105   ar
    43    55    52    1
    44   106   104   ar
    45   105   104   ar
    46    70    69    1
    47    52    51    1
    48    52    53    1
    49   104   103    1
    50    42    39    1
    51    44    43    1
    52    44    45    1
    53    51    49   am
    54    47    45   am
    55    47    48    1
    56    41    40    2
    57    43    40   am
    58    49    50    2
    59    49    48    1
    60    40    39    1
    61    69    68   ar
    62    69    67   ar
    63    45    46    2
    64    53    54    2
    65    68    66   ar
    66   102   101    2
    67    39    38    1
    68    67    65   ar
    69   103   100    1
    70    98    96    1
    71   101   100    1
    72    87    86    1
    73    66    64   ar
    74   100    99    1
    75    65    64   ar
    76    62    61    2
    77    86    85    1
    78    79    80    1
    79    96    97    1
    80    96    95    2
    81    61    60    1
    82    64    63    1
    83    85    84    1
    84    80    81    1
    85    80    83    1
    86    78    76   am
    87    95    94    1
    88    84    83    1
    89    60    63    1
    90    60    59    1
    91    81    82    2
    92    76    77    2
    93    76    75    1
    94    94    93    1
    95    91    90    2
    96    92    93    1
    97    92    89    1
    98    75    72    1
    99    90    89    1
   100    88    89    1
   101    74    73    2
   102    73    72    1
   103    72    71    1
