@<TRIPOS>MOLECULE
tmp/3wx9A02.pdb
 127 121 0 0 0
SMALL
GASTEIGER

@<TRIPOS>ATOM
      1  N         10.6020   22.0710   29.7270 N.3    23  ARG23      -0.1245
      2  CA         9.4670   21.2170   30.1310 C.3    23  ARG23       0.1563
      3  C          8.6740   21.8440   31.2650 C.2    23  ARG23       0.2260
      4  O          7.4290   21.8800   31.2250 O.2    23  ARG23      -0.2867
      5  CB         9.9470   19.8110   30.6070 C.3    23  ARG23       0.0307
      6  CG         9.1420   18.6250   30.0950 C.3    23  ARG23       0.0489
      7  CD         7.7310   18.5370   30.6090 C.3    23  ARG23       0.2205
      8  NE         6.8440   18.4540   29.4590 N.pl3  23  ARG23      -0.0865
      9  CZ         6.0810   19.4580   29.0270 C.cat  23  ARG23       0.5346
     10  NH1        5.3300   19.2980   27.9380 N.pl3  23  ARG23       0.1354
     11  NH2        6.0410   20.6140   29.6850 N.pl3  23  ARG23       0.1354
     12  N          1.4740   17.2640   23.5220 N.3    40  GLY40      -0.1210
     13  CA         1.5430   16.0100   22.7400 C.3    40  GLY40       0.1956
     14  C          0.4250   15.0550   23.1130 C.2    40  GLY40       0.2611
     15  O          0.5360   13.8490   22.9770 O.2    40  GLY40      -0.2717
     16  N         -0.6900   15.6180   23.5560 N.am   41  LEU41      -0.1979
     17  CA        -1.8700   14.8500   23.9500 C.3    41  LEU41       0.1596
     18  C         -2.8860   14.6910   22.8600 C.2    41  LEU41       0.2287
     19  O         -3.2010   15.6440   22.1470 O.2    41  LEU41      -0.2864
     20  CB        -2.5990   15.5860   25.0940 C.3    41  LEU41       0.0297
     21  CG        -1.7990   15.8940   26.3380 C.3    41  LEU41       0.0022
     22  CD1       -2.7040   16.5420   27.4340 C.3    41  LEU41       0.0001
     23  CD2       -1.1550   14.6230   26.8300 C.3    41  LEU41       0.0001
     24  N         11.8460   11.2860   18.4420 N.3   130  TYR130     -0.1227
     25  CA        10.9900   11.3450   19.6410 C.3   130  TYR130      0.1736
     26  C         11.7960   11.5700   20.9030 C.2   130  TYR130      0.2595
     27  O         12.6710   10.7550   21.2640 O.2   130  TYR130     -0.2718
     28  CB        10.1610   10.0410   19.6650 C.3   130  TYR130      0.0548
     29  CG         9.2890    9.8650   20.8900 C.ar  130  TYR130     -0.0200
     30  CD1        8.4140   10.8870   21.2950 C.ar  130  TYR130     -0.0009
     31  CD2        9.3210    8.6870   21.5500 C.ar  130  TYR130     -0.0009
     32  CE1        7.6030   10.7030   22.4220 C.ar  130  TYR130      0.0417
     33  CE2        8.4860    8.4580   22.6970 C.ar  130  TYR130      0.0417
     34  CZ         7.6590    9.4790   23.0690 C.ar  130  TYR130      0.1957
     35  OH         6.8130    9.3420   24.1740 O.3   130  TYR130     -0.2866
     36  N         11.5440   12.6750   21.5640 N.am  131  LEU131     -0.1966
     37  CA        12.3000   13.0630   22.7280 C.3   131  LEU131      0.1728
     38  C         12.3500   12.0190   23.8040 C.2   131  LEU131      0.2616
     39  O         13.3640   11.8110   24.3450 O.2   131  LEU131     -0.2715
     40  CB        11.7630   14.3590   23.3170 C.3   131  LEU131      0.0311
     41  CG        12.3830   14.8850   24.6020 C.3   131  LEU131      0.0022
     42  CD1       13.8430   14.9310   24.5000 C.3   131  LEU131      0.0001
     43  CD2       11.8240   16.2430   24.8520 C.3   131  LEU131      0.0001
     44  N         11.2330   11.3840   24.1110 N.am  132  ALA132     -0.1977
     45  CA        11.2590   10.4540   25.2150 C.3   132  ALA132      0.1597
     46  C         11.9590    9.1420   24.8740 C.2   132  ALA132      0.2287
     47  O         12.3020    8.4030   25.7730 O.2   132  ALA132     -0.2864
     48  CB         9.7860   10.1220   25.7370 C.3   132  ALA132      0.0319
     49  N         15.3270   10.0010   25.8990 N.3   135  GLN135     -0.1245
     50  CA        15.3420    9.9260   27.4030 C.3   135  GLN135      0.1566
     51  C         15.4020    8.4810   27.9150 C.2   135  GLN135      0.2260
     52  O         16.1370    8.2270   28.9050 O.2   135  GLN135     -0.2867
     53  CB        14.1920   10.7400   28.0380 C.3   135  GLN135      0.0367
     54  CG        14.4090   12.1380   27.6670 C.3   135  GLN135      0.0905
     55  CD        13.1890   13.0150   27.9140 C.2   135  GLN135      0.2608
     56  OE1       12.0520   12.5490   27.9080 O.2   135  GLN135     -0.2717
     57  NE2       13.4460   14.3150   28.1400 N.am  135  GLN135     -0.0878
     58  N          6.4940   11.8220   15.3190 N.3   184  ASN184     -0.1240
     59  CA         6.6310   12.8100   16.4150 C.3   184  ASN184      0.1653
     60  C          8.1620   13.0690   16.5390 C.2   184  ASN184      0.2266
     61  O          8.9250   12.1420   16.9130 O.2   184  ASN184     -0.2867
     62  CB         6.0730   12.2450   17.7090 C.3   184  ASN184      0.1155
     63  CG         6.2600   13.1970   18.9060 C.2   184  ASN184      0.2627
     64  OD1        6.7450   14.3540   18.7650 O.2   184  ASN184     -0.2716
     65  ND2        5.8240   12.7460   20.0630 N.am  184  ASN184     -0.0877
     66  N          1.0020    6.2670   15.3540 N.3   215  TYR215     -0.1241
     67  CA         0.1360    7.2320   14.6210 C.3   215  TYR215      0.1605
     68  C         -0.3790    6.6790   13.3040 C.2   215  TYR215      0.2264
     69  O         -1.1800    7.3660   12.7240 O.2   215  TYR215     -0.2867
     70  CB         0.9370    8.4910   14.2930 C.3   215  TYR215      0.0534
     71  CG         1.4600    9.1170   15.5760 C.ar  215  TYR215     -0.0201
     72  CD1        0.5580    9.7930   16.4930 C.ar  215  TYR215     -0.0009
     73  CD2        2.8150    9.1390   15.8300 C.ar  215  TYR215     -0.0009
     74  CE1        1.0850   10.3410   17.6460 C.ar  215  TYR215      0.0417
     75  CE2        3.3110    9.7570   16.9890 C.ar  215  TYR215      0.0417
     76  CZ         2.4460   10.3240   17.8830 C.ar  215  TYR215      0.1957
     77  OH         2.9830   10.9110   19.0490 O.3   215  TYR215     -0.2866
     78  N         -3.2330    6.4740   21.0850 N.3   245  LYS245     -0.1245
     79  CA        -3.8160    7.4120   20.1200 C.3   245  LYS245      0.1561
     80  C         -4.8860    6.7850   19.2230 C.2   245  LYS245      0.2260
     81  O         -5.2560    7.3440   18.1910 O.2   245  LYS245     -0.2867
     82  CB        -2.7170    8.0400   19.2590 C.3   245  LYS245      0.0271
     83  CG        -1.3880    8.2100   19.9760 C.3   245  LYS245      0.0035
     84  CD        -1.3460    9.5100   20.7630 C.3   245  LYS245      0.0206
     85  CE         0.0520    9.7940   21.2860 C.3   245  LYS245      0.1093
     86  NZ         0.7700    8.5440   21.6600 N.3   245  LYS245     -0.1314
     87  N         -0.2050   13.9870   14.6250 N.3   333  MET333     -0.1230
     88  CA        -0.6320   15.0310   15.5810 C.3   333  MET333      0.1702
     89  C          0.1630   16.3310   15.4270 C.2   333  MET333      0.2592
     90  O         -0.1770   17.3290   16.0890 O.2   333  MET333     -0.2718
     91  CB        -0.4800   14.4890   17.0630 C.3   333  MET333      0.0401
     92  CG        -1.2740   13.1300   17.2180 C.3   333  MET333      0.0596
     93  SD        -1.6800   12.8270   18.9110 S.3   333  MET333     -0.1393
     94  CE        -0.2570   13.2950   19.7160 C.3   333  MET333      0.0692
     95  N          1.1990   16.3840   14.5630 N.am  334  PHE334     -0.1976
     96  CA         2.2300   17.4310   14.6830 C.3   334  PHE334      0.1639
     97  C          2.5870   17.9980   13.3130 C.2   334  PHE334      0.2290
     98  O          2.5810   17.2610   12.2650 O.2   334  PHE334     -0.2864
     99  CB         3.5240   16.8480   15.2800 C.3   334  PHE334      0.0560
    100  CG         3.3160   16.3170   16.6410 C.ar  334  PHE334     -0.0200
    101  CD1        2.9800   17.1760   17.6660 C.ar  334  PHE334     -0.0042
    102  CD2        3.3860   14.9180   16.8640 C.ar  334  PHE334     -0.0042
    103  CE1        2.7280   16.6920   18.9560 C.ar  334  PHE334     -0.0003
    104  CE2        3.1600   14.3690   18.1830 C.ar  334  PHE334     -0.0003
    105  CZ         2.8410   15.2720   19.2070 C.ar  334  PHE334     -0.0000
    106  N         14.6320   17.6790   20.7040 N.3   365  PHE365     -0.1241
    107  CA        14.4090   16.5150   19.8340 C.3   365  PHE365      0.1605
    108  C         15.6400   16.0410   19.0010 C.2   365  PHE365      0.2264
    109  O         15.5740   15.0710   18.2310 O.2   365  PHE365     -0.2867
    110  CB        13.2220   16.8320   18.8980 C.3   365  PHE365      0.0534
    111  CG        11.9510   17.1300   19.6080 C.ar  365  PHE365     -0.0203
    112  CD1       11.0770   16.1220   19.8950 C.ar  365  PHE365     -0.0042
    113  CD2       11.6030   18.4300   19.9420 C.ar  365  PHE365     -0.0042
    114  CE1        9.8590   16.3910   20.4620 C.ar  365  PHE365     -0.0003
    115  CE2       10.3710   18.6730   20.6230 C.ar  365  PHE365     -0.0003
    116  CZ         9.5530   17.6070   20.8970 C.ar  365  PHE365     -0.0000
    117  N          8.0530   22.2510   17.2550 N.3   376  ARG376     -0.1245
    118  CA         6.9600   21.3260   17.0590 C.3   376  ARG376      0.1563
    119  C          5.6010   21.9840   17.4590 C.2   376  ARG376      0.2260
    120  O          5.4900   22.5520   18.5890 O.2   376  ARG376     -0.2867
    121  CB         7.1850   20.0290   17.8860 C.3   376  ARG376      0.0307
    122  CG         6.1110   18.9420   17.5800 C.3   376  ARG376      0.0489
    123  CD         6.2230   17.7990   18.5890 C.3   376  ARG376      0.2205
    124  NE         5.5670   18.1950   19.8520 N.pl3 376  ARG376     -0.0865
    125  CZ         5.5190   17.3620   20.8690 C.cat 376  ARG376      0.5346
    126  NH1        6.1140   16.1830   20.8430 N.pl3 376  ARG376      0.1354
    127  NH2        4.9090   17.7230   22.0310 N.pl3 376  ARG376      0.1354
@<TRIPOS>BOND
     1    98    97    2
     2    69    68    2
     3    68    67    1
     4    97    96    1
     5    70    67    1
     6    70    71    1
     7    95    96    1
     8    95    89   am
     9    67    66    1
    10    87    88    1
    11    96    99    1
    12    99   100    1
    13    58    59    1
    14    89    88    1
    15    89    90    2
    16    71    73   ar
    17    71    72   ar
    18    88    91    1
    19    73    75   ar
    20    59    60    1
    21    59    62    1
    22    72    74   ar
    23    60    61    2
    24   100   102   ar
    25   100   101   ar
    26   102   104   ar
    27    75    76   ar
    28   118   117    1
    29   118   119    1
    30   118   121    1
    31    91    92    1
    32    92    93    1
    33   119   120    2
    34   122   121    1
    35   122   123    1
    36    74    76   ar
    37   101   103   ar
    38    62    63    1
    39    76    77    1
    40   104   105   ar
    41    81    80    2
    42   109   108    2
    43    24    25    1
    44   123   124    1
    45    64    63    2
    46   110   111    1
    47   110   107    1
    48    63    65   am
    49    93    94    1
    50   103   105   ar
    51   108   107    1
    52    80    79    1
    53    82    83    1
    54    82    79    1
    55   111   112   ar
    56   111   113   ar
    57    25    28    1
    58    25    26    1
    59    28    29    1
    60   107   106    1
    61   124   125    2
    62   112   114   ar
    63   113   115   ar
    64    83    84    1
    65    79    78    1
    66   114   116   ar
    67   115   116   ar
    68    84    85    1
    69   126   125    1
    70   125   127    1
    71    29    30   ar
    72    29    31   ar
    73    26    27    2
    74    26    36   am
    75    85    86    1
    76    30    32   ar
    77    31    33   ar
    78    36    37    1
    79    19    18    2
    80    32    34   ar
    81    33    34   ar
    82    37    40    1
    83    37    38    1
    84    13    14    1
    85    13    12    1
    86    18    17    1
    87    15    14    2
    88    34    35    1
    89    14    16   am
    90    40    41    1
    91    16    17    1
    92    38    44   am
    93    38    39    2
    94    17    20    1
    95    44    45    1
    96    42    41    1
    97    41    43    1
    98    46    45    1
    99    46    47    2
   100    20    21    1
   101    45    48    1
   102    49    50    1
   103    21    23    1
   104    21    22    1
   105    50    51    1
   106    50    53    1
   107    54    55    1
   108    54    53    1
   109    56    55    2
   110    55    57   am
   111    51    52    2
   112    10     9    1
   113     9     8    2
   114     9    11    1
   115     8     7    1
   116     1     2    1
   117     6     5    1
   118     6     7    1
   119     2     5    1
   120     2     3    1
   121     4     3    2
