@<TRIPOS>MOLECULE
tmp/3wxaB00.pdb
 209 205 0 0 0
SMALL
GASTEIGER

@<TRIPOS>ATOM
      1  N         32.1300   63.5240  -29.0640 N.3     3  PHE3       -0.1241
      2  CA        32.2740   63.7450  -27.6320 C.3     3  PHE3        0.1605
      3  C         31.3610   62.7860  -26.8800 C.2     3  PHE3        0.2264
      4  O         31.7000   62.2990  -25.7990 O.2     3  PHE3       -0.2867
      5  CB        31.9550   65.1950  -27.2670 C.3     3  PHE3        0.0534
      6  CG        31.7550   65.4170  -25.7940 C.ar    3  PHE3       -0.0203
      7  CD1       32.8310   65.3880  -24.9210 C.ar    3  PHE3       -0.0042
      8  CD2       30.4900   65.6570  -25.2830 C.ar    3  PHE3       -0.0042
      9  CE1       32.6470   65.5910  -23.5680 C.ar    3  PHE3       -0.0003
     10  CE2       30.3010   65.8610  -23.9320 C.ar    3  PHE3       -0.0003
     11  CZ        31.3810   65.8280  -23.0740 C.ar    3  PHE3       -0.0000
     12  N         32.5480   59.3970  -24.4160 N.3     7  VAL7       -0.1245
     13  CA        32.0200   58.8770  -23.1610 C.3     7  VAL7        0.1561
     14  C         31.3630   57.5160  -23.3730 C.2     7  VAL7        0.2260
     15  O         31.3790   56.6730  -22.4810 O.2     7  VAL7       -0.2867
     16  CB        31.0090   59.8510  -22.5190 C.3     7  VAL7        0.0252
     17  CG1       31.7290   61.0750  -21.9730 C.3     7  VAL7        0.0019
     18  CG2       29.9440   60.2610  -23.5210 C.3     7  VAL7        0.0019
     19  N         34.1260   54.7550  -23.2350 N.3    10  ARG10      -0.1231
     20  CA        34.4750   54.4740  -21.8440 C.3    10  ARG10       0.1694
     21  C         33.3640   53.6350  -21.2150 C.2    10  ARG10       0.2591
     22  O         33.6270   52.5300  -20.7260 O.2    10  ARG10      -0.2718
     23  CB        34.7090   55.7870  -21.0730 C.3    10  ARG10       0.0321
     24  CG        34.8410   55.7320  -19.5300 C.3    10  ARG10       0.0489
     25  CD        35.3310   54.4150  -18.9270 C.3    10  ARG10       0.2205
     26  NE        35.1340   54.3900  -17.4810 N.pl3  10  ARG10      -0.0865
     27  CZ        33.9710   54.1250  -16.8920 C.cat  10  ARG10       0.5346
     28  NH1       32.8890   53.8970  -17.6220 N.pl3  10  ARG10       0.1354
     29  NH2       33.8830   54.1160  -15.5700 N.pl3  10  ARG10       0.1354
     30  N         32.1390   54.1610  -21.2230 N.am   11  VAL11      -0.1980
     31  CA        30.9970   53.4690  -20.6320 C.3    11  VAL11       0.1595
     32  C         30.8990   52.0270  -21.1250 C.2    11  VAL11       0.2287
     33  O         30.7280   51.1020  -20.3300 O.2    11  VAL11      -0.2864
     34  CB        29.6750   54.1990  -20.9360 C.3    11  VAL11       0.0276
     35  CG1       28.4910   53.3460  -20.5220 C.3    11  VAL11       0.0022
     36  CG2       29.6250   55.5410  -20.2220 C.3    11  VAL11       0.0022
     37  N         26.1000   50.5770  -17.6740 N.3    24  LEU24      -0.1245
     38  CA        25.5020   51.8970  -17.5210 C.3    24  LEU24       0.1561
     39  C         25.5030   52.3130  -16.0560 C.2    24  LEU24       0.2260
     40  O         25.7980   53.4600  -15.7300 O.2    24  LEU24      -0.2867
     41  CB        24.0750   51.9150  -18.0740 C.3    24  LEU24       0.0270
     42  CG        23.3450   53.2580  -17.9760 C.3    24  LEU24       0.0019
     43  CD1       24.0490   54.3160  -18.8110 C.3    24  LEU24       0.0001
     44  CD2       21.8890   53.1210  -18.3920 C.3    24  LEU24       0.0001
     45  N         27.5320   51.4290  -13.5660 N.3    26  GLN26      -0.1231
     46  CA        28.8650   51.7600  -13.0710 C.3    26  GLN26       0.1698
     47  C         29.3870   53.0650  -13.6610 C.2    26  GLN26       0.2592
     48  O         30.4170   53.5820  -13.2300 O.2    26  GLN26      -0.2718
     49  CB        29.8390   50.6210  -13.3760 C.3    26  GLN26       0.0381
     50  CG        29.5940   49.3650  -12.5540 C.3    26  GLN26       0.0905
     51  CD        30.4130   48.1830  -13.0320 C.2    26  GLN26       0.2608
     52  OE1       31.1160   47.5440  -12.2490 O.2    26  GLN26      -0.2717
     53  NE2       30.3220   47.8830  -14.3220 N.am   26  GLN26      -0.0878
     54  N         28.6720   53.5930  -14.6480 N.am   27  ALA27      -0.1966
     55  CA        29.0390   54.8610  -15.2630 C.3    27  ALA27       0.1728
     56  C         28.2220   56.0050  -14.6730 C.2    27  ALA27       0.2616
     57  O         28.4300   57.1690  -15.0130 O.2    27  ALA27      -0.2715
     58  CB        28.8480   54.7950  -16.7670 C.3    27  ALA27       0.0334
     59  N         27.2920   55.6650  -13.7860 N.am   28  LEU28      -0.1963
     60  CA        26.4050   56.6590  -13.1950 C.3    28  LEU28       0.1728
     61  C         26.7170   56.9160  -11.7270 C.2    28  LEU28       0.2617
     62  O         27.1640   56.0240  -11.0070 O.2    28  LEU28      -0.2715
     63  CB        24.9450   56.2230  -13.3410 C.3    28  LEU28       0.0311
     64  CG        24.4150   56.1320  -14.7710 C.3    28  LEU28       0.0022
     65  CD1       22.9160   55.8670  -14.7860 C.3    28  LEU28       0.0001
     66  CD2       24.7550   57.3970  -15.5300 C.3    28  LEU28       0.0001
     67  N         26.4730   58.1480  -11.2930 N.am   29  SER29      -0.1936
     68  CA        26.6460   58.5210   -9.8960 C.3    29  SER29       0.2055
     69  C         25.3570   59.1090   -9.3400 C.2    29  SER29       0.2643
     70  O         24.6250   59.8000  -10.0470 O.2    29  SER29      -0.2714
     71  CB        27.7890   59.5230   -9.7390 C.3    29  SER29       0.2130
     72  OG        27.8940   59.9710   -8.3990 O.3    29  SER29      -0.2179
     73  N         25.0800   58.8280   -8.0720 N.am   30  ASN30      -0.1957
     74  CA        23.9170   59.3980   -7.4060 C.3    30  ASN30       0.1819
     75  C         24.3290   60.4660   -6.4010 C.2    30  ASN30       0.2622
     76  O         23.5080   60.9570   -5.6280 O.2    30  ASN30      -0.2715
     77  CB        23.1010   58.3040   -6.7160 C.3    30  ASN30       0.1195
     78  CG        23.9500   57.4000   -5.8430 C.2    30  ASN30       0.2630
     79  OD1       25.0730   57.7450   -5.4750 O.2    30  ASN30      -0.2716
     80  ND2       23.4130   56.2330   -5.5050 N.am   30  ASN30      -0.0877
     81  N         25.6110   60.8180   -6.4200 N.am   31  GLY31      -0.1940
     82  CA        26.1440   61.8220   -5.5190 C.3    31  GLY31       0.2014
     83  C         26.6700   61.2230   -4.2290 C.2    31  GLY31       0.2640
     84  O         27.2730   61.9190   -3.4120 O.2    31  GLY31      -0.2714
     85  N         26.4430   59.9260   -4.0460 N.am   32  THR32      -0.1936
     86  CA        26.8640   59.2380   -2.8310 C.3    32  THR32       0.2028
     87  C         27.8610   58.1230   -3.1300 C.2    32  THR32       0.2642
     88  O         28.2880   57.9490   -4.2720 O.2    32  THR32      -0.2714
     89  CB        25.6600   58.6440   -2.0770 C.3    32  THR32       0.1808
     90  OG1       25.0080   57.6720   -2.9020 O.3    32  THR32      -0.2208
     91  CG2       24.6680   59.7370   -1.7130 C.3    32  THR32       0.0379
     92  N         28.2250   57.3700   -2.0970 N.am   33  TRP33      -0.1973
     93  CA        29.1890   56.2840   -2.2400 C.3    33  TRP33       0.1640
     94  C         28.4990   54.9360   -2.4090 C.2    33  TRP33       0.2290
     95  O         29.1210   53.8870   -2.2460 O.2    33  TRP33      -0.2864
     96  CB        30.1290   56.2410   -1.0350 C.3    33  TRP33       0.0576
     97  CG        30.9980   57.4500   -0.9190 C.ar   33  TRP33       0.0006
     98  CD1       30.8970   58.4480    0.0050 C.ar   33  TRP33       0.0946
     99  CD2       32.1010   57.7970   -1.7650 C.ar   33  TRP33       0.0152
    100  NE1       31.8710   59.3930   -0.2090 N.ar   33  TRP33      -0.2442
    101  CE2       32.6240   59.0160   -1.2910 C.ar   33  TRP33       0.0810
    102  CE3       32.6980   57.1930   -2.8760 C.ar   33  TRP33       0.0012
    103  CZ2       33.7150   59.6430   -1.8890 C.ar   33  TRP33       0.0191
    104  CZ3       33.7810   57.8170   -3.4680 C.ar   33  TRP33       0.0001
    105  CH2       34.2780   59.0290   -2.9730 C.ar   33  TRP33       0.0015
    106  N         24.6150   53.1820   -8.1560 N.3    36  PHE36      -0.1241
    107  CA        23.3960   53.6980   -8.7680 C.3    36  PHE36       0.1605
    108  C         22.3190   52.6180   -8.7810 C.2    36  PHE36       0.2264
    109  O         22.6090   51.4500   -9.0400 O.2    36  PHE36      -0.2867
    110  CB        23.6850   54.1890  -10.1890 C.3    36  PHE36       0.0534
    111  CG        22.7310   55.2400  -10.6830 C.ar   36  PHE36      -0.0203
    112  CD1       22.9930   56.5850  -10.4740 C.ar   36  PHE36      -0.0042
    113  CD2       21.5810   54.8870  -11.3700 C.ar   36  PHE36      -0.0042
    114  CE1       22.1250   57.5570  -10.9350 C.ar   36  PHE36      -0.0003
    115  CE2       20.7070   55.8550  -11.8320 C.ar   36  PHE36      -0.0003
    116  CZ        20.9810   57.1910  -11.6150 C.ar   36  PHE36      -0.0000
    117  N         22.3200   55.7790  -27.0840 N.3    61  PHE61      -0.1241
    118  CA        23.0130   56.3590  -25.9370 C.3    61  PHE61       0.1605
    119  C         22.9210   57.8810  -25.9430 C.2    61  PHE61       0.2264
    120  O         22.9330   58.5150  -24.8870 O.2    61  PHE61      -0.2867
    121  CB        24.4800   55.9230  -25.9150 C.3    61  PHE61       0.0534
    122  CG        25.3090   56.6340  -24.8830 C.ar   61  PHE61      -0.0203
    123  CD1       25.1510   56.3550  -23.5360 C.ar   61  PHE61      -0.0042
    124  CD2       26.2500   57.5780  -25.2600 C.ar   61  PHE61      -0.0042
    125  CE1       25.9140   57.0060  -22.5840 C.ar   61  PHE61      -0.0003
    126  CE2       27.0150   58.2320  -24.3140 C.ar   61  PHE61      -0.0003
    127  CZ        26.8470   57.9460  -22.9740 C.ar   61  PHE61      -0.0000
    128  N         19.9840   58.5640  -24.1480 N.3    64  VAL64      -0.1231
    129  CA        20.2460   58.2720  -22.7430 C.3    64  VAL64       0.1692
    130  C         21.0550   59.3940  -22.1050 C.2    64  VAL64       0.2592
    131  O         20.7940   59.7930  -20.9700 O.2    64  VAL64      -0.2718
    132  CB        21.0030   56.9390  -22.5710 C.3    64  VAL64       0.0266
    133  CG1       21.3220   56.6880  -21.1040 C.3    64  VAL64       0.0020
    134  CG2       20.1930   55.7910  -23.1450 C.3    64  VAL64       0.0020
    135  N         22.0350   59.9010  -22.8480 N.am   65  TRP65      -0.1976
    136  CA        22.8860   60.9800  -22.3610 C.3    65  TRP65       0.1640
    137  C         22.0620   62.2220  -22.0540 C.2    65  TRP65       0.2290
    138  O         22.1380   62.7610  -20.9550 O.2    65  TRP65      -0.2864
    139  CB        23.9790   61.3140  -23.3790 C.3    65  TRP65       0.0576
    140  CG        25.0590   62.2030  -22.8300 C.ar   65  TRP65       0.0006
    141  CD1       26.2250   61.8060  -22.2420 C.ar   65  TRP65       0.0946
    142  CD2       25.0730   63.6380  -22.8170 C.ar   65  TRP65       0.0152
    143  NE1       26.9630   62.9010  -21.8630 N.ar   65  TRP65      -0.2442
    144  CE2       26.2790   64.0380  -22.2060 C.ar   65  TRP65       0.0810
    145  CE3       24.1850   64.6210  -23.2640 C.ar   65  TRP65       0.0012
    146  CZ2       26.6180   65.3780  -22.0300 C.ar   65  TRP65       0.0191
    147  CZ3       24.5250   65.9520  -23.0880 C.ar   65  TRP65       0.0001
    148  CH2       25.7300   66.3170  -22.4770 C.ar   65  TRP65       0.0015
    149  N         19.2540   61.8640  -18.8840 N.3    68  ILE68      -0.1231
    150  CA        19.6740   62.0380  -17.5050 C.3    68  ILE68       0.1692
    151  C         20.4940   63.3120  -17.3260 C.2    68  ILE68       0.2592
    152  O         20.6670   63.7800  -16.2040 O.2    68  ILE68      -0.2718
    153  CB        20.4800   60.8300  -17.0050 C.3    68  ILE68       0.0266
    154  CG1       21.7970   60.7140  -17.7650 C.3    68  ILE68       0.0019
    155  CG2       19.6650   59.5490  -17.1460 C.3    68  ILE68       0.0020
    156  CD1       22.6130   59.5350  -17.3370 C.3    68  ILE68       0.0001
    157  N         20.9930   63.8760  -18.4240 N.am   69  THR69      -0.1953
    158  CA        21.6770   65.1650  -18.3550 C.3    69  THR69       0.1897
    159  C         20.6600   66.2380  -18.0080 C.2    69  THR69       0.2313
    160  O         20.9310   67.1470  -17.2250 O.2    69  THR69      -0.2863
    161  CB        22.3780   65.5360  -19.6710 C.3    69  THR69       0.1794
    162  OG1       23.3880   64.5650  -19.9690 O.3    69  THR69      -0.2208
    163  CG2       23.0220   66.9080  -19.5670 C.3    69  THR69       0.0378
    164  N         19.9890   65.9790  -14.4640 N.3    72  GLN72      -0.1245
    165  CA        20.9780   66.4100  -13.4680 C.3    72  GLN72       0.1566
    166  C         20.5620   67.7790  -13.1430 C.2    72  GLN72       0.2260
    167  O         20.6490   68.1850  -12.0010 O.2    72  GLN72      -0.2867
    168  CB        22.4230   66.5490  -13.9310 C.3    72  GLN72       0.0367
    169  CG        22.7710   65.8070  -15.1560 C.3    72  GLN72       0.0905
    170  CD        24.2690   65.4720  -15.3400 C.2    72  GLN72       0.2608
    171  OE1       24.7490   64.3840  -15.0040 O.2    72  GLN72      -0.2717
    172  NE2       25.0210   66.4920  -15.6830 N.am   72  GLN72      -0.0878
    173  N         17.0290   67.8120  -11.3380 N.3    75  PHE75      -0.1227
    174  CA        17.2140   67.3660   -9.9630 C.3    75  PHE75       0.1736
    175  C         17.7690   68.4740   -9.0760 C.2    75  PHE75       0.2595
    176  O         17.1660   68.8130   -8.0590 O.2    75  PHE75      -0.2718
    177  CB        18.1390   66.1490   -9.9120 C.3    75  PHE75       0.0547
    178  CG        18.3480   65.6000   -8.5300 C.ar   75  PHE75      -0.0202
    179  CD1       17.4430   64.7070   -7.9830 C.ar   75  PHE75      -0.0042
    180  CD2       19.4530   65.9710   -7.7820 C.ar   75  PHE75      -0.0042
    181  CE1       17.6340   64.1980   -6.7140 C.ar   75  PHE75      -0.0003
    182  CE2       19.6480   65.4670   -6.5120 C.ar   75  PHE75      -0.0003
    183  CZ        18.7380   64.5790   -5.9770 C.ar   75  PHE75      -0.0000
    184  N         18.9120   69.0430   -9.4530 N.am   76  ARG76      -0.1980
    185  CA        19.5680   70.0050   -8.5710 C.3    76  ARG76       0.1597
    186  C         19.0810   71.4410   -8.7560 C.2    76  ARG76       0.2287
    187  O         19.6230   72.3640   -8.1590 O.2    76  ARG76      -0.2864
    188  CB        21.0920   69.9510   -8.7250 C.3    76  ARG76       0.0334
    189  CG        21.7970   70.2670   -7.4100 C.3    76  ARG76       0.0492
    190  CD        23.3080   70.2700   -7.5140 C.3    76  ARG76       0.2205
    191  NE        23.9010   70.9400   -6.3590 N.pl3  76  ARG76      -0.0865
    192  CZ        24.8990   70.4440   -5.6350 C.cat  76  ARG76       0.5346
    193  NH1       25.4200   69.2660   -5.9420 N.pl3  76  ARG76       0.1354
    194  NH2       25.3720   71.1260   -4.6010 N.pl3  76  ARG76       0.1354
    195  N         22.6420   67.8830   -2.6510 N.3    84  GLY84      -0.1225
    196  CA        22.8090   66.6810   -3.4470 C.3    84  GLY84       0.1811
    197  C         21.6330   65.7350   -3.2960 C.2    84  GLY84       0.2280
    198  O         21.5960   64.6700   -3.9110 O.2    84  GLY84      -0.2866
    199  N         19.6030   61.0540   -6.2790 N.3   124  PHE124     -0.1241
    200  CA        19.3720   61.2700   -7.7050 C.3   124  PHE124      0.1605
    201  C         18.8230   60.0360   -8.4160 C.2   124  PHE124      0.2264
    202  O         17.9480   60.1470   -9.2750 O.2   124  PHE124     -0.2867
    203  CB        20.6680   61.7240   -8.3820 C.3   124  PHE124      0.0534
    204  CG        20.5310   61.9680   -9.8580 C.ar  124  PHE124     -0.0203
    205  CD1       19.7260   62.9880  -10.3340 C.ar  124  PHE124     -0.0042
    206  CD2       21.2200   61.1850  -10.7700 C.ar  124  PHE124     -0.0042
    207  CE1       19.6020   63.2180  -11.6920 C.ar  124  PHE124     -0.0003
    208  CE2       21.1010   61.4100  -12.1290 C.ar  124  PHE124     -0.0003
    209  CZ        20.2910   62.4280  -12.5900 C.ar  124  PHE124     -0.0000
@<TRIPOS>BOND
     1     1     2    1
     2     2     5    1
     3     2     3    1
     4     5     6    1
     5   117   118    1
     6     3     4    2
     7   119   118    1
     8   119   120    2
     9   118   121    1
    10   121   122    1
    11     6     8   ar
    12     6     7   ar
    13     8    10   ar
    14   124   122   ar
    15   124   126   ar
    16     7     9   ar
    17   122   123   ar
    18    12    13    1
    19   126   127   ar
    20   128   129    1
    21    10    11   ar
    22     9    11   ar
    23   123   125   ar
    24    18    16    1
    25   139   140    1
    26   139   136    1
    27    14    13    1
    28    14    15    2
    29   145   147   ar
    30   145   142   ar
    31    19    20    1
    32    13    16    1
    33   134   132    1
    34   147   148   ar
    35   127   125   ar
    36   135   136    1
    37   135   130   am
    38   140   142   ar
    39   140   141   ar
    40   142   144   ar
    41   129   132    1
    42   129   130    1
    43   132   133    1
    44    16    17    1
    45   148   146   ar
    46   136   137    1
    47   141   143   ar
    48   144   146   ar
    49   144   143   ar
    50   130   131    2
    51   137   138    2
    52    20    21    1
    53    20    23    1
    54    30    21   am
    55    30    31    1
    56    21    22    2
    57    32    31    1
    58    32    33    2
    59    23    24    1
    60    34    31    1
    61    34    35    1
    62    34    36    1
    63   162   161    1
    64   161   163    1
    65   161   158    1
    66    24    25    1
    67    25    26    1
    68   149   150    1
    69    43    42    1
    70   157   158    1
    71   157   151   am
    72    44    42    1
    73   158   159    1
    74    41    42    1
    75    41    38    1
    76   159   160    2
    77   154   156    1
    78   154   153    1
    79    37    38    1
    80    28    27    1
    81    38    39    1
    82   150   151    1
    83   150   153    1
    84    26    27    2
    85   151   152    2
    86   155   153    1
    87    27    29    1
    88    58    55    1
    89    39    40    2
    90   172   170   am
    91    66    64    1
    92   170   169    1
    93   170   171    2
    94    55    56    1
    95    55    54    1
    96   169   168    1
    97    57    56    2
    98    65    64    1
    99    64    63    1
   100    56    59   am
   101    54    47   am
   102   164   165    1
   103    53    51   am
   104   168   165    1
   105    59    60    1
   106    47    48    2
   107    47    46    1
   108    45    46    1
   109   165   166    1
   110    49    46    1
   111    49    50    1
   112    63    60    1
   113    60    61    1
   114   166   167    2
   115    51    50    1
   116    51    52    2
   117   209   208   ar
   118   209   207   ar
   119   208   206   ar
   120   115   116   ar
   121   115   113   ar
   122    61    67   am
   123    61    62    2
   124   207   205   ar
   125   116   114   ar
   126   113   111   ar
   127   173   174    1
   128    67    68    1
   129   114   112   ar
   130   206   204   ar
   131   111   112   ar
   132   111   110    1
   133   205   204   ar
   134   110   107    1
   135    70    69    2
   136   174   177    1
   137   174   175    1
   138   177   178    1
   139    68    71    1
   140    68    69    1
   141   204   203    1
   142    71    72    1
   143   184   175   am
   144   184   185    1
   145    69    73   am
   146   202   201    2
   147   175   176    2
   148   109   108    2
   149   108   107    1
   150   107   106    1
   151   186   185    1
   152   186   187    2
   153   188   185    1
   154   188   189    1
   155   178   179   ar
   156   178   180   ar
   157   201   200    1
   158   203   200    1
   159    73    74    1
   160   179   181   ar
   161   180   182   ar
   162   200   199    1
   163   190   189    1
   164   190   191    1
   165    74    77    1
   166    74    75    1
   167    77    78    1
   168   181   183   ar
   169   182   183   ar
   170    81    75   am
   171    81    82    1
   172    75    76    2
   173   191   192    2
   174   193   192    1
   175    78    80   am
   176    78    79    2
   177   192   194    1
   178    82    83    1
   179    88    87    2
   180    83    85   am
   181    83    84    2
   182    85    86    1
   183   198   197    2
   184   104   105   ar
   185   104   102   ar
   186   196   197    1
   187   196   195    1
   188    87    86    1
   189    87    92   am
   190   105   103   ar
   191    90    89    1
   192   102    99   ar
   193    86    89    1
   194    94    95    2
   195    94    93    1
   196    93    92    1
   197    93    96    1
   198    89    91    1
   199   103   101   ar
   200    99   101   ar
   201    99    97   ar
   202   101   100   ar
   203    96    97    1
   204    97    98   ar
   205   100    98   ar
