@<TRIPOS>MOLECULE
tmp/3wxcA00.pdb
 119 114 0 0 0
SMALL
GASTEIGER

@<TRIPOS>ATOM
      1  N         46.9480   19.2040  -16.4090 N.3    20  GLU20      -0.1245
      2  CA        47.4390   17.8350  -16.3020 C.3    20  GLU20       0.1567
      3  C         47.0820   17.0080  -17.5340 C.2    20  GLU20       0.2260
      4  O         45.9340   17.0020  -17.9920 O.2    20  GLU20      -0.2867
      5  CB        46.8870   17.1630  -15.0550 C.3    20  GLU20       0.0388
      6  CG        47.3120   15.7150  -14.8840 C.3    20  GLU20       0.1160
      7  CD        46.9680   15.1880  -13.5120 C.2    20  GLU20       0.3649
      8  OE1       46.0050   14.3880  -13.3960 O.co2  20  GLU20      -0.2457
      9  OE2       47.6520   15.5940  -12.5450 O.co2  20  GLU20      -0.2457
     10  N         45.9530   13.8830  -19.2650 N.3    22  VAL22      -0.1245
     11  CA        45.0800   12.7630  -18.9000 C.3    22  VAL22       0.1561
     12  C         44.8720   11.8610  -20.1250 C.2    22  VAL22       0.2260
     13  O         44.5060   12.3490  -21.2060 O.2    22  VAL22      -0.2867
     14  CB        43.6940   13.2480  -18.3890 C.3    22  VAL22       0.0252
     15  CG1       42.8600   12.0710  -17.8840 C.3    22  VAL22       0.0019
     16  CG2       43.8480   14.2920  -17.2970 C.3    22  VAL22       0.0019
     17  N         42.6960   12.4680  -23.3790 N.3    25  TRP25      -0.1241
     18  CA        42.1920   13.8400  -23.2600 C.3    25  TRP25       0.1605
     19  C         43.2760   14.8680  -23.5450 C.2    25  TRP25       0.2264
     20  O         42.9730   16.0360  -23.7630 O.2    25  TRP25      -0.2867
     21  CB        41.5760   14.0930  -21.8750 C.3    25  TRP25       0.0550
     22  CG        40.3410   13.3060  -21.6350 C.ar   25  TRP25       0.0003
     23  CD1       40.2330   12.1420  -20.9260 C.ar   25  TRP25       0.0946
     24  CD2       39.0340   13.5950  -22.1330 C.ar   25  TRP25       0.0152
     25  NE1       38.9370   11.6910  -20.9500 N.ar   25  TRP25      -0.2442
     26  CE2       38.1790   12.5670  -21.6810 C.ar   25  TRP25       0.0810
     27  CE3       38.5000   14.6250  -22.9210 C.ar   25  TRP25       0.0012
     28  CZ2       36.8160   12.5370  -21.9900 C.ar   25  TRP25       0.0191
     29  CZ3       37.1440   14.5960  -23.2270 C.ar   25  TRP25       0.0001
     30  CH2       36.3190   13.5550  -22.7640 C.ar   25  TRP25       0.0015
     31  N         44.7460   18.7030  -20.0380 N.3    28  VAL28      -0.1245
     32  CA        43.4490   19.1790  -19.5890 C.3    28  VAL28       0.1561
     33  C         43.5890   20.4330  -18.7250 C.2    28  VAL28       0.2260
     34  O         44.2740   20.4080  -17.7030 O.2    28  VAL28      -0.2867
     35  CB        42.6650   18.0810  -18.8410 C.3    28  VAL28       0.0252
     36  CG1       41.3730   18.6430  -18.2530 C.3    28  VAL28       0.0019
     37  CG2       42.3810   16.9050  -19.7680 C.3    28  VAL28       0.0019
     38  N         44.9800   20.1970   -9.6820 N.3    48  PHE48      -0.1241
     39  CA        45.2300   18.7670   -9.8530 C.3    48  PHE48       0.1605
     40  C         46.1310   18.1900   -8.7640 C.2    48  PHE48       0.2264
     41  O         45.8500   17.1210   -8.2290 O.2    48  PHE48      -0.2867
     42  CB        45.8820   18.4970  -11.2120 C.3    48  PHE48       0.0534
     43  CG        44.9220   18.4700  -12.3650 C.ar   48  PHE48      -0.0203
     44  CD1       44.2190   17.3090  -12.6750 C.ar   48  PHE48      -0.0042
     45  CD2       44.7450   19.5910  -13.1600 C.ar   48  PHE48      -0.0042
     46  CE1       43.3530   17.2690  -13.7550 C.ar   48  PHE48      -0.0003
     47  CE2       43.8780   19.5600  -14.2350 C.ar   48  PHE48      -0.0003
     48  CZ        43.1800   18.3980  -14.5340 C.ar   48  PHE48      -0.0000
     49  N         36.4620   13.7830   -8.2160 N.3    76  HIS76      -0.1226
     50  CA        37.5890   13.6720   -9.1490 C.3    76  HIS76       0.1752
     51  C         38.7410   14.5660   -8.7210 C.2    76  HIS76       0.2597
     52  O         38.5200   15.6280   -8.1230 O.2    76  HIS76      -0.2718
     53  CB        37.1810   14.0290  -10.5830 C.3    76  HIS76       0.0759
     54  CG        36.3280   12.9970  -11.2570 C.ar   76  HIS76       0.0818
     55  ND1       35.5460   13.2880  -12.3550 N.ar   76  HIS76      -0.2268
     56  CD2       36.1340   11.6820  -10.9940 C.ar   76  HIS76       0.1154
     57  CE1       34.9130   12.1950  -12.7430 C.ar   76  HIS76       0.1986
     58  NE2       35.2480   11.2080  -11.9300 N.ar   76  HIS76      -0.2212
     59  N         39.9580   14.1520   -9.0710 N.am   77  SER77      -0.1938
     60  CA        41.1760   14.7680   -8.5630 C.3    77  SER77       0.2055
     61  C         41.5100   16.1520   -9.1270 C.2    77  SER77       0.2643
     62  O         42.4460   16.8150   -8.6430 O.2    77  SER77      -0.2714
     63  CB        42.3640   13.8080   -8.7140 C.3    77  SER77       0.2130
     64  OG        42.7610   13.6910  -10.0620 O.3    77  SER77      -0.2179
     65  N         40.7600   16.5990  -10.1350 N.am   78  ASP78      -0.1971
     66  CA        40.8950   17.9830  -10.5990 C.3    78  ASP78       0.1709
     67  C         40.1620   18.9680   -9.6760 C.2    78  ASP78       0.2293
     68  O         40.3060   20.1970   -9.8040 O.2    78  ASP78      -0.2864
     69  CB        40.5140   18.1490  -12.0830 C.3    78  ASP78       0.1436
     70  CG        39.0740   17.7610  -12.3960 C.2    78  ASP78       0.3671
     71  OD1       38.4180   17.0530  -11.6010 O.co2  78  ASP78      -0.2456
     72  OD2       38.6010   18.1630  -13.4810 O.co2  78  ASP78      -0.2456
     73  N         27.5360   14.9030  -14.1300 N.3   136  HIS136     -0.1241
     74  CA        28.9070   14.5440  -14.4540 C.3   136  HIS136      0.1621
     75  C         29.4170   13.4580  -13.4990 C.2   136  HIS136      0.2264
     76  O         30.0600   12.4990  -13.9260 O.2   136  HIS136     -0.2867
     77  CB        29.7940   15.7860  -14.4130 C.3   136  HIS136      0.0745
     78  CG        31.2480   15.4730  -14.3210 C.ar  136  HIS136      0.0817
     79  ND1       31.9530   14.9230  -15.3700 N.ar  136  HIS136     -0.2268
     80  CD2       32.1240   15.5980  -13.2950 C.ar  136  HIS136      0.1154
     81  CE1       33.2060   14.7330  -14.9940 C.ar  136  HIS136      0.1986
     82  NE2       33.3350   15.1330  -13.7390 N.ar  136  HIS136     -0.2212
     83  N         32.5460   20.7680  -12.9820 N.3   155  CYS155     -0.1235
     84  CA        32.5510   19.8510  -14.1130 C.3   155  CYS155      0.1677
     85  C         31.1470   19.4630  -14.5450 C.2   155  CYS155      0.2270
     86  O         30.9740   18.6610  -15.4660 O.2   155  CYS155     -0.2867
     87  CB        33.3680   18.6160  -13.7630 C.3   155  CYS155      0.0956
     88  SG        35.0440   19.0200  -13.2760 S.3   155  CYS155     -0.0801
     89  N         28.8780   22.0380  -18.7800 N.3   158  LYS158     -0.1245
     90  CA        29.4650   21.4560  -19.9820 C.3   158  LYS158      0.1561
     91  C         28.7480   21.9680  -21.2320 C.2   158  LYS158      0.2260
     92  O         27.9610   21.2380  -21.8340 O.2   158  LYS158     -0.2867
     93  CB        29.3430   19.9290  -19.9350 C.3   158  LYS158      0.0271
     94  CG        30.2660   19.2290  -18.9750 C.3   158  LYS158      0.0035
     95  CD        31.7090   19.2700  -19.4690 C.3   158  LYS158      0.0206
     96  CE        32.6640   18.9350  -18.3500 C.3   158  LYS158      0.1093
     97  NZ        32.4700   17.5240  -17.9550 N.3   158  LYS158     -0.1314
     98  N         32.0780   15.8330  -21.9910 N.3   163  GLY163     -0.1210
     99  CA        33.4020   15.3900  -21.5690 C.3   163  GLY163      0.1956
    100  C         33.4050   13.9720  -21.0250 C.2   163  GLY163      0.2611
    101  O         32.6650   13.1090  -21.5080 O.2   163  GLY163     -0.2717
    102  N         34.2380   13.7490  -20.0080 N.am  164  ASN164     -0.1974
    103  CA        34.4290   12.4350  -19.3860 C.3   164  ASN164      0.1688
    104  C         33.1770   11.8790  -18.7010 C.2   164  ASN164      0.2292
    105  O         32.7360   12.3970  -17.6720 O.2   164  ASN164     -0.2864
    106  CB        35.5760   12.4980  -18.3840 C.3   164  ASN164      0.1181
    107  CG        35.7860   11.1870  -17.6560 C.2   164  ASN164      0.2629
    108  OD1       35.6800   10.1130  -18.2470 O.2   164  ASN164     -0.2716
    109  ND2       36.0820   11.2670  -16.3690 N.am  164  ASN164     -0.0877
    110  N         36.1520   23.1110  -17.3260 N.3   194  HIS194     -0.1241
    111  CA        36.9790   22.8000  -18.4930 C.3   194  HIS194      0.1621
    112  C         36.7540   23.6730  -19.7340 C.2   194  HIS194      0.2264
    113  O         37.3670   23.4300  -20.7670 O.2   194  HIS194     -0.2867
    114  CB        36.8700   21.3140  -18.8450 C.3   194  HIS194      0.0745
    115  CG        37.2640   20.4020  -17.7250 C.ar  194  HIS194      0.0817
    116  ND1       38.5590   20.3140  -17.2590 N.ar  194  HIS194     -0.2268
    117  CD2       36.5340   19.5390  -16.9790 C.ar  194  HIS194      0.1154
    118  CE1       38.6090   19.4320  -16.2750 C.ar  194  HIS194      0.1986
    119  NE2       37.3940   18.9490  -16.0840 N.ar  194  HIS194     -0.2212
@<TRIPOS>BOND
     1    20    19    2
     2    19    18    1
     3    17    18    1
     4    18    21    1
     5    29    27   ar
     6    29    30   ar
     7    27    24   ar
     8    30    28   ar
     9    24    26   ar
    10    24    22   ar
    11    98    99    1
    12    28    26   ar
    13    21    22    1
    14    92    91    2
    15    26    25   ar
    16    22    23   ar
    17    99   100    1
    18   101   100    2
    19    91    90    1
    20    13    12    2
    21   100   102   am
    22    25    23   ar
    23   113   112    2
    24    12    11    1
    25    31    32    1
    26   102   103    1
    27    90    93    1
    28    90    89    1
    29    93    94    1
    30    37    35    1
    31   112   111    1
    32    32    35    1
    33    32    33    1
    34    95    94    1
    35    95    96    1
    36   103   104    1
    37   103   106    1
    38    10    11    1
    39    11    14    1
    40   114   111    1
    41   114   115    1
    42    35    36    1
    43    33    34    2
    44   104   105    2
    45   111   110    1
    46    14    15    1
    47    14    16    1
    48   106   107    1
    49    96    97    1
    50   108   107    2
    51     4     3    2
    52   115   116   ar
    53   115   117   ar
    54   107   109   am
    55     3     2    1
    56   116   118   ar
    57   117   119   ar
    58     1     2    1
    59     2     5    1
    60   118   119   ar
    61    86    85    2
    62    79    81   ar
    63    79    78   ar
    64     5     6    1
    65    81    82   ar
    66     6     7    1
    67    85    84    1
    68    48    47   ar
    69    48    46   ar
    70    74    77    1
    71    74    73    1
    72    74    75    1
    73    77    78    1
    74    78    80   ar
    75    47    45   ar
    76    84    87    1
    77    84    83    1
    78    76    75    2
    79    87    88    1
    80    46    44   ar
    81    82    80   ar
    82     7     8   ar
    83     7     9   ar
    84    72    70   ar
    85    45    43   ar
    86    57    55   ar
    87    57    58   ar
    88    44    43   ar
    89    70    69    1
    90    70    71   ar
    91    43    42    1
    92    55    54   ar
    93    69    66    1
    94    58    56   ar
    95    54    56   ar
    96    54    53    1
    97    42    39    1
    98    66    65    1
    99    66    67    1
   100    53    50    1
   101    65    61   am
   102    64    63    1
   103    39    38    1
   104    39    40    1
   105    68    67    2
   106    50    51    1
   107    50    49    1
   108    61    62    2
   109    61    60    1
   110    59    51   am
   111    59    60    1
   112    40    41    2
   113    51    52    2
   114    63    60    1
