@<TRIPOS>MOLECULE
tmp/3wxjC00.pdb
 123 118 0 0 0
SMALL
GASTEIGER

@<TRIPOS>ATOM
      1  N         -0.8800   -5.5820   15.2710 N.3    12  GLY12      -0.1210
      2  CA        -1.5100   -4.4660   15.9610 C.3    12  GLY12       0.1956
      3  C         -3.0070   -4.6470   16.1440 C.2    12  GLY12       0.2612
      4  O         -3.5760   -5.6590   15.7300 O.2    12  GLY12      -0.2717
      5  N         -3.6370   -3.6400   16.7470 N.am   13  THR13      -0.1952
      6  CA        -5.0140   -3.7120   17.1810 C.3    13  THR13       0.1897
      7  C         -5.9200   -4.0770   16.0350 C.2    13  THR13       0.2313
      8  O         -6.7870   -4.9530   16.1820 O.2    13  THR13      -0.2863
      9  CB        -5.5080   -2.3690   17.7630 C.3    13  THR13       0.1794
     10  OG1       -4.4880   -1.7660   18.5730 O.3    13  THR13      -0.2208
     11  CG2       -6.7690   -2.5780   18.6020 C.3    13  THR13       0.0378
     12  N          0.4360   -5.5110   19.7810 N.3    85  GLN85      -0.1231
     13  CA        -0.4030   -4.7600   20.7030 C.3    85  GLN85       0.1698
     14  C         -0.1700   -5.3320   22.1020 C.2    85  GLN85       0.2592
     15  O          0.0680   -6.5290   22.2610 O.2    85  GLN85      -0.2718
     16  CB        -1.8840   -4.8290   20.3010 C.3    85  GLN85       0.0381
     17  CG        -2.2470   -6.0890   19.5030 C.3    85  GLN85       0.0905
     18  CD        -3.7060   -6.5180   19.6300 C.2    85  GLN85       0.2608
     19  OE1       -4.6080   -5.7230   19.9390 O.2    85  GLN85      -0.2717
     20  NE2       -3.9370   -7.7930   19.3840 N.am   85  GLN85      -0.0878
     21  N         -0.2020   -4.4710   23.1070 N.am   86  ARG86      -0.1966
     22  CA         0.0890   -4.8970   24.4640 C.3    86  ARG86       0.1729
     23  C         -1.2000   -5.1370   25.2260 C.2    86  ARG86       0.2616
     24  O         -2.2910   -4.9130   24.6860 O.2    86  ARG86      -0.2715
     25  CB         0.9670   -3.8630   25.1650 C.3    86  ARG86       0.0348
     26  CG         2.3020   -3.6860   24.4860 C.3    86  ARG86       0.0492
     27  CD         2.9830   -2.4050   24.8900 C.3    86  ARG86       0.2205
     28  NE         2.1040   -1.2460   24.8160 N.pl3  86  ARG86      -0.0865
     29  CZ         2.4190   -0.0510   25.2960 C.cat  86  ARG86       0.5346
     30  NH1        3.5990    0.1450   25.8840 N.pl3  86  ARG86       0.1354
     31  NH2        1.5450    0.9490   25.1950 N.pl3  86  ARG86       0.1354
     32  N         -1.0550   -5.6010   26.4740 N.am   87  GLU87      -0.1977
     33  CA        -2.1700   -5.8960   27.4000 C.3    87  GLU87       0.1602
     34  C         -3.1090   -7.0300   26.9440 C.2    87  GLU87       0.2287
     35  O         -3.2900   -8.0120   27.6860 O.2    87  GLU87      -0.2864
     36  CB        -2.9730   -4.6330   27.7290 C.3    87  GLU87       0.0415
     37  CG        -2.2170   -3.5980   28.5500 C.3    87  GLU87       0.1163
     38  CD        -1.3220   -2.6970   27.7020 C.2    87  GLU87       0.3649
     39  OE1       -1.6990   -2.4000   26.5500 O.co2  87  GLU87      -0.2457
     40  OE2       -0.2570   -2.2690   28.2010 O.co2  87  GLU87      -0.2457
     41  N         -6.9530   -4.8810   24.8770 N.3   106  TRP106     -0.1241
     42  CA        -6.5100   -3.8410   25.8250 C.3   106  TRP106      0.1605
     43  C         -7.5710   -2.8180   26.2660 C.2   106  TRP106      0.2264
     44  O         -7.7440   -2.5920   27.4690 O.2   106  TRP106     -0.2867
     45  CB        -5.2340   -3.1190   25.3340 C.3   106  TRP106      0.0550
     46  CG        -5.3480   -2.4460   23.9850 C.ar  106  TRP106      0.0003
     47  CD1       -5.2490   -3.0450   22.7680 C.ar  106  TRP106      0.0946
     48  CD2       -5.5630   -1.0500   23.7290 C.ar  106  TRP106      0.0152
     49  NE1       -5.4000   -2.1210   21.7670 N.ar  106  TRP106     -0.2442
     50  CE2       -5.5960   -0.8860   22.3250 C.ar  106  TRP106      0.0810
     51  CE3       -5.7250    0.0790   24.5470 C.ar  106  TRP106      0.0012
     52  CZ2       -5.7940    0.3650   21.7130 C.ar  106  TRP106      0.0191
     53  CZ3       -5.9220    1.3290   23.9380 C.ar  106  TRP106      0.0001
     54  CH2       -5.9570    1.4550   22.5320 C.ar  106  TRP106      0.0015
     55  N         -7.1080   -2.0870   31.6170 N.3   141  TYR141     -0.1241
     56  CA        -6.2220   -2.3700   30.4860 C.3   141  TYR141      0.1605
     57  C         -5.3160   -3.5650   30.7060 C.2   141  TYR141      0.2264
     58  O         -5.1340   -4.3810   29.8120 O.2   141  TYR141     -0.2867
     59  CB        -5.3880   -1.1330   30.1180 C.3   141  TYR141      0.0534
     60  CG        -6.1940   -0.0510   29.4520 C.ar  141  TYR141     -0.0201
     61  CD1       -6.8850    0.8930   30.2080 C.ar  141  TYR141     -0.0009
     62  CD2       -6.2790    0.0260   28.0650 C.ar  141  TYR141     -0.0009
     63  CE1       -7.6370    1.8940   29.5980 C.ar  141  TYR141      0.0417
     64  CE2       -7.0290    1.0230   27.4460 C.ar  141  TYR141      0.0417
     65  CZ        -7.7050    1.9510   28.2210 C.ar  141  TYR141      0.1957
     66  OH        -8.4460    2.9410   27.6210 O.3   141  TYR141     -0.2866
     67  N          3.0310   -5.1730   31.2500 N.3   194  ARG194     -0.1245
     68  CA         1.7250   -4.6030   30.9360 C.3   194  ARG194      0.1563
     69  C          0.6290   -5.5130   31.4800 C.2   194  ARG194      0.2260
     70  O         -0.5410   -5.4070   31.0940 O.2   194  ARG194     -0.2867
     71  CB         1.5590   -4.4310   29.4250 C.3   194  ARG194      0.0307
     72  CG         2.6790   -3.6440   28.7230 C.3   194  ARG194      0.0489
     73  CD         2.9270   -2.2570   29.3420 C.3   194  ARG194      0.2205
     74  NE         1.9180   -1.2690   28.9720 N.pl3 194  ARG194     -0.0865
     75  CZ         2.0270    0.0340   29.2150 C.cat 194  ARG194      0.5346
     76  NH1        3.1080    0.5050   29.8250 N.pl3 194  ARG194      0.1354
     77  NH2        1.0580    0.8670   28.8440 N.pl3 194  ARG194      0.1354
     78  N          4.3350   -2.8850   20.9790 N.3   256  ASP256     -0.1225
     79  CA         4.4070   -1.9530   19.8630 C.3   256  ASP256      0.1805
     80  C          4.8980   -0.5380   20.1880 C.2   256  ASP256      0.2597
     81  O          5.6140    0.0550   19.3790 O.2   256  ASP256     -0.2718
     82  CB         3.0740   -1.9040   19.0970 C.3   256  ASP256      0.1424
     83  CG         1.8770   -1.7090   20.0080 C.2   256  ASP256      0.3668
     84  OD1        2.0650   -1.6110   21.2380 O.co2 256  ASP256     -0.2456
     85  OD2        0.7400   -1.6570   19.4890 O.co2 256  ASP256     -0.2456
     86  N          4.5430    0.0170   21.3380 N.am  257  GLN257     -0.1979
     87  CA         5.0300    1.3600   21.6580 C.3   257  GLN257      0.1601
     88  C          6.5550    1.3970   21.9330 C.2   257  GLN257      0.2287
     89  O          7.2970    2.1910   21.3270 O.2   257  GLN257     -0.2864
     90  CB         4.2060    1.9850   22.7880 C.3   257  GLN257      0.0394
     91  CG         2.7090    2.0420   22.4810 C.3   257  GLN257      0.0908
     92  CD         2.4010    2.7250   21.1640 C.2   257  GLN257      0.2608
     93  OE1        2.2830    3.9320   21.1100 O.2   257  GLN257     -0.2717
     94  NE2        2.2680    1.9480   20.0970 N.am  257  GLN257     -0.0878
     95  N          3.5600    8.5480   18.9200 N.3   275  THR275     -0.1218
     96  CA         3.1090    7.5110   17.9770 C.3   275  THR275      0.1862
     97  C          1.6030    7.4930   17.7450 C.2   275  THR275      0.2287
     98  O          0.8370    7.2020   18.6590 O.2   275  THR275     -0.2866
     99  CB         3.5910    6.1120   18.4560 C.3   275  THR275      0.1770
    100  OG1        5.0280    6.0640   18.4030 O.3   275  THR275     -0.2211
    101  CG2        3.0010    4.9860   17.5990 C.3   275  THR275      0.0375
    102  N         -1.1420    5.8220   16.2970 N.3   277  GLY277     -0.1210
    103  CA        -2.0020    4.7100   15.8830 C.3   277  GLY277      0.1956
    104  C         -3.3690    4.8520   16.5300 C.2   277  GLY277      0.2612
    105  O         -3.8600    5.9660   16.7410 O.2   277  GLY277     -0.2717
    106  N         -3.9900    3.7190   16.8290 N.am  278  THR278     -0.1952
    107  CA        -5.1740    3.6840   17.6570 C.3   278  THR278      0.1897
    108  C         -4.8260    4.4470   18.9340 C.2   278  THR278      0.2313
    109  O         -3.7560    4.2290   19.5300 O.2   278  THR278     -0.2863
    110  CB        -5.4850    2.2690   18.0670 C.3   278  THR278      0.1794
    111  OG1       -5.2200    2.1480   19.4710 O.3   278  THR278     -0.2208
    112  CG2       -4.6090    1.2650   17.2950 C.3   278  THR278      0.0378
    113  N          0.2620    7.6330   21.7510 N.3   281  PHE281     -0.1241
    114  CA         1.0980    7.3840   22.9210 C.3   281  PHE281      0.1605
    115  C          2.3240    8.2390   22.9330 C.2   281  PHE281      0.2264
    116  O          2.7910    8.6740   21.8860 O.2   281  PHE281     -0.2867
    117  CB         1.5380    5.9230   22.9550 C.3   281  PHE281      0.0534
    118  CG         0.4190    4.9590   23.1990 C.ar  281  PHE281     -0.0203
    119  CD1        0.1050    4.5540   24.4960 C.ar  281  PHE281     -0.0042
    120  CD2       -0.3160    4.4540   22.1420 C.ar  281  PHE281     -0.0042
    121  CE1       -0.9220    3.6550   24.7280 C.ar  281  PHE281     -0.0003
    122  CE2       -1.3410    3.5580   22.3590 C.ar  281  PHE281     -0.0003
    123  CZ        -1.6490    3.1640   23.6580 C.ar  281  PHE281     -0.0000
@<TRIPOS>BOND
     1     1     2    1
     2     4     3    2
     3   103   102    1
     4   103   104    1
     5     2     3    1
     6     7     8    2
     7     7     6    1
     8     3     5   am
     9   104   105    2
    10   104   106   am
    11     5     6    1
    12   106   107    1
    13     6     9    1
    14   112   110    1
    15   101    99    1
    16   107   110    1
    17   107   108    1
    18    97    96    1
    19    97    98    2
    20     9    10    1
    21     9    11    1
    22    96    99    1
    23    96    95    1
    24   110   111    1
    25   100    99    1
    26   108   109    2
    27    82    79    1
    28    82    83    1
    29    81    80    2
    30    20    18   am
    31    85    83   ar
    32    17    18    1
    33    17    16    1
    34    18    19    2
    35    12    13    1
    36    79    80    1
    37    79    78    1
    38    83    84   ar
    39    94    92   am
    40    80    86   am
    41    16    13    1
    42    13    14    1
    43    93    92    2
    44    92    91    1
    45    89    88    2
    46    86    87    1
    47    87    88    1
    48    87    90    1
    49    52    50   ar
    50    52    54   ar
    51   113   114    1
    52    49    50   ar
    53    49    47   ar
    54   116   115    2
    55    14    15    2
    56    14    21   am
    57   120   122   ar
    58   120   118   ar
    59    50    48   ar
    60   122   123   ar
    61    91    90    1
    62    54    53   ar
    63    47    46   ar
    64   114   115    1
    65   114   117    1
    66   117   118    1
    67    21    22    1
    68   118   119   ar
    69   123   121   ar
    70    48    46   ar
    71    48    51   ar
    72    53    51   ar
    73    46    45    1
    74    22    25    1
    75    22    23    1
    76    26    27    1
    77    26    25    1
    78   119   121   ar
    79    24    23    2
    80    28    27    1
    81    28    29    2
    82    41    42    1
    83    31    29    1
    84    23    32   am
    85    29    30    1
    86    45    42    1
    87    42    43    1
    88    43    44    2
    89    32    33    1
    90    39    38   ar
    91    34    33    1
    92    34    35    2
    93    33    36    1
    94    64    62   ar
    95    64    65   ar
    96    66    65    1
    97    38    40   ar
    98    38    37    1
    99    36    37    1
   100    62    60   ar
   101    65    63   ar
   102    72    73    1
   103    72    71    1
   104    77    75    1
   105    74    75    2
   106    74    73    1
   107    75    76    1
   108    71    68    1
   109    60    59    1
   110    60    61   ar
   111    63    61   ar
   112    58    57    2
   113    59    56    1
   114    56    57    1
   115    56    55    1
   116    68    67    1
   117    68    69    1
   118    70    69    2
