@<TRIPOS>MOLECULE
tmp/3wxkB01.pdb
 117 114 0 0 0
SMALL
GASTEIGER

@<TRIPOS>ATOM
      1  N         20.7380   84.1020   59.3550 N.3   106  TRP106     -0.1241
      2  CA        21.1040   83.5690   58.0220 C.3   106  TRP106      0.1605
      3  C         20.1730   82.4510   57.4730 C.2   106  TRP106      0.2264
      4  O         19.8970   82.4360   56.2780 O.2   106  TRP106     -0.2867
      5  CB        22.5770   83.0930   57.9880 C.3   106  TRP106      0.0550
      6  CG        22.9280   82.0290   59.0390 C.ar  106  TRP106      0.0003
      7  CD1       23.2840   82.2550   60.3350 C.ar  106  TRP106      0.0946
      8  CD2       22.9420   80.6060   58.8550 C.ar  106  TRP106      0.0152
      9  NE1       23.5190   81.0720   60.9690 N.ar  106  TRP106     -0.2442
     10  CE2       23.3170   80.0360   60.0950 C.ar  106  TRP106      0.0810
     11  CE3       22.6490   79.7520   57.7600 C.ar  106  TRP106      0.0012
     12  CZ2       23.4470   78.6450   60.2920 C.ar  106  TRP106      0.0191
     13  CZ3       22.8100   78.3560   57.9260 C.ar  106  TRP106      0.0001
     14  CH2       23.1960   77.8190   59.1960 C.ar  106  TRP106      0.0015
     15  N         23.9280   83.2000   44.1250 N.3   137  PRO137     -0.2116
     16  CA        22.6030   83.2060   43.5120 C.3   137  PRO137      0.1372
     17  C         21.6150   83.9460   44.4360 C.2   137  PRO137      0.2244
     18  O         21.9370   84.2370   45.5870 O.2   137  PRO137     -0.2868
     19  CB        22.2600   81.7060   43.4790 C.3   137  PRO137      0.0268
     20  CG        22.8110   81.2150   44.8230 C.3   137  PRO137      0.0207
     21  CD        24.1440   81.9920   44.9430 C.3   137  PRO137      0.0892
     22  N         18.9660   83.8790   47.0600 N.3   139  SER139     -0.1217
     23  CA        18.2890   83.0320   48.0180 C.3   139  SER139      0.1889
     24  C         17.9460   83.7540   49.3010 C.2   139  SER139      0.2288
     25  O         18.3220   84.9160   49.5290 O.2   139  SER139     -0.2866
     26  CB        19.0610   81.7420   48.3520 C.3   139  SER139      0.2089
     27  OG        20.3840   81.9640   48.7450 O.3   139  SER139     -0.2183
     28  N         19.1590   83.2720   51.9640 N.3   141  TYR141     -0.1227
     29  CA        20.3950   83.2900   52.7380 C.3   141  TYR141      0.1736
     30  C         20.8610   84.7420   52.9840 C.2   141  TYR141      0.2595
     31  O         21.0790   85.1590   54.1230 O.2   141  TYR141     -0.2718
     32  CB        21.4560   82.5000   51.9450 C.3   141  TYR141      0.0548
     33  CG        22.6460   81.8730   52.6760 C.ar  141  TYR141     -0.0200
     34  CD1       22.9230   82.1240   54.0230 C.ar  141  TYR141     -0.0009
     35  CD2       23.5330   81.0310   51.9880 C.ar  141  TYR141     -0.0009
     36  CE1       24.0490   81.5300   54.6710 C.ar  141  TYR141      0.0417
     37  CE2       24.6510   80.4450   52.6220 C.ar  141  TYR141      0.0417
     38  CZ        24.9090   80.7020   53.9570 C.ar  141  TYR141      0.1957
     39  OH        26.0390   80.1590   54.5700 O.3   141  TYR141     -0.2866
     40  N         20.9360   85.5200   51.9160 N.am  142  PHE142     -0.1976
     41  CA        21.7290   86.7330   51.8580 C.3   142  PHE142      0.1639
     42  C         21.1360   88.0100   52.4580 C.2   142  PHE142      0.2290
     43  O         19.9140   88.1740   52.5120 O.2   142  PHE142     -0.2864
     44  CB        22.2320   86.8640   50.4230 C.3   142  PHE142      0.0560
     45  CG        22.9210   85.6360   49.9860 C.ar  142  PHE142     -0.0200
     46  CD1       24.0380   85.1950   50.6890 C.ar  142  PHE142     -0.0042
     47  CD2       22.3670   84.8210   49.0460 C.ar  142  PHE142     -0.0042
     48  CE1       24.6680   84.0420   50.3690 C.ar  142  PHE142     -0.0003
     49  CE2       22.9850   83.6290   48.7070 C.ar  142  PHE142     -0.0003
     50  CZ        24.1560   83.2560   49.3640 C.ar  142  PHE142     -0.0000
     51  N         25.5350   70.9440   59.9550 N.3   279  GLY279     -0.1225
     52  CA        26.3940   72.0290   59.6180 C.3   279  GLY279      0.1811
     53  C         27.7430   71.6520   59.0720 C.2   279  GLY279      0.2280
     54  O         28.5660   71.2180   59.7810 O.2   279  GLY279     -0.2866
     55  N         30.6710   73.4980   56.4490 N.3   281  PHE281     -0.1241
     56  CA        31.1110   74.5340   55.5490 C.3   281  PHE281      0.1605
     57  C         32.4880   74.2540   55.0050 C.2   281  PHE281      0.2264
     58  O         33.4150   74.0820   55.7260 O.2   281  PHE281     -0.2867
     59  CB        31.0730   75.8800   56.2160 C.3   281  PHE281      0.0534
     60  CG        29.7160   76.3820   56.4360 C.ar  281  PHE281     -0.0203
     61  CD1       29.0200   76.9320   55.4250 C.ar  281  PHE281     -0.0042
     62  CD2       29.1360   76.3050   57.6430 C.ar  281  PHE281     -0.0042
     63  CE1       27.8050   77.3580   55.6130 C.ar  281  PHE281     -0.0003
     64  CE2       27.9210   76.7560   57.8230 C.ar  281  PHE281     -0.0003
     65  CZ        27.2550   77.2740   56.8040 C.ar  281  PHE281     -0.0000
     66  N         26.8080   75.8620   41.1060 N.3   296  GLY296     -0.1225
     67  CA        26.0300   76.4210   42.2070 C.3   296  GLY296      0.1811
     68  C         26.7780   76.7420   43.5150 C.2   296  GLY296      0.2280
     69  O         26.1660   77.2640   44.4620 O.2   296  GLY296     -0.2866
     70  N         29.3510   78.7960   45.9690 N.3   298  LEU298     -0.1245
     71  CA        29.4710   80.2400   46.1440 C.3   298  LEU298      0.1561
     72  C         30.9090   80.7430   45.9450 C.2   298  LEU298      0.2260
     73  O         31.8710   80.1410   46.4430 O.2   298  LEU298     -0.2867
     74  CB        28.9960   80.6840   47.5410 C.3   298  LEU298      0.0270
     75  CG        27.7280   80.1070   48.1230 C.3   298  LEU298      0.0019
     76  CD1       27.4340   80.7490   49.4620 C.3   298  LEU298      0.0001
     77  CD2       26.5630   80.2820   47.1400 C.3   298  LEU298      0.0001
     78  N         28.4720   73.9590   51.1470 N.3   318  ALA318     -0.1231
     79  CA        27.9110   73.6880   52.4540 C.3   318  ALA318      0.1694
     80  C         27.1350   72.3790   52.4990 C.2   318  ALA318      0.2592
     81  O         26.6100   71.9110   51.4940 O.2   318  ALA318     -0.2718
     82  CB        27.0460   74.8430   52.9040 C.3   318  ALA318      0.0304
     83  N         27.1330   71.7400   53.6600 N.am  319  ILE319     -0.1966
     84  CA        26.0980   70.7440   53.8980 C.3   319  ILE319      0.1727
     85  C         25.2920   71.0830   55.1710 C.2   319  ILE319      0.2616
     86  O         25.8540   71.4330   56.1910 O.2   319  ILE319     -0.2715
     87  CB        26.5910   69.2630   53.7320 C.3   319  ILE319      0.0290
     88  CG1       26.5270   68.4800   55.0200 C.3   319  ILE319      0.0022
     89  CG2       27.9410   69.1530   53.0350 C.3   319  ILE319      0.0023
     90  CD1       25.2800   67.6140   55.0550 C.3   319  ILE319      0.0001
     91  N         23.9650   71.0310   55.0450 N.am  320  ALA320     -0.1977
     92  CA        23.0320   71.4650   56.1140 C.3   320  ALA320      0.1597
     93  C         22.9580   70.5210   57.3000 C.2   320  ALA320      0.2287
     94  O         22.9470   70.9820   58.4140 O.2   320  ALA320     -0.2864
     95  CB        21.5660   71.7710   55.5450 C.3   320  ALA320      0.0319
     96  N         21.1930   71.0060   48.0540 N.3   365  LEU365     -0.1245
     97  CA        22.3680   71.8740   48.0700 C.3   365  LEU365      0.1561
     98  C         23.5660   71.4440   47.2610 C.2   365  LEU365      0.2260
     99  O         23.4920   70.7340   46.3070 O.2   365  LEU365     -0.2867
    100  CB        22.9070   72.0210   49.4890 C.3   365  LEU365      0.0270
    101  CG        22.6030   73.2040   50.3880 C.3   365  LEU365      0.0019
    102  CD1       21.3030   73.0310   51.0260 C.3   365  LEU365      0.0001
    103  CD2       23.5960   73.2480   51.4320 C.3   365  LEU365      0.0001
    104  N         21.7480   70.9900   43.8440 N.3   369  TRP369     -0.1241
    105  CA        20.7900   71.6120   44.6980 C.3   369  TRP369      0.1605
    106  C         19.4050   71.1090   44.4100 C.2   369  TRP369      0.2264
    107  O         18.9410   71.1690   43.3210 O.2   369  TRP369     -0.2867
    108  CB        20.8690   73.1070   44.4620 C.3   369  TRP369      0.0550
    109  CG        20.0860   73.9500   45.3820 C.ar  369  TRP369      0.0003
    110  CD1       20.4050   74.2730   46.6370 C.ar  369  TRP369      0.0946
    111  CD2       18.8690   74.6180   45.0950 C.ar  369  TRP369      0.0152
    112  NE1       19.4560   75.0750   47.1790 N.ar  369  TRP369     -0.2442
    113  CE2       18.5000   75.3080   46.2400 C.ar  369  TRP369      0.0810
    114  CE3       18.0520   74.6910   43.9800 C.ar  369  TRP369      0.0012
    115  CZ2       17.3630   76.0700   46.3050 C.ar  369  TRP369      0.0191
    116  CZ3       16.9220   75.4410   44.0530 C.ar  369  TRP369      0.0001
    117  CH2       16.5860   76.1180   45.2050 C.ar  369  TRP369      0.0015
@<TRIPOS>BOND
     1    66    67    1
     2    67    68    1
     3   107   106    2
     4    19    16    1
     5    19    20    1
     6    16    15    1
     7    16    17    1
     8    68    69    2
     9   104   105    1
    10   114   116   ar
    11   114   111   ar
    12   116   117   ar
    13    15    21    1
    14   106   105    1
    15    17    18    2
    16   108   105    1
    17   108   109    1
    18    20    21    1
    19   111   109   ar
    20   111   113   ar
    21   117   115   ar
    22   109   110   ar
    23    72    71    1
    24    72    73    2
    25    70    71    1
    26    71    74    1
    27   113   115   ar
    28   113   112   ar
    29    99    98    2
    30   110   112   ar
    31    22    23    1
    32    77    75    1
    33    98    97    1
    34    74    75    1
    35    23    26    1
    36    23    24    1
    37    96    97    1
    38    97   100    1
    39    75    76    1
    40    26    27    1
    41    49    47   ar
    42    49    50   ar
    43    47    45   ar
    44    24    25    2
    45    50    48   ar
    46   100   101    1
    47    45    44    1
    48    45    46   ar
    49    48    46   ar
    50   101   102    1
    51   101   103    1
    52    44    41    1
    53    78    79    1
    54    81    80    2
    55    41    40    1
    56    41    42    1
    57    40    30   am
    58    32    33    1
    59    32    29    1
    60    28    29    1
    61    35    37   ar
    62    35    33   ar
    63    79    80    1
    64    79    82    1
    65    42    43    2
    66    80    83   am
    67    37    38   ar
    68    33    34   ar
    69    29    30    1
    70    30    31    2
    71    89    87    1
    72    83    84    1
    73    87    84    1
    74    87    88    1
    75    84    85    1
    76    38    39    1
    77    38    36   ar
    78    34    36   ar
    79    57    56    1
    80    57    58    2
    81    88    90    1
    82    91    85   am
    83    91    92    1
    84    85    86    2
    85    61    63   ar
    86    61    60   ar
    87    95    92    1
    88    56    59    1
    89    56    55    1
    90    63    65   ar
    91    92    93    1
    92    59    60    1
    93     4     3    2
    94    60    62   ar
    95    65    64   ar
    96    93    94    2
    97     3     2    1
    98    62    64   ar
    99    11    13   ar
   100    11     8   ar
   101    13    14   ar
   102     5     2    1
   103     5     6    1
   104     2     1    1
   105     8     6   ar
   106     8    10   ar
   107     6     7   ar
   108    53    52    1
   109    53    54    2
   110    14    12   ar
   111    52    51    1
   112    10    12   ar
   113    10     9   ar
   114     7     9   ar
