@<TRIPOS>MOLECULE
tmp/3wxkB00.pdb
 88 85 0 0 0
SMALL
GASTEIGER

@<TRIPOS>ATOM
      1  N         11.7100   81.9030   67.1710 N.3    39  THR39      -0.1218
      2  CA        11.0200   81.3580   66.0100 C.3    39  THR39       0.1862
      3  C          9.5210   81.7580   66.0600 C.2    39  THR39       0.2287
      4  O          8.7030   80.9470   66.4270 O.2    39  THR39      -0.2866
      5  CB        11.1240   79.8280   66.0020 C.3    39  THR39       0.1770
      6  OG1       10.6930   79.3320   67.2770 O.3    39  THR39      -0.2211
      7  CG2       12.5600   79.3340   65.7120 C.3    39  THR39       0.0375
      8  N          9.8790   78.1790   60.2510 N.3    43  GLY43      -0.1210
      9  CA        10.9080   78.5010   59.2920 C.3    43  GLY43       0.1956
     10  C         11.5550   79.8500   59.5200 C.2    43  GLY43       0.2612
     11  O         12.5050   80.2060   58.8110 O.2    43  GLY43      -0.2717
     12  N         11.0190   80.6170   60.4770 N.am   44  TRP44      -0.1962
     13  CA        11.5670   81.9440   60.7990 C.3    44  TRP44       0.1771
     14  C         12.5280   81.8020   61.9770 C.2    44  TRP44       0.2619
     15  O         12.4170   80.8560   62.7700 O.2    44  TRP44      -0.2715
     16  CB        10.4480   82.9230   61.1380 C.3    44  TRP44       0.0590
     17  CG         9.4720   83.3190   60.0280 C.ar   44  TRP44       0.0006
     18  CD1        8.9710   82.5190   59.0360 C.ar   44  TRP44       0.0946
     19  CD2        8.8370   84.5960   59.8590 C.ar   44  TRP44       0.0152
     20  NE1        8.0920   83.2270   58.2440 N.ar   44  TRP44      -0.2442
     21  CE2        7.9890   84.5020   58.7320 C.ar   44  TRP44       0.0810
     22  CE3        8.9110   85.8160   60.5440 C.ar   44  TRP44       0.0012
     23  CZ2        7.2380   85.5850   58.2660 C.ar   44  TRP44       0.0191
     24  CZ3        8.1500   86.8860   60.0880 C.ar   44  TRP44       0.0001
     25  CH2        7.3230   86.7610   58.9610 C.ar   44  TRP44       0.0015
     26  N         13.5250   82.6830   62.0650 N.am   45  LEU45      -0.1977
     27  CA        14.4900   82.6320   63.1870 C.3    45  LEU45       0.1596
     28  C         15.0710   84.0100   63.3530 C.2    45  LEU45       0.2287
     29  O         15.5990   84.5600   62.4090 O.2    45  LEU45      -0.2864
     30  CB        15.6400   81.6240   62.9640 C.3    45  LEU45       0.0297
     31  CG        16.7390   81.4590   64.0510 C.3    45  LEU45       0.0022
     32  CD1       16.1370   80.9780   65.4270 C.3    45  LEU45       0.0001
     33  CD2       17.8110   80.4590   63.6090 C.3    45  LEU45       0.0001
     34  N         20.7380   84.1020   59.3550 N.3   106  TRP106     -0.1227
     35  CA        21.1040   83.5690   58.0220 C.3   106  TRP106      0.1737
     36  C         20.1730   82.4510   57.4730 C.2   106  TRP106      0.2595
     37  O         19.8970   82.4360   56.2780 O.2   106  TRP106     -0.2718
     38  CB        22.5770   83.0930   57.9880 C.3   106  TRP106      0.0564
     39  CG        22.9280   82.0290   59.0390 C.ar  106  TRP106      0.0003
     40  CD1       23.2840   82.2550   60.3350 C.ar  106  TRP106      0.0946
     41  CD2       22.9420   80.6060   58.8550 C.ar  106  TRP106      0.0152
     42  NE1       23.5190   81.0720   60.9690 N.ar  106  TRP106     -0.2442
     43  CE2       23.3170   80.0360   60.0950 C.ar  106  TRP106      0.0810
     44  CE3       22.6490   79.7520   57.7600 C.ar  106  TRP106      0.0012
     45  CZ2       23.4470   78.6450   60.2920 C.ar  106  TRP106      0.0191
     46  CZ3       22.8100   78.3560   57.9260 C.ar  106  TRP106      0.0001
     47  CH2       23.1960   77.8190   59.1960 C.ar  106  TRP106      0.0015
     48  N         19.7080   81.5280   58.3160 N.am  107  ASN107     -0.1974
     49  CA        18.8390   80.4000   57.8350 C.3   107  ASN107      0.1688
     50  C         17.3230   80.6420   57.9200 C.2   107  ASN107      0.2292
     51  O         16.5400   79.7570   57.5950 O.2   107  ASN107     -0.2864
     52  CB        19.1920   79.0460   58.4560 C.3   107  ASN107      0.1181
     53  CG        18.7800   78.9360   59.9120 C.2   107  ASN107      0.2629
     54  OD1       18.1910   77.9290   60.3380 O.2   107  ASN107     -0.2716
     55  ND2       19.0750   79.9590   60.6810 N.am  107  ASN107     -0.0877
     56  N         13.6080   81.8140   56.8750 N.3   109  LEU109     -0.1245
     57  CA        12.9510   81.6680   55.5800 C.3   109  LEU109      0.1561
     58  C         11.8400   82.6710   55.2990 C.2   109  LEU109      0.2260
     59  O         11.0250   82.4540   54.4170 O.2   109  LEU109     -0.2867
     60  CB        12.4400   80.2280   55.3640 C.3   109  LEU109      0.0270
     61  CG        13.4350   79.0580   55.3900 C.3   109  LEU109      0.0019
     62  CD1       12.6660   77.7610   55.5780 C.3   109  LEU109      0.0001
     63  CD2       14.3660   79.0340   54.1300 C.3   109  LEU109      0.0001
     64  N         23.9650   71.0310   55.0450 N.3   320  ALA320     -0.1231
     65  CA        23.0320   71.4650   56.1140 C.3   320  ALA320      0.1694
     66  C         22.9580   70.5210   57.3000 C.2   320  ALA320      0.2592
     67  O         22.9470   70.9820   58.4140 O.2   320  ALA320     -0.2718
     68  CB        21.5660   71.7710   55.5450 C.3   320  ALA320      0.0304
     69  N         22.8760   69.2140   57.0670 N.am  321  CYS321     -0.1970
     70  CA        22.7580   68.2720   58.1850 C.3   321  CYS321      0.1712
     71  C         23.9700   67.3520   58.2960 C.2   321  CYS321      0.2296
     72  O         24.0460   66.3350   57.6100 O.2   321  CYS321     -0.2864
     73  CB        21.4610   67.4740   58.0970 C.3   321  CYS321      0.0983
     74  SG        20.0460   68.4840   57.6420 S.3   321  CYS321     -0.0798
     75  N         16.8020   68.6970   55.0450 N.3   362  SER362     -0.1217
     76  CA        16.5050   70.0350   54.6450 C.3   362  SER362      0.1889
     77  C         16.7390   70.2840   53.1640 C.2   362  SER362      0.2288
     78  O         17.0170   71.3760   52.7930 O.2   362  SER362     -0.2866
     79  CB        17.3640   70.9980   55.4260 C.3   362  SER362      0.2089
     80  OG        17.1340   70.9500   56.8070 O.3   362  SER362     -0.2183
     81  N         21.1930   71.0060   48.0540 N.3   365  LEU365     -0.1245
     82  CA        22.3680   71.8740   48.0700 C.3   365  LEU365      0.1561
     83  C         23.5660   71.4440   47.2610 C.2   365  LEU365      0.2260
     84  O         23.4920   70.7340   46.3070 O.2   365  LEU365     -0.2867
     85  CB        22.9070   72.0210   49.4890 C.3   365  LEU365      0.0270
     86  CG        22.6030   73.2040   50.3880 C.3   365  LEU365      0.0019
     87  CD1       21.3030   73.0310   51.0260 C.3   365  LEU365      0.0001
     88  CD2       23.5960   73.2480   51.4320 C.3   365  LEU365      0.0001
@<TRIPOS>BOND
     1    84    83    2
     2    83    82    1
     3    81    82    1
     4    82    85    1
     5    85    86    1
     6    86    87    1
     7    86    88    1
     8    78    77    2
     9    77    76    1
    10    63    61    1
    11    59    58    2
    12    76    75    1
    13    76    79    1
    14    64    65    1
    15    58    57    1
    16    60    61    1
    17    60    57    1
    18    61    62    1
    19    79    80    1
    20    68    65    1
    21    57    56    1
    22    65    66    1
    23    37    36    2
    24    69    66   am
    25    69    70    1
    26    66    67    2
    27    36    35    1
    28    36    48   am
    29    51    50    2
    30    72    71    2
    31    74    73    1
    32    44    46   ar
    33    44    41   ar
    34    49    50    1
    35    49    48    1
    36    49    52    1
    37    46    47   ar
    38    38    35    1
    39    38    39    1
    40    35    34    1
    41    73    70    1
    42    70    71    1
    43    20    21   ar
    44    20    18   ar
    45    23    21   ar
    46    23    25   ar
    47    52    53    1
    48    21    19   ar
    49    11    10    2
    50    41    39   ar
    51    41    43   ar
    52    25    24   ar
    53    18    17   ar
    54    39    40   ar
    55    47    45   ar
    56     9    10    1
    57     9     8    1
    58    10    12   am
    59    19    17   ar
    60    19    22   ar
    61    53    54    2
    62    53    55   am
    63    17    16    1
    64    24    22   ar
    65    43    45   ar
    66    43    42   ar
    67    40    42   ar
    68    12    13    1
    69    13    16    1
    70    13    14    1
    71    14    26   am
    72    14    15    2
    73    26    27    1
    74    29    28    2
    75    30    27    1
    76    30    31    1
    77    27    28    1
    78    33    31    1
    79    31    32    1
    80     7     5    1
    81     5     2    1
    82     5     6    1
    83     2     3    1
    84     2     1    1
    85     3     4    2
