@<TRIPOS>MOLECULE
tmp/3wxlA00.pdb
 142 133 0 0 0
SMALL
GASTEIGER

@<TRIPOS>ATOM
      1  N         11.7480   -9.3630   37.3950 N.3    10  ASP10      -0.1239
      2  CA        12.3280   -8.6070   38.4860 C.3    10  ASP10       0.1674
      3  C         13.8110   -8.4220   38.1850 C.2    10  ASP10       0.2266
      4  O         14.6170   -9.3320   38.3810 O.2    10  ASP10      -0.2867
      5  CB        12.1050   -9.3370   39.8170 C.3    10  ASP10       0.1410
      6  CG        12.4980   -8.5020   41.0320 C.2    10  ASP10       0.3668
      7  OD1       12.1490   -8.9150   42.1570 O.co2  10  ASP10      -0.2456
      8  OD2       13.1500   -7.4460   40.8810 O.co2  10  ASP10      -0.2456
      9  N         17.0520   -6.7550   39.1870 N.3    12  GLY12      -0.1210
     10  CA        17.7000   -6.0970   40.3200 C.3    12  GLY12       0.1956
     11  C         19.1400   -5.6870   40.0710 C.2    12  GLY12       0.2613
     12  O         19.6740   -5.8700   38.9750 O.2    12  GLY12      -0.2717
     13  N         19.7660   -5.1340   41.1070 N.am   13  THR13      -0.1938
     14  CA        21.1550   -4.6710   41.0460 C.3    13  THR13       0.2028
     15  C         22.1540   -5.8030   40.7760 C.2    13  THR13       0.2643
     16  O         23.1760   -5.5900   40.1210 O.2    13  THR13      -0.2714
     17  CB        21.5550   -3.9310   42.3490 C.3    13  THR13       0.1808
     18  OG1       20.5370   -2.9850   42.6980 O.3    13  THR13      -0.2208
     19  CG2       22.8790   -3.1920   42.1790 C.3    13  THR13       0.0379
     20  N         21.8580   -7.0030   41.2710 N.am   14  THR14      -0.1936
     21  CA        22.8050   -8.1170   41.1640 C.3    14  THR14       0.2028
     22  C         22.3440   -9.2400   40.2320 C.2    14  THR14       0.2642
     23  O         23.1720   -9.9670   39.6780 O.2    14  THR14      -0.2714
     24  CB        23.1740   -8.7090   42.5480 C.3    14  THR14       0.1808
     25  OG1       22.0310   -9.3450   43.1310 O.3    14  THR14      -0.2208
     26  CG2       23.6960   -7.6260   43.4870 C.3    14  THR14       0.0379
     27  N         21.0310   -9.3720   40.0560 N.am   15  SER15      -0.1949
     28  CA        20.4740  -10.4540   39.2440 C.3    15  SER15       0.1924
     29  C         19.1100  -10.1140   38.6520 C.2    15  SER15       0.2314
     30  O         18.4310   -9.1850   39.1000 O.2    15  SER15      -0.2863
     31  CB        20.3700  -11.7420   40.0680 C.3    15  SER15       0.2116
     32  OG        19.2750  -11.6920   40.9670 O.3    15  SER15      -0.2180
     33  N         15.3510  -11.9770   37.6670 N.3    17  ARG17      -0.1245
     34  CA        14.5090  -13.1130   38.0200 C.3    17  ARG17       0.1563
     35  C         13.1250  -12.9870   37.3990 C.2    17  ARG17       0.2260
     36  O         12.4940  -11.9350   37.4790 O.2    17  ARG17      -0.2867
     37  CB        14.3940  -13.2830   39.5430 C.3    17  ARG17       0.0307
     38  CG        14.7280  -12.0330   40.3700 C.3    17  ARG17       0.0489
     39  CD        14.3750  -12.1780   41.8520 C.3    17  ARG17       0.2205
     40  NE        14.4820  -13.5520   42.3370 N.pl3  17  ARG17      -0.0865
     41  CZ        14.7820  -13.8950   43.5880 C.cat  17  ARG17       0.5346
     42  NH1       15.0330  -12.9670   44.5030 N.pl3  17  ARG17       0.1354
     43  NH2       14.8540  -15.1780   43.9190 N.pl3  17  ARG17       0.1354
     44  N         16.4250  -17.4930   38.3110 N.3    32  GLN32      -0.1245
     45  CA        17.2890  -16.3390   38.5510 C.3    32  GLN32       0.1566
     46  C         18.6120  -16.4680   37.7970 C.2    32  GLN32       0.2260
     47  O         19.2690  -17.5080   37.8550 O.2    32  GLN32      -0.2867
     48  CB        17.5340  -16.1800   40.0570 C.3    32  GLN32       0.0367
     49  CG        18.5280  -15.0850   40.4520 C.3    32  GLN32       0.0905
     50  CD        18.5890  -14.8710   41.9530 C.2    32  GLN32       0.2608
     51  OE1       19.5610  -15.2470   42.6120 O.2    32  GLN32      -0.2717
     52  NE2       17.5460  -14.2680   42.5020 N.am   32  GLN32      -0.0878
     53  N         15.4370   -2.2660   39.2270 N.3    85  GLN85      -0.1245
     54  CA        16.3170   -1.3500   39.9470 C.3    85  GLN85       0.1566
     55  C         16.1610    0.0310   39.3160 C.2    85  GLN85       0.2260
     56  O         16.2800    0.1830   38.0990 O.2    85  GLN85      -0.2867
     57  CB        17.7770   -1.8170   39.8660 C.3    85  GLN85       0.0367
     58  CG        18.2320   -2.2300   38.4620 C.3    85  GLN85       0.0905
     59  CD        19.7360   -2.1590   38.2720 C.2    85  GLN85       0.2608
     60  OE1       20.4320   -1.4230   38.9710 O.2    85  GLN85      -0.2717
     61  NE2       20.2430   -2.9200   37.3100 N.am   85  GLN85      -0.0878
     62  N         11.1360   -0.8790   41.4980 N.3   256  ASP256     -0.1225
     63  CA        11.1550   -1.9790   42.4760 C.3   256  ASP256      0.1805
     64  C         10.5620   -1.6840   43.8600 C.2   256  ASP256      0.2597
     65  O          9.8750   -2.5300   44.4360 O.2   256  ASP256     -0.2718
     66  CB        12.5600   -2.5920   42.6060 C.3   256  ASP256      0.1424
     67  CG        13.6320   -1.5700   42.9660 C.2   256  ASP256      0.3668
     68  OD1       14.8240   -1.9460   42.9500 O.co2 256  ASP256     -0.2456
     69  OD2       13.3060   -0.3980   43.2640 O.co2 256  ASP256     -0.2456
     70  N         10.8340   -0.4890   44.3810 N.am  257  GLN257     -0.1979
     71  CA        10.3370   -0.0900   45.6990 C.3   257  GLN257      0.1601
     72  C          8.8460    0.2220   45.6800 C.2   257  GLN257      0.2287
     73  O          8.1160   -0.1640   46.5900 O.2   257  GLN257     -0.2864
     74  CB        11.1320    1.0960   46.2520 C.3   257  GLN257      0.0394
     75  CG        12.6320    0.8260   46.4220 C.3   257  GLN257      0.0908
     76  CD        12.9410   -0.4430   47.1960 C.2   257  GLN257      0.2608
     77  OE1       12.2330   -0.8070   48.1390 O.2   257  GLN257     -0.2717
     78  NE2       14.0100   -1.1260   46.7980 N.am  257  GLN257     -0.0878
     79  N         10.9330   -2.6380   53.4000 N.3   275  THR275     -0.1203
     80  CA        11.7130   -3.7840   52.9690 C.3   275  THR275      0.1994
     81  C         12.9940   -3.8630   53.7940 C.2   275  THR275      0.2618
     82  O         13.9090   -3.0600   53.6090 O.2   275  THR275     -0.2717
     83  CB        12.0420   -3.7060   51.4630 C.3   275  THR275      0.1784
     84  OG1       10.8310   -3.5350   50.7160 O.3   275  THR275     -0.2211
     85  CG2       12.7470   -4.9750   50.9950 C.3   275  THR275      0.0376
     86  N         13.0320   -4.8220   54.7170 N.am  276  TYR276     -0.1961
     87  CA        14.2100   -5.0730   55.5430 C.3   276  TYR276      0.1771
     88  C         15.2040   -5.9480   54.7820 C.2   276  TYR276      0.2620
     89  O         15.1880   -7.1760   54.9130 O.2   276  TYR276     -0.2715
     90  CB        13.8210   -5.7700   56.8520 C.3   276  TYR276      0.0574
     91  CG        12.9590   -4.9680   57.8010 C.ar  276  TYR276     -0.0198
     92  CD1       11.5680   -5.0000   57.7050 C.ar  276  TYR276     -0.0009
     93  CD2       13.5320   -4.2050   58.8200 C.ar  276  TYR276     -0.0009
     94  CE1       10.7710   -4.2770   58.5830 C.ar  276  TYR276      0.0417
     95  CE2       12.7420   -3.4760   59.7040 C.ar  276  TYR276      0.0417
     96  CZ        11.3630   -3.5180   59.5790 C.ar  276  TYR276      0.1957
     97  OH        10.5710   -2.8040   60.4460 O.3   276  TYR276     -0.2866
     98  N         16.0580   -5.3170   53.9790 N.am  277  GLY277     -0.1940
     99  CA        17.1040   -6.0300   53.2420 C.3   277  GLY277      0.2014
    100  C         18.4730   -5.7020   53.8030 C.2   277  GLY277      0.2640
    101  O         18.6240   -5.5500   55.0160 O.2   277  GLY277     -0.2714
    102  N         19.4680   -5.6000   52.9210 N.am  278  THR278     -0.1936
    103  CA        20.7950   -5.0840   53.2800 C.3   278  THR278      0.2028
    104  C         20.6250   -3.7180   53.9530 C.2   278  THR278      0.2642
    105  O         21.2310   -3.4440   54.9930 O.2   278  THR278     -0.2714
    106  CB        21.7150   -4.9840   52.0320 C.3   278  THR278      0.1808
    107  OG1       21.8670   -6.2820   51.4400 O.3   278  THR278     -0.2208
    108  CG2       23.0910   -4.4430   52.3950 C.3   278  THR278      0.0379
    109  N         19.7830   -2.8810   53.3510 N.am  279  GLY279     -0.1954
    110  CA        19.2850   -1.6590   53.9780 C.3   279  GLY279      0.1869
    111  C         17.7650   -1.6750   54.0170 C.2   279  GLY279      0.2309
    112  O         17.1380   -2.6240   53.5380 O.2   279  GLY279     -0.2863
    113  N         14.2180    0.2460   52.8570 N.3   281  PHE281     -0.1241
    114  CA        13.4940    1.2440   52.0780 C.3   281  PHE281      0.1605
    115  C         12.0710    1.3220   52.6100 C.2   281  PHE281      0.2264
    116  O         11.3090    0.3530   52.5160 O.2   281  PHE281     -0.2867
    117  CB        13.4660    0.8910   50.5870 C.3   281  PHE281      0.0534
    118  CG        14.7980    1.0020   49.8990 C.ar  281  PHE281     -0.0203
    119  CD1       15.2670    2.2330   49.4510 C.ar  281  PHE281     -0.0042
    120  CD2       15.5690   -0.1330   49.6670 C.ar  281  PHE281     -0.0042
    121  CE1       16.4990    2.3370   48.8010 C.ar  281  PHE281     -0.0003
    122  CE2       16.8020   -0.0410   49.0160 C.ar  281  PHE281     -0.0003
    123  CZ        17.2650    1.1960   48.5830 C.ar  281  PHE281     -0.0000
    124  N         20.3880   -5.2600   57.1220 N.3   323  GLY323     -0.1225
    125  CA        20.8700   -6.6290   56.9370 C.3   323  GLY323      0.1811
    126  C         22.3850   -6.6850   56.9340 C.2   323  GLY323      0.2280
    127  O         22.9780   -7.6730   57.3760 O.2   323  GLY323     -0.2866
    128  N         11.4380   -8.5460   52.8030 N.3   423  GLY423     -0.1210
    129  CA        12.8820   -8.3950   52.5990 C.3   423  GLY423      0.1956
    130  C         13.7780   -9.5360   53.0460 C.2   423  GLY423      0.2612
    131  O         14.6900   -9.9370   52.3200 O.2   423  GLY423     -0.2717
    132  N         13.5360  -10.0510   54.2480 N.am  424  GLY424     -0.1956
    133  CA        14.3940  -11.0920   54.8130 C.3   424  GLY424      0.1869
    134  C         14.5230  -10.9730   56.3170 C.2   424  GLY424      0.2309
    135  O         14.3180  -11.9490   57.0380 O.2   424  GLY424     -0.2863
    136  N          7.8540   -7.8010   45.8820 N.3   452  THR452     -0.1218
    137  CA         8.3620   -6.9260   44.8200 C.3   452  THR452      0.1862
    138  C          7.9610   -7.4600   43.4440 C.2   452  THR452      0.2287
    139  O          7.4980   -6.7020   42.5880 O.2   452  THR452     -0.2866
    140  CB         9.8990   -6.7380   44.9100 C.3   452  THR452      0.1770
    141  OG1       10.2290   -6.1090   46.1540 O.3   452  THR452     -0.2211
    142  CG2       10.4200   -5.8710   43.7630 C.3   452  THR452      0.0375
@<TRIPOS>BOND
     1    61    59   am
     2     1     2    1
     3    35    36    2
     4    35    34    1
     5    33    34    1
     6    46    47    2
     7    46    45    1
     8    34    37    1
     9    56    55    2
    10     3     4    2
    11     3     2    1
    12    59    58    1
    13    59    60    2
    14    44    45    1
    15    58    57    1
    16     2     5    1
    17    45    48    1
    18    29    30    2
    19    29    28    1
    20    12    11    2
    21     9    10    1
    22    53    54    1
    23    28    27    1
    24    28    31    1
    25    55    54    1
    26    37    38    1
    27    23    22    2
    28     5     6    1
    29    57    54    1
    30    27    22   am
    31    48    49    1
    32    31    32    1
    33    11    10    1
    34    11    13   am
    35    16    15    2
    36    22    21    1
    37    38    39    1
    38    49    50    1
    39    15    14    1
    40    15    20   am
    41     8     6   ar
    42     6     7   ar
    43    14    13    1
    44    14    17    1
    45    21    20    1
    46    21    24    1
    47    62    63    1
    48    39    40    1
    49    50    52   am
    50    50    51    2
    51    19    17    1
    52    40    41    2
    53    17    18    1
    54    63    66    1
    55    63    64    1
    56    24    25    1
    57    24    26    1
    58   139   138    2
    59    66    67    1
    60    68    67   ar
    61    67    69   ar
    62   138   137    1
    63    41    43    1
    64    41    42    1
    65   142   140    1
    66    64    70   am
    67    64    65    2
    68    70    71    1
    69   137   140    1
    70   137   136    1
    71   140   141    1
    72    72    71    1
    73    72    73    2
    74    71    74    1
    75    74    75    1
    76    75    76    1
    77    78    76   am
    78    76    77    2
    79   123   121   ar
    80   123   122   ar
    81   121   119   ar
    82   122   120   ar
    83   119   118   ar
    84   120   118   ar
    85   118   117    1
    86   117   114    1
    87    84    83    1
    88    85    83    1
    89   107   106    1
    90    83    80    1
    91   106   108    1
    92   106   103    1
    93   114   115    1
    94   114   113    1
    95   131   130    2
    96   116   115    2
    97   129   128    1
    98   129   130    1
    99   102   103    1
   100   102   100   am
   101    80    79    1
   102    80    81    1
   103   130   132   am
   104    99   100    1
   105    99    98    1
   106   103   104    1
   107   109   104   am
   108   109   110    1
   109   112   111    2
   110    82    81    2
   111    81    86   am
   112   100   101    2
   113   104   105    2
   114   110   111    1
   115    98    88   am
   116   132   133    1
   117    86    87    1
   118    88    89    2
   119    88    87    1
   120   133   134    1
   121    87    90    1
   122   134   135    2
   123    90    91    1
   124   126   125    1
   125   126   127    2
   126   125   124    1
   127    92    91   ar
   128    92    94   ar
   129    91    93   ar
   130    94    96   ar
   131    93    95   ar
   132    96    95   ar
   133    96    97    1
