@<TRIPOS>MOLECULE
tmp/3wxlB01.pdb
 98 92 0 0 0
SMALL
GASTEIGER

@<TRIPOS>ATOM
      1  N         71.0210  -24.8940  102.8520 N.3     3  MET3       -0.1245
      2  CA        70.4470  -23.6760  102.3020 C.3     3  MET3        0.1570
      3  C         69.6140  -22.9480  103.3580 C.2     3  MET3        0.2261
      4  O         68.9050  -23.5890  104.1380 O.2     3  MET3       -0.2867
      5  CB        69.5740  -24.0360  101.0990 C.3     3  MET3        0.0387
      6  CG        68.9140  -22.8580  100.4150 C.3     3  MET3        0.0595
      7  SD        70.0930  -21.7470   99.6340 S.3     3  MET3       -0.1393
      8  CE        70.3410  -22.5470   98.0580 C.3     3  MET3        0.0692
      9  N         66.3800  -20.7950  104.0220 N.3     5  TYR5       -0.1241
     10  CA        65.0930  -20.6170  103.3550 C.3     5  TYR5        0.1605
     11  C         64.2790  -19.4960  103.9940 C.2     5  TYR5        0.2264
     12  O         64.3020  -19.3100  105.2130 O.2     5  TYR5       -0.2867
     13  CB        64.2930  -21.9260  103.3480 C.3     5  TYR5        0.0534
     14  CG        64.9120  -23.0430  102.5300 C.ar    5  TYR5       -0.0201
     15  CD1       64.8160  -23.0510  101.1370 C.ar    5  TYR5       -0.0009
     16  CD2       65.5790  -24.1020  103.1510 C.ar    5  TYR5       -0.0009
     17  CE1       65.3780  -24.0770  100.3810 C.ar    5  TYR5        0.0417
     18  CE2       66.1480  -25.1330  102.4050 C.ar    5  TYR5        0.0417
     19  CZ        66.0420  -25.1150  101.0230 C.ar    5  TYR5        0.1957
     20  OH        66.6000  -26.1270  100.2790 O.3     5  TYR5       -0.2866
     21  N         64.7380  -19.7400   98.4460 N.3    22  ASP22      -0.1239
     22  CA        66.0880  -19.9690   98.9490 C.3    22  ASP22       0.1674
     23  C         66.9630  -18.7270   98.7500 C.2    22  ASP22       0.2266
     24  O         66.4560  -17.6650   98.3690 O.2    22  ASP22      -0.2867
     25  CB        66.7060  -21.2470   98.3570 C.3    22  ASP22       0.1410
     26  CG        66.8860  -21.1950   96.8490 C.2    22  ASP22       0.3668
     27  OD1       66.8480  -20.1040   96.2430 O.co2  22  ASP22      -0.2456
     28  OD2       67.0820  -22.2780   96.2650 O.co2  22  ASP22      -0.2456
     29  N         68.9880  -17.9870   96.5290 N.3    24  ARG24      -0.1245
     30  CA        69.0570  -17.6020   95.1180 C.3    24  ARG24       0.1563
     31  C         67.8630  -16.7370   94.7190 C.2    24  ARG24       0.2260
     32  O         67.7580  -16.3170   93.5650 O.2    24  ARG24      -0.2867
     33  CB        69.0770  -18.8490   94.2290 C.3    24  ARG24       0.0307
     34  CG        70.0710  -19.9270   94.6370 C.3    24  ARG24       0.0489
     35  CD        69.4770  -21.3080   94.4050 C.3    24  ARG24       0.2205
     36  NE        69.3760  -21.6400   92.9900 N.pl3  24  ARG24      -0.0865
     37  CZ        68.4030  -22.3680   92.4430 C.cat  24  ARG24       0.5346
     38  NH1       68.4260  -22.6060   91.1420 N.pl3  24  ARG24       0.1354
     39  NH2       67.4080  -22.8500   93.1810 N.pl3  24  ARG24       0.1354
     40  N         64.9520  -17.9290   94.5040 N.3    26  ARG26      -0.1231
     41  CA        64.1780  -18.8340   93.6640 C.3    26  ARG26       0.1679
     42  C         63.0630  -19.4810   94.4710 C.2    26  ARG26       0.2434
     43  O         63.3020  -19.9600   95.5830 O.2    26  ARG26      -0.2733
     44  CB        65.0780  -19.9210   93.0640 C.3    26  ARG26       0.0321
     45  CG        66.0070  -19.4440   91.9570 C.3    26  ARG26       0.0489
     46  CD        65.2740  -19.2730   90.6300 C.3    26  ARG26       0.2205
     47  NE        66.2090  -19.0020   89.5380 N.pl3  26  ARG26      -0.0865
     48  CZ        66.7470  -19.9360   88.7590 C.cat  26  ARG26       0.5346
     49  NH1       67.5910  -19.5880   87.7990 N.pl3  26  ARG26       0.1354
     50  NH2       66.4450  -21.2170   88.9350 N.pl3  26  ARG26       0.1354
     51  N         61.8360  -19.4980   93.9160 N.am   27  PRO27      -0.2718
     52  CA        60.7380  -20.1980   94.5730 C.3    27  PRO27       0.1535
     53  C         60.9140  -21.7090   94.4210 C.2    27  PRO27       0.2598
     54  O         60.8790  -22.2340   93.3040 O.2    27  PRO27      -0.2715
     55  CB        59.4950  -19.6920   93.8300 C.3    27  PRO27       0.0310
     56  CG        59.9850  -19.2770   92.4880 C.3    27  PRO27       0.0237
     57  CD        61.4310  -18.8880   92.6350 C.3    27  PRO27       0.0939
     58  N         61.1200  -22.3910   95.5430 N.am   28  VAL28      -0.1978
     59  CA        61.4410  -23.8190   95.5330 C.3    28  VAL28       0.1596
     60  C         60.2940  -24.7050   96.0240 C.2    28  VAL28       0.2287
     61  O         60.3260  -25.9240   95.8400 O.2    28  VAL28      -0.2864
     62  CB        62.7430  -24.1290   96.3290 C.3    28  VAL28       0.0276
     63  CG1       63.9440  -23.4670   95.6610 C.3    28  VAL28       0.0022
     64  CG2       62.6170  -23.6910   97.7860 C.3    28  VAL28       0.0022
     65  N         58.8780  -29.3330  100.5640 N.3    67  LEU67      -0.1245
     66  CA        60.2800  -28.9180  100.5520 C.3    67  LEU67       0.1561
     67  C         61.1820  -29.9600  101.2120 C.2    67  LEU67       0.2260
     68  O         62.2610  -30.2530  100.6980 O.2    67  LEU67      -0.2867
     69  CB        60.4620  -27.5620  101.2420 C.3    67  LEU67       0.0270
     70  CG        61.4760  -26.5350  100.7050 C.3    67  LEU67       0.0019
     71  CD1       62.0600  -25.7460  101.8650 C.3    67  LEU67       0.0001
     72  CD2       62.6040  -27.1190   99.8530 C.3    67  LEU67       0.0001
     73  N         62.2390  -32.4280   98.8620 N.3    70  LYS70      -0.1231
     74  CA        63.2750  -31.9920   97.9190 C.3    70  LYS70       0.1693
     75  C         64.6290  -31.8050   98.6050 C.2    70  LYS70       0.2592
     76  O         65.6780  -31.9730   97.9830 O.2    70  LYS70      -0.2718
     77  CB        62.8680  -30.6780   97.2410 C.3    70  LYS70       0.0285
     78  CG        61.6050  -30.7590   96.3980 C.3    70  LYS70       0.0035
     79  CD        61.2490  -29.3950   95.8230 C.3    70  LYS70       0.0206
     80  CE        59.9920  -29.4620   94.9750 C.3    70  LYS70       0.1093
     81  NZ        59.6910  -28.1500   94.3380 N.3    70  LYS70      -0.1314
     82  N         64.5840  -31.4400   99.8830 N.am   71  ASP71      -0.1974
     83  CA        65.7740  -31.1800  100.6830 C.3    71  ASP71       0.1709
     84  C         65.5310  -31.7270  102.0820 C.2    71  ASP71       0.2293
     85  O         64.8680  -31.0910  102.9020 O.2    71  ASP71      -0.2864
     86  CB        66.0660  -29.6710  100.7200 C.3    71  ASP71       0.1436
     87  CG        67.3360  -29.3220  101.4950 C.2    71  ASP71       0.3671
     88  OD1       67.6050  -28.1120  101.6510 O.co2  71  ASP71      -0.2456
     89  OD2       68.0640  -30.2350  101.9470 O.co2  71  ASP71      -0.2456
     90  N         70.4160  -14.7630   89.0240 N.3   480  GLU480     -0.1245
     91  CA        69.4960  -15.8930   89.1590 C.3   480  GLU480      0.1567
     92  C         68.2030  -15.7920   88.3550 C.2   480  GLU480      0.2260
     93  O         67.7140  -16.7960   87.8300 O.2   480  GLU480     -0.2867
     94  CB        69.1580  -16.1150   90.6360 C.3   480  GLU480      0.0388
     95  CG        70.3220  -16.6320   91.4730 C.3   480  GLU480      0.1160
     96  CD        70.6960  -18.0690   91.1500 C.2   480  GLU480      0.3649
     97  OE1       70.0970  -18.6570   90.2270 O.co2 480  GLU480     -0.2457
     98  OE2       71.5910  -18.6150   91.8250 O.co2 480  GLU480     -0.2457
@<TRIPOS>BOND
     1    49    48    1
     2    93    92    2
     3    92    91    1
     4    48    50    1
     5    48    47    2
     6    90    91    1
     7    91    94    1
     8    47    46    1
     9    97    96   ar
    10    46    45    1
    11    94    95    1
    12    38    37    1
    13    96    95    1
    14    96    98   ar
    15    45    44    1
    16    37    36    2
    17    37    39    1
    18    56    57    1
    19    56    55    1
    20    57    51    1
    21    36    35    1
    22    44    41    1
    23    54    53    2
    24    32    31    2
    25    41    42    1
    26    41    40    1
    27    55    52    1
    28    51    42   am
    29    51    52    1
    30    33    34    1
    31    33    30    1
    32    81    80    1
    33    35    34    1
    34    53    52    1
    35    53    58   am
    36    42    43    2
    37    31    30    1
    38    80    79    1
    39    30    29    1
    40    59    58    1
    41    59    60    1
    42    59    62    1
    43    63    62    1
    44    79    78    1
    45    61    60    2
    46    27    26   ar
    47    28    26   ar
    48    62    64    1
    49    78    77    1
    50    26    25    1
    51    77    74    1
    52    74    75    1
    53    74    73    1
    54    76    75    2
    55     8     7    1
    56    25    22    1
    57    24    23    2
    58    21    22    1
    59    75    82   am
    60    23    22    1
    61     7     6    1
    62    72    70    1
    63    82    83    1
    64    20    19    1
    65    17    19   ar
    66    17    15   ar
    67     6     5    1
    68    66    65    1
    69    66    67    1
    70    66    69    1
    71    83    86    1
    72    83    84    1
    73    68    67    2
    74    70    69    1
    75    70    71    1
    76    86    87    1
    77    19    18   ar
    78     5     2    1
    79    15    14   ar
    80    87    88   ar
    81    87    89   ar
    82    84    85    2
    83     2     1    1
    84     2     3    1
    85    18    16   ar
    86    14    16   ar
    87    14    13    1
    88    13    10    1
    89    10    11    1
    90    10     9    1
    91     3     4    2
    92    11    12    2
