@<TRIPOS>MOLECULE
tmp/3wxmA00.pdb
 182 176 0 0 0
SMALL
GASTEIGER

@<TRIPOS>ATOM
      1  N        -26.1170   57.8430   11.2110 N.3    12  VAL12      -0.1231
      2  CA       -26.4480   56.7000   12.0480 C.3    12  VAL12       0.1692
      3  C        -27.6450   55.8960   11.5190 C.2    12  VAL12       0.2592
      4  O        -28.6700   56.4430   11.1010 O.2    12  VAL12      -0.2718
      5  CB       -26.6970   57.1270   13.5100 C.3    12  VAL12       0.0266
      6  CG1      -28.0120   57.8810   13.6800 C.3    12  VAL12       0.0020
      7  CG2      -26.6190   55.9300   14.4100 C.3    12  VAL12       0.0020
      8  N        -27.4570   54.5820   11.4990 N.am   13  ASP13      -0.1960
      9  CA       -28.4750   53.6160   11.1140 C.3    13  ASP13       0.1840
     10  C        -28.9230   53.6450    9.6540 C.2    13  ASP13       0.2622
     11  O        -29.8780   52.9550    9.3000 O.2    13  ASP13      -0.2715
     12  CB       -29.6930   53.7710   12.0170 C.3    13  ASP13       0.1450
     13  CG       -29.6120   52.8810   13.2280 C.2    13  ASP13       0.3671
     14  OD1      -28.7380   51.9870   13.2200 O.co2  13  ASP13      -0.2456
     15  OD2      -30.4120   53.0670   14.1760 O.co2  13  ASP13      -0.2456
     16  N        -28.2350   54.3990    8.7990 N.am   14  HIS14      -0.1959
     17  CA       -28.5850   54.4390    7.3870 C.3    14  HIS14       0.1787
     18  C        -28.2070   53.1450    6.6720 C.2    14  HIS14       0.2621
     19  O        -28.3690   53.0290    5.4590 O.2    14  HIS14      -0.2715
     20  CB       -27.9170   55.6180    6.6870 C.3    14  HIS14       0.0785
     21  CG       -28.6060   56.9220    6.9110 C.ar   14  HIS14       0.0821
     22  ND1      -28.4020   58.0210    6.0990 N.ar   14  HIS14      -0.2267
     23  CD2      -29.4990   57.3070    7.8540 C.ar   14  HIS14       0.1154
     24  CE1      -29.1480   59.0240    6.5310 C.ar   14  HIS14       0.1986
     25  NE2      -29.8220   58.6160    7.5940 N.ar   14  HIS14      -0.2212
     26  N        -27.6790   52.1830    7.4090 N.am   15  GLY15      -0.1940
     27  CA       -27.5210   50.8430    6.8720 C.3    15  GLY15       0.2014
     28  C        -26.1390   50.3880    6.4580 C.2    15  GLY15       0.2639
     29  O        -26.0150   49.4520    5.6600 O.2    15  GLY15      -0.2714
     30  N        -25.1050   51.0130    7.0160 N.am   16  LYS16      -0.1963
     31  CA       -23.7320   50.6650    6.6780 C.3    16  LYS16       0.1728
     32  C        -23.4120   49.2050    6.9570 C.2    16  LYS16       0.2617
     33  O        -22.8700   48.5020    6.1000 O.2    16  LYS16      -0.2715
     34  CB       -22.7660   51.5420    7.4520 C.3    16  LYS16       0.0311
     35  CG       -22.7680   52.9780    7.0290 C.3    16  LYS16       0.0038
     36  CD       -21.8650   53.7600    7.9560 C.3    16  LYS16       0.0206
     37  CE       -22.6550   54.7210    8.8140 C.3    16  LYS16       0.1093
     38  NZ       -23.4840   54.1390    9.9020 N.3    16  LYS16      -0.1314
     39  N        -23.7430   48.7570    8.1630 N.am   17  SER17      -0.1936
     40  CA       -23.4010   47.4050    8.5730 C.3    17  SER17       0.2055
     41  C        -24.1990   46.3310    7.8160 C.2    17  SER17       0.2643
     42  O        -23.6210   45.3350    7.3770 O.2    17  SER17      -0.2714
     43  CB       -23.5910   47.2500   10.0770 C.3    17  SER17       0.2130
     44  OG       -22.7070   48.1100   10.7680 O.3    17  SER17      -0.2179
     45  N        -25.5100   46.5110    7.6490 N.am   18  THR18      -0.1950
     46  CA       -26.2400   45.5500    6.8220 C.3    18  THR18       0.1897
     47  C        -25.6800   45.5360    5.3820 C.2    18  THR18       0.2313
     48  O        -25.4990   44.4680    4.7940 O.2    18  THR18      -0.2863
     49  CB       -27.7530   45.8310    6.7570 C.3    18  THR18       0.1794
     50  OG1      -27.9910   46.9330    5.8800 O.3    18  THR18      -0.2208
     51  CG2      -28.3140   46.1480    8.1150 C.3    18  THR18       0.0378
     52  N        -34.2080   43.0040   12.6760 N.3    49  SER49      -0.1202
     53  CA       -33.6920   43.2540   11.3380 C.3    49  SER49       0.2020
     54  C        -32.1750   43.5080   11.3580 C.2    49  SER49       0.2618
     55  O        -31.6570   44.3110   10.5780 O.2    49  SER49      -0.2717
     56  CB       -34.3990   44.4540   10.7320 C.3    49  SER49       0.2103
     57  OG       -34.1060   45.6020   11.5120 O.3    49  SER49      -0.2182
     58  N        -31.4630   42.8300   12.2510 N.am   50  PHE50      -0.1975
     59  CA       -30.0650   43.1680   12.4800 C.3    50  PHE50       0.1639
     60  C        -29.1010   42.0360   12.1640 C.2    50  PHE50       0.2290
     61  O        -27.8930   42.1670   12.3520 O.2    50  PHE50      -0.2864
     62  CB       -29.8910   43.6370   13.9210 C.3    50  PHE50       0.0560
     63  CG       -30.2580   45.0790   14.1250 C.ar   50  PHE50      -0.0200
     64  CD1      -29.3410   46.0820   13.8600 C.ar   50  PHE50      -0.0042
     65  CD2      -31.5220   45.4360   14.5570 C.ar   50  PHE50      -0.0042
     66  CE1      -29.6700   47.4130   14.0370 C.ar   50  PHE50      -0.0003
     67  CE2      -31.8580   46.7720   14.7420 C.ar   50  PHE50      -0.0003
     68  CZ       -30.9300   47.7580   14.4780 C.ar   50  PHE50      -0.0000
     69  N        -26.2630   43.1750   10.1230 N.3    53  ALA53      -0.1245
     70  CA       -25.4110   44.1140   10.8410 C.3    53  ALA53       0.1562
     71  C        -24.5950   43.4000   11.8930 C.2    53  ALA53       0.2260
     72  O        -23.4930   43.8250   12.2320 O.2    53  ALA53      -0.2867
     73  CB       -26.2340   45.2060   11.4760 C.3    53  ALA53       0.0290
     74  N        -21.1560   44.0150   13.8600 N.3    57  ASP57      -0.1239
     75  CA       -21.2680   44.4820   15.2380 C.3    57  ASP57       0.1674
     76  C        -21.2300   43.3310   16.2240 C.2    57  ASP57       0.2266
     77  O        -22.0820   42.4470   16.1870 O.2    57  ASP57      -0.2867
     78  CB       -22.5600   45.2730   15.4390 C.3    57  ASP57       0.1410
     79  CG       -22.6060   46.5160   14.6060 C.2    57  ASP57       0.3668
     80  OD1      -21.5220   46.9810   14.1710 O.co2  57  ASP57      -0.2456
     81  OD2      -23.7290   47.0320   14.3830 O.co2  57  ASP57      -0.2456
     82  N        -28.8050   49.2970   18.6940 N.3    66  GLY66      -0.1210
     83  CA       -27.7470   48.4300   18.2370 C.3    66  GLY66       0.1956
     84  C        -26.9800   49.3080   17.2610 C.2    66  GLY66       0.2612
     85  O        -27.4460   49.6630   16.1700 O.2    66  GLY66      -0.2717
     86  N        -25.7810   49.6750   17.6880 N.am   67  ILE67      -0.1965
     87  CA       -25.0320   50.7780   17.1190 C.3    67  ILE67       0.1727
     88  C        -23.6460   50.2490   16.8330 C.2    67  ILE67       0.2616
     89  O        -23.1370   49.4290   17.5870 O.2    67  ILE67      -0.2715
     90  CB       -25.0040   51.9870   18.1170 C.3    67  ILE67       0.0290
     91  CG1      -26.3480   52.7110   18.1190 C.3    67  ILE67       0.0022
     92  CG2      -23.9650   52.9850   17.7850 C.3    67  ILE67       0.0023
     93  CD1      -26.8230   53.0740   16.7510 C.3    67  ILE67       0.0001
     94  N        -23.0410   50.6680   15.7320 N.am   68  THR68      -0.1951
     95  CA       -21.6200   50.4100   15.5540 C.3    68  THR68       0.1897
     96  C        -20.8520   51.3940   16.4440 C.2    68  THR68       0.2313
     97  O        -21.1410   52.5900   16.4470 O.2    68  THR68      -0.2863
     98  CB       -21.1850   50.5540   14.0870 C.3    68  THR68       0.1794
     99  OG1      -21.7840   49.5100   13.3160 O.3    68  THR68      -0.2208
    100  CG2      -19.6660   50.4720   13.9480 C.3    68  THR68       0.0378
    101  N        -17.6270   51.5810    9.6780 N.3    88  ALA88      -0.1245
    102  CA       -17.4900   52.7060   10.6130 C.3    88  ALA88       0.1562
    103  C        -18.7610   52.9980   11.3960 C.2    88  ALA88       0.2260
    104  O        -19.8540   52.6580   10.9600 O.2    88  ALA88      -0.2867
    105  CB       -17.0420   53.9640    9.8630 C.3    88  ALA88       0.0290
    106  N        -21.7590   55.3340   12.8300 N.3    90  GLY90      -0.1225
    107  CA       -22.4470   56.5100   12.3340 C.3    90  GLY90       0.1811
    108  C        -22.8330   57.4480   13.4510 C.2    90  GLY90       0.2280
    109  O        -22.9670   58.6560   13.2510 O.2    90  GLY90      -0.2866
    110  N        -35.0340   57.0940    2.9070 N.3   115  ARG115     -0.1245
    111  CA       -36.2880   57.1740    3.6420 C.3   115  ARG115      0.1563
    112  C        -36.6370   58.6050    4.0520 C.2   115  ARG115      0.2260
    113  O        -35.7740   59.3730    4.4440 O.2   115  ARG115     -0.2867
    114  CB       -36.2370   56.2640    4.8640 C.3   115  ARG115      0.0307
    115  CG       -36.0100   54.8200    4.4830 C.3   115  ARG115      0.0489
    116  CD       -36.4190   53.8910    5.6070 C.3   115  ARG115      0.2205
    117  NE       -37.7070   54.2700    6.1630 N.pl3 115  ARG115     -0.0865
    118  CZ       -38.2620   53.6910    7.2210 C.cat 115  ARG115      0.5346
    119  NH1      -37.6380   52.6990    7.8360 N.pl3 115  ARG115      0.1354
    120  NH2      -39.4440   54.0990    7.6610 N.pl3 115  ARG115      0.1354
    121  N        -29.6580   54.2060   -0.2900 N.3   149  ASN149     -0.1225
    122  CA       -30.0550   52.9520    0.3290 C.3   149  ASN149      0.1785
    123  C        -31.4930   52.9440    0.8580 C.2   149  ASN149      0.2597
    124  O        -32.1630   53.9780    0.8640 O.2   149  ASN149     -0.2718
    125  CB       -29.0680   52.6580    1.4650 C.3   149  ASN149      0.1169
    126  CG       -29.2450   51.2940    2.0640 C.2   149  ASN149      0.2627
    127  OD1      -29.3820   50.3050    1.3470 O.2   149  ASN149     -0.2716
    128  ND2      -29.2670   51.2280    3.3900 N.am  149  ASN149     -0.0877
    129  N        -31.9390   51.7740    1.3170 N.am  150  LYS150     -0.1980
    130  CA       -33.2620   51.5780    1.9000 C.3   150  LYS150      0.1596
    131  C        -34.3290   51.8310    0.8310 C.2   150  LYS150      0.2287
    132  O        -35.4460   52.2670    1.1070 O.2   150  LYS150     -0.2864
    133  CB       -33.4570   52.4700    3.1340 C.3   150  LYS150      0.0298
    134  CG       -32.4630   52.1810    4.2620 C.3   150  LYS150      0.0038
    135  CD       -32.9730   52.6210    5.6240 C.3   150  LYS150      0.0206
    136  CE       -31.8440   52.6770    6.6320 C.3   150  LYS150      0.1093
    137  NZ       -32.3430   52.9300    8.0200 N.3   150  LYS150     -0.1314
    138  N        -36.0940   49.9030   -0.6740 N.3   152  ASP152     -0.1225
    139  CA       -37.2240   48.9880   -0.5450 C.3   152  ASP152      0.1805
    140  C        -38.2190   49.4650    0.4970 C.2   152  ASP152      0.2598
    141  O        -39.3090   48.9280    0.6100 O.2   152  ASP152     -0.2718
    142  CB       -36.7380   47.6020   -0.1450 C.3   152  ASP152      0.1424
    143  CG       -36.0770   47.6030    1.2320 C.2   152  ASP152      0.3668
    144  OD1      -34.8700   47.9300    1.3060 O.co2 152  ASP152     -0.2456
    145  OD2      -36.7670   47.3000    2.2350 O.co2 152  ASP152     -0.2456
    146  N        -37.8260   50.4460    1.2930 N.am  153  ALA153     -0.1966
    147  CA       -38.6830   50.8910    2.3820 C.3   153  ALA153      0.1713
    148  C        -40.0120   51.3900    1.8360 C.2   153  ALA153      0.2458
    149  O        -40.0500   52.0010    0.7670 O.2   153  ALA153     -0.2730
    150  CB       -38.0000   51.9750    3.1900 C.3   153  ALA153      0.0333
    151  N        -41.1050   51.1140    2.5650 N.am  154  PRO154     -0.2727
    152  CA       -42.4560   51.5010    2.1600 C.3   154  PRO154      0.1402
    153  C        -42.5240   52.9520    1.6940 C.2   154  PRO154      0.2269
    154  O        -43.1290   53.2320    0.6560 O.2   154  PRO154     -0.2865
    155  CB       -43.2680   51.2880    3.4360 C.3   154  PRO154      0.0296
    156  CG       -42.5690   50.1690    4.1150 C.3   154  PRO154      0.0237
    157  CD       -41.1100   50.3780    3.8430 C.3   154  PRO154      0.0939
    158  N        -30.7080   48.3290   -2.0520 N.3   190  SER190     -0.1202
    159  CA       -31.3730   47.9180   -0.8270 C.3   190  SER190      0.2020
    160  C        -30.4070   47.0370   -0.0560 C.2   190  SER190      0.2619
    161  O        -30.0700   45.9370   -0.5060 O.2   190  SER190     -0.2717
    162  CB       -32.6670   47.1630   -1.1060 C.3   190  SER190      0.2103
    163  OG       -33.0980   46.4910    0.0610 O.3   190  SER190     -0.2182
    164  N        -29.9490   47.5150    1.0940 N.am  191  ALA191     -0.1965
    165  CA       -28.9340   46.7790    1.8340 C.3   191  ALA191      0.1728
    166  C        -29.5650   45.5430    2.4240 C.2   191  ALA191      0.2616
    167  O        -28.9200   44.5060    2.5940 O.2   191  ALA191     -0.2715
    168  CB       -28.3210   47.6490    2.9220 C.3   191  ALA191      0.0334
    169  N        -30.8510   45.6820    2.7210 N.am  192  TRP192     -0.1974
    170  CA       -31.6350   44.6540    3.3860 C.3   192  TRP192      0.1640
    171  C        -32.0950   43.5540    2.4160 C.2   192  TRP192      0.2290
    172  O        -31.9470   42.3650    2.6980 O.2   192  TRP192     -0.2864
    173  CB       -32.8300   45.3130    4.0770 C.3   192  TRP192      0.0576
    174  CG       -33.7360   44.3540    4.7530 C.ar  192  TRP192      0.0006
    175  CD1      -35.0300   44.0900    4.4270 C.ar  192  TRP192      0.0946
    176  CD2      -33.4210   43.5160    5.8680 C.ar  192  TRP192      0.0152
    177  NE1      -35.5420   43.1410    5.2740 N.ar  192  TRP192     -0.2442
    178  CE2      -34.5690   42.7700    6.1660 C.ar  192  TRP192      0.0810
    179  CE3      -32.2780   43.3250    6.6460 C.ar  192  TRP192      0.0012
    180  CZ2      -34.6100   41.8490    7.2030 C.ar  192  TRP192      0.0191
    181  CZ3      -32.3230   42.4120    7.6770 C.ar  192  TRP192      0.0001
    182  CH2      -33.4810   41.6880    7.9470 C.ar  192  TRP192      0.0015
@<TRIPOS>BOND
     1   158   159    1
     2   162   159    1
     3   162   163    1
     4   159   160    1
     5   138   139    1
     6   139   142    1
     7   139   140    1
     8   161   160    2
     9   121   122    1
    10   142   143    1
    11   160   164   am
    12   122   123    1
    13   122   125    1
    14   140   141    2
    15   140   146   am
    16   154   153    2
    17   149   148    2
    18   131   132    2
    19   131   130    1
    20   123   124    2
    21   123   129   am
    22   164   165    1
    23   143   144   ar
    24   143   145   ar
    25   146   147    1
    26   129   130    1
    27   127   126    2
    28   125   126    1
    29   153   152    1
    30   165   166    1
    31   165   168    1
    32   148   147    1
    33   148   151   am
    34   130   133    1
    35   126   128   am
    36   152   151    1
    37   152   155    1
    38   147   150    1
    39   171   172    2
    40   171   170    1
    41   166   167    2
    42   166   169   am
    43   151   157    1
    44   169   170    1
    45   110   111    1
    46   133   134    1
    47   170   173    1
    48   155   156    1
    49   111   112    1
    50   111   114    1
    51   157   156    1
    52   112   113    2
    53   173   174    1
    54   134   135    1
    55   175   174   ar
    56   175   177   ar
    57   115   114    1
    58   115   116    1
    59   174   176   ar
    60    48    47    2
    61   177   178   ar
    62    47    46    1
    63    19    18    2
    64   116   117    1
    65   135   136    1
    66    29    28    2
    67   176   178   ar
    68   176   179   ar
    69    50    49    1
    70    22    24   ar
    71    22    21   ar
    72    33    32    2
    73   117   118    2
    74   178   180   ar
    75    28    27    1
    76    28    30   am
    77    24    25   ar
    78   136   137    1
    79   179   181   ar
    80    18    17    1
    81    18    26   am
    82    31    32    1
    83    31    30    1
    84    31    34    1
    85    20    21    1
    86    20    17    1
    87    49    46    1
    88    49    51    1
    89    46    45    1
    90    27    26    1
    91    21    23   ar
    92    32    39   am
    93    35    34    1
    94    35    36    1
    95   180   182   ar
    96   118   120    1
    97   118   119    1
    98    42    41    2
    99    17    16    1
   100    25    23   ar
   101    45    41   am
   102   181   182   ar
   103    41    40    1
   104    36    37    1
   105    39    40    1
   106    40    43    1
   107    16    10   am
   108    37    38    1
   109    11    10    2
   110    10     9    1
   111   101   102    1
   112   105   102    1
   113    43    44    1
   114    69    70    1
   115    55    54    2
   116   102   103    1
   117    56    53    1
   118    56    57    1
   119    70    73    1
   120    70    71    1
   121   104   103    2
   122     4     3    2
   123     9     8    1
   124     9    12    1
   125     1     2    1
   126    53    54    1
   127    53    52    1
   128    54    58   am
   129     8     3   am
   130     3     2    1
   131    71    72    2
   132    12    13    1
   133     2     5    1
   134    60    61    2
   135    60    59    1
   136    58    59    1
   137   107   106    1
   138   107   108    1
   139    59    62    1
   140    14    13   ar
   141    13    15   ar
   142   109   108    2
   143    99    98    1
   144     5     6    1
   145     5     7    1
   146    64    66   ar
   147    64    63   ar
   148    74    75    1
   149    62    63    1
   150   100    98    1
   151    66    68   ar
   152    98    95    1
   153    63    65   ar
   154    80    79   ar
   155    81    79   ar
   156    68    67   ar
   157    65    67   ar
   158    79    78    1
   159    75    78    1
   160    75    76    1
   161    95    94    1
   162    95    96    1
   163    94    88   am
   164    85    84    2
   165    77    76    2
   166    96    97    2
   167    93    91    1
   168    88    87    1
   169    88    89    2
   170    87    86    1
   171    87    90    1
   172    84    86   am
   173    84    83    1
   174    92    90    1
   175    90    91    1
   176    83    82    1
