@<TRIPOS>MOLECULE
tmp/3wxoA02.pdb
 85 80 0 0 0
SMALL
GASTEIGER

@<TRIPOS>ATOM
      1  N         41.4700    2.2510  -85.1900 N.3    81  ARG81      -0.1245
      2  CA        41.4020    3.7100  -85.5450 C.3    81  ARG81       0.1563
      3  C         40.1930    4.0630  -86.4260 C.2    81  ARG81       0.2260
      4  O         39.4870    5.0640  -86.1870 O.2    81  ARG81      -0.2867
      5  CB        42.6810    4.1240  -86.2750 C.3    81  ARG81       0.0307
      6  CG        42.7040    5.6270  -86.5590 C.3    81  ARG81       0.0489
      7  CD        44.0990    5.9950  -87.0790 C.3    81  ARG81       0.2205
      8  NE        44.0000    7.2930  -87.7420 N.pl3  81  ARG81      -0.0865
      9  CZ        44.0330    7.5020  -89.0680 C.cat  81  ARG81       0.5346
     10  NH1       44.3100    6.5180  -89.9180 N.pl3  81  ARG81       0.1354
     11  NH2       43.8510    8.7430  -89.5480 N.pl3  81  ARG81       0.1354
     12  N         41.1800   15.5890  -92.5570 N.2   113  PRO113     -0.2571
     13  CA        42.5940   15.2870  -92.3520 C.3   113  PRO113      0.2026
     14  C         42.8220   14.2650  -91.2160 C.2   113  PRO113      0.2683
     15  O         43.6870   13.4280  -91.3160 O.2   113  PRO113     -0.2709
     16  CB        43.1970   16.5930  -91.9280 C.2   113  PRO113      0.0085
     17  CG        42.1330   17.6300  -92.0980 C.2   113  PRO113      0.0180
     18  CD        40.8330   17.0050  -92.4380 C.2   113  PRO113      0.0938
     19  N         42.0240   14.3350  -90.1650 N.am  114  ASP114     -0.1967
     20  CA        42.1050   13.2960  -89.1210 C.3   114  ASP114      0.1709
     21  C         41.7140   11.9000  -89.6120 C.2   114  ASP114      0.2293
     22  O         42.0660   10.9290  -88.9800 O.2   114  ASP114     -0.2864
     23  CB        41.2510   13.6630  -87.9200 C.3   114  ASP114      0.1436
     24  CG        42.0850   13.7410  -86.5900 C.2   114  ASP114      0.3671
     25  OD1       43.3150   13.4850  -86.6510 O.co2 114  ASP114     -0.2456
     26  OD2       41.5140   14.0510  -85.5030 O.co2 114  ASP114     -0.2456
     27  N         42.6900   10.6600  -92.5750 N.3   116  THR116     -0.1218
     28  CA        43.6630   10.2080  -93.5380 C.3   116  THR116      0.1862
     29  C         43.9440    8.7280  -93.4920 C.2   116  THR116      0.2287
     30  O         44.2140    8.1580  -92.4210 O.2   116  THR116     -0.2866
     31  CB        44.9820   10.9360  -93.3120 C.3   116  THR116      0.1770
     32  OG1       44.7470   12.3250  -93.3850 O.3   116  THR116     -0.2211
     33  CG2       45.9620   10.6030  -94.3470 C.3   116  THR116      0.0375
     34  N         42.0370   22.4520  -90.1230 N.3   183  VAL183     -0.1245
     35  CA        42.9450   22.5290  -88.9680 C.3   183  VAL183      0.1561
     36  C         43.6510   23.9110  -88.7700 C.2   183  VAL183      0.2260
     37  O         44.8290   23.9740  -88.4440 O.2   183  VAL183     -0.2867
     38  CB        43.8870   21.2870  -88.9370 C.3   183  VAL183      0.0252
     39  CG1       43.0840   20.0270  -89.2370 C.3   183  VAL183      0.0019
     40  CG2       44.9840   21.3310  -89.9720 C.3   183  VAL183      0.0019
     41  N         39.3970   17.7450  -87.2620 N.3   210  LEU210     -0.1245
     42  CA        39.9310   16.8260  -86.2560 C.3   210  LEU210      0.1561
     43  C         38.7530   16.1720  -85.4920 C.2   210  LEU210      0.2260
     44  O         37.6590   16.7360  -85.3980 O.2   210  LEU210     -0.2867
     45  CB        40.8480   17.5280  -85.2460 C.3   210  LEU210      0.0270
     46  CG        42.1480   18.1870  -85.7410 C.3   210  LEU210      0.0019
     47  CD1       42.9540   18.7420  -84.5960 C.3   210  LEU210      0.0001
     48  CD2       43.0240   17.2480  -86.5240 C.3   210  LEU210      0.0001
     49  N         44.3890   18.2130  -81.0420 N.3   214  ASN214     -0.1226
     50  CA        45.5610   18.1920  -81.9490 C.3   214  ASN214      0.1770
     51  C         46.6690   17.3240  -81.3260 C.2   214  ASN214      0.2439
     52  O         47.0680   17.5880  -80.1700 O.2   214  ASN214     -0.2733
     53  CB        46.0240   19.6470  -82.1500 C.3   214  ASN214      0.1168
     54  CG        47.1160   19.7990  -83.2090 C.2   214  ASN214      0.2627
     55  OD1       47.1320   20.8060  -83.9260 O.2   214  ASN214     -0.2716
     56  ND2       47.9650   18.8450  -83.3630 N.am  214  ASN214     -0.0877
     57  N         47.1480   16.2770  -82.0340 N.am  215  PRO215     -0.2718
     58  CA        48.1350   15.4650  -81.3160 C.3   215  PRO215      0.1535
     59  C         49.4910   16.1490  -81.0670 C.2   215  PRO215      0.2598
     60  O         50.3240   15.6100  -80.3810 O.2   215  PRO215     -0.2715
     61  CB        48.3600   14.2600  -82.2560 C.3   215  PRO215      0.0310
     62  CG        48.0000   14.7760  -83.6420 C.3   215  PRO215      0.0237
     63  CD        46.9040   15.7750  -83.4180 C.3   215  PRO215      0.0939
     64  N         49.7340   17.3150  -81.6480 N.am  216  GLU216     -0.1978
     65  CA        51.0100   17.9540  -81.5360 C.3   216  GLU216      0.1602
     66  C         50.9780   19.0300  -80.4660 C.2   216  GLU216      0.2287
     67  O         51.9530   19.7090  -80.2390 O.2   216  GLU216     -0.2864
     68  CB        51.3940   18.5680  -82.8920 C.3   216  GLU216      0.0415
     69  CG        51.9640   17.5740  -83.8930 C.3   216  GLU216      0.1163
     70  CD        52.3860   18.2490  -85.2030 C.2   216  GLU216      0.3649
     71  OE1       53.5720   18.6070  -85.3350 O.co2 216  GLU216     -0.2457
     72  OE2       51.5150   18.4010  -86.0920 O.co2 216  GLU216     -0.2457
     73  N         50.5780    9.2300  -92.5280 N.3   297  THR297     -0.1203
     74  CA        49.1860    9.4060  -92.1390 C.3   297  THR297      0.1994
     75  C         49.0640   10.6190  -91.2940 C.2   297  THR297      0.2618
     76  O         48.7640   11.6210  -91.8340 O.2   297  THR297     -0.2717
     77  CB        48.6470    8.1740  -91.4180 C.3   297  THR297      0.1784
     78  OG1       48.6210    7.1120  -92.3330 O.3   297  THR297     -0.2211
     79  CG2       47.2240    8.3790  -90.9230 C.3   297  THR297      0.0376
     80  N         49.2320   10.5670  -89.9680 N.am  298  SER298     -0.1951
     81  CA        49.2650   11.7850  -89.1540 C.3   298  SER298      0.1924
     82  C         50.5540   12.6430  -89.3600 C.2   298  SER298      0.2314
     83  O         50.5430   13.8280  -89.0790 O.2   298  SER298     -0.2863
     84  CB        49.2150   11.4860  -87.6950 C.3   298  SER298      0.2116
     85  OG        50.3190   10.7110  -87.3150 O.3   298  SER298     -0.2180
@<TRIPOS>BOND
     1    33    31    1
     2    28    29    1
     3    28    31    1
     4    28    27    1
     5    29    30    2
     6    32    31    1
     7    12    18    2
     8    12    13    1
     9    73    74    1
    10    18    17    1
    11    13    16    1
    12    13    14    1
    13    78    77    1
    14    74    77    1
    15    74    75    1
    16    17    16    2
    17    76    75    2
    18    77    79    1
    19    15    14    2
    20    75    80   am
    21    14    19   am
    22    19    20    1
    23    34    35    1
    24    40    38    1
    25    80    81    1
    26    10     9    1
    27    21    20    1
    28    21    22    2
    29    11     9    1
    30    82    81    1
    31    82    83    2
    32    39    38    1
    33    81    84    1
    34    20    23    1
    35     9     8    2
    36    35    38    1
    37    35    36    1
    38    36    37    2
    39    23    24    1
    40     8     7    1
    41    84    85    1
    42    41    42    1
    43     7     6    1
    44    25    24   ar
    45    24    26   ar
    46     6     5    1
    47    48    46    1
    48     3     4    2
    49     3     2    1
    50     5     2    1
    51    42    43    1
    52    42    45    1
    53    72    70   ar
    54    46    45    1
    55    46    47    1
    56     2     1    1
    57    43    44    2
    58    71    70   ar
    59    70    69    1
    60    55    54    2
    61    69    68    1
    62    62    63    1
    63    62    61    1
    64    63    57    1
    65    56    54   am
    66    54    53    1
    67    68    65    1
    68    61    58    1
    69    53    50    1
    70    57    51   am
    71    57    58    1
    72    50    51    1
    73    50    49    1
    74    64    65    1
    75    64    59   am
    76    65    66    1
    77    51    52    2
    78    58    59    1
    79    59    60    2
    80    66    67    2
