@<TRIPOS>MOLECULE
tmp/3wxoA01.pdb
 112 110 0 0 0
SMALL
GASTEIGER

@<TRIPOS>ATOM
      1  N         48.1710   -3.7190 -102.1260 N.3    67  TRP67      -0.1227
      2  CA        47.9720   -2.2840 -102.2680 C.3    67  TRP67       0.1737
      3  C         47.8790   -1.4760 -100.9910 C.2    67  TRP67       0.2595
      4  O         47.8990   -0.2370 -101.0520 O.2    67  TRP67      -0.2718
      5  CB        46.7280   -2.0020 -103.1270 C.3    67  TRP67       0.0564
      6  CG        45.4700   -2.6060 -102.6260 C.ar   67  TRP67       0.0003
      7  CD1       45.0230   -3.8500 -102.8980 C.ar   67  TRP67       0.0946
      8  CD2       44.5080   -2.0100 -101.7530 C.ar   67  TRP67       0.0152
      9  NE1       43.8560   -4.0880 -102.2460 N.ar   67  TRP67      -0.2442
     10  CE2       43.5250   -2.9790 -101.5130 C.ar   67  TRP67       0.0810
     11  CE3       44.4050   -0.7740 -101.1210 C.ar   67  TRP67       0.0012
     12  CZ2       42.4170   -2.7420 -100.7190 C.ar   67  TRP67       0.0191
     13  CZ3       43.2560   -0.5240 -100.3290 C.ar   67  TRP67       0.0001
     14  CH2       42.3200   -1.5220 -100.1120 C.ar   67  TRP67       0.0015
     15  N         47.6950   -2.0890  -99.8260 N.am   68  TRP68      -0.1976
     16  CA        47.8860   -1.3070  -98.5560 C.3    68  TRP68       0.1640
     17  C         48.2260   -2.3260  -97.4780 C.2    68  TRP68       0.2290
     18  O         47.3510   -2.8010  -96.7490 O.2    68  TRP68      -0.2864
     19  CB        46.6670   -0.4670  -98.2060 C.3    68  TRP68       0.0576
     20  CG        46.9190    0.4280  -97.1200 C.ar   68  TRP68       0.0006
     21  CD1       46.6530    0.2010  -95.8280 C.ar   68  TRP68       0.0946
     22  CD2       47.5930    1.6850  -97.1780 C.ar   68  TRP68       0.0152
     23  NE1       47.0700    1.2480  -95.0430 N.ar   68  TRP68      -0.2442
     24  CE2       47.6480    2.1860  -95.8620 C.ar   68  TRP68       0.0810
     25  CE3       48.1050    2.4590  -98.2170 C.ar   68  TRP68       0.0012
     26  CZ2       48.1950    3.4100  -95.5550 C.ar   68  TRP68       0.0191
     27  CZ3       48.6780    3.6950  -97.9090 C.ar   68  TRP68       0.0001
     28  CH2       48.7330    4.1520  -96.6010 C.ar   68  TRP68       0.0015
     29  N         43.8440    8.1090  -94.6580 N.3   117  ASN117     -0.1240
     30  CA        44.0720    6.6910  -94.9310 C.3   117  ASN117      0.1653
     31  C         43.0260    5.7020  -94.3490 C.2   117  ASN117      0.2266
     32  O         43.1410    4.5280  -94.5660 O.2   117  ASN117     -0.2867
     33  CB        45.4480    6.2770  -94.5540 C.3   117  ASN117      0.1155
     34  CG        46.5110    6.8870  -95.4800 C.2   117  ASN117      0.2627
     35  OD1       46.2960    6.9970  -96.6740 O.2   117  ASN117     -0.2716
     36  ND2       47.6650    7.2030  -94.9240 N.am  117  ASN117     -0.0877
     37  N         41.5020    3.5900  -96.9810 N.3   120  LYS120     -0.1245
     38  CA        42.0310    2.2380  -97.2560 C.3   120  LYS120      0.1561
     39  C         41.3850    1.1800  -96.3000 C.2   120  LYS120      0.2260
     40  O         40.9850    0.0530  -96.6930 O.2   120  LYS120     -0.2867
     41  CB        43.5550    2.1740  -97.0880 C.3   120  LYS120      0.0271
     42  CG        44.3500    3.4060  -97.5160 C.3   120  LYS120      0.0035
     43  CD        44.1550    3.6720  -98.9850 C.3   120  LYS120      0.0206
     44  CE        45.0520    4.8130  -99.3550 C.3   120  LYS120      0.1093
     45  NZ        44.8350    6.1750  -98.8370 N.3   120  LYS120     -0.1314
     46  N         51.5450   13.7530 -100.5280 N.3   267  LEU267     -0.1245
     47  CA        50.2820   12.9800 -100.5900 C.3   267  LEU267      0.1561
     48  C         49.3210   13.7130 -101.5030 C.2   267  LEU267      0.2260
     49  O         49.1690   14.9050 -101.4180 O.2   267  LEU267     -0.2867
     50  CB        49.6330   12.7680  -99.2290 C.3   267  LEU267      0.0270
     51  CG        50.4640   12.0720  -98.1440 C.3   267  LEU267      0.0019
     52  CD1       49.7120   12.0250  -96.8320 C.3   267  LEU267      0.0001
     53  CD2       50.8340   10.7000  -98.5800 C.3   267  LEU267      0.0001
     54  N         39.8570    5.7960 -107.5370 N.3   279  GLN279     -0.1245
     55  CA        38.9550    4.7250 -107.0030 C.3   279  GLN279      0.1566
     56  C         38.2590    5.0860 -105.7080 C.2   279  GLN279      0.2260
     57  O         37.9100    4.2190 -104.8940 O.2   279  GLN279     -0.2867
     58  CB        39.7960    3.4660 -106.7840 C.3   279  GLN279      0.0367
     59  CG        40.4660    2.9600 -108.0070 C.3   279  GLN279      0.0905
     60  CD        41.2120    1.6400 -107.8270 C.2   279  GLN279      0.2608
     61  OE1       42.1900    1.5250 -107.0530 O.2   279  GLN279     -0.2717
     62  NE2       40.7620    0.6310 -108.5620 N.am  279  GLN279     -0.0878
     63  N         39.4790    6.5960 -103.3840 N.3   281  LEU281     -0.1245
     64  CA        40.5000    6.7360 -102.3480 C.3   281  LEU281      0.1561
     65  C         41.1820    8.1260 -102.3700 C.2   281  LEU281      0.2260
     66  O         40.8670    9.0000 -103.1800 O.2   281  LEU281     -0.2867
     67  CB        41.5370    5.6470 -102.4790 C.3   281  LEU281      0.0270
     68  CG        41.0450    4.2110 -102.5370 C.3   281  LEU281      0.0019
     69  CD1       42.1690    3.2160 -102.7590 C.3   281  LEU281      0.0001
     70  CD2       40.2760    3.7910 -101.2500 C.3   281  LEU281      0.0001
     71  N         44.7520   10.7320 -100.6470 N.3   283  TRP283     -0.1227
     72  CA        46.0420   10.8540 -100.0490 C.3   283  TRP283      0.1737
     73  C         47.0520    9.9280 -100.7020 C.2   283  TRP283      0.2595
     74  O         48.0130    9.5210 -100.0860 O.2   283  TRP283     -0.2718
     75  CB        45.9760   10.5850  -98.5700 C.3   283  TRP283      0.0564
     76  CG        45.0440   11.5300  -97.8610 C.ar  283  TRP283      0.0003
     77  CD1       45.2570   12.8380  -97.5900 C.ar  283  TRP283      0.0946
     78  CD2       43.7520   11.2110  -97.3120 C.ar  283  TRP283      0.0152
     79  NE1       44.1870   13.3520  -96.9280 N.ar  283  TRP283     -0.2442
     80  CE2       43.2490   12.3680  -96.7430 C.ar  283  TRP283      0.0810
     81  CE3       42.9510   10.0480  -97.3150 C.ar  283  TRP283      0.0012
     82  CZ2       42.0300   12.3930  -96.0770 C.ar  283  TRP283      0.0191
     83  CZ3       41.7500   10.0600  -96.6910 C.ar  283  TRP283      0.0001
     84  CH2       41.2710   11.2280  -96.0740 C.ar  283  TRP283      0.0015
     85  N         46.8470    9.6260 -101.9450 N.am  284  ILE284     -0.1966
     86  CA        47.7130    8.6220 -102.6290 C.3   284  ILE284      0.1727
     87  C         49.0510    9.2450 -102.9260 C.2   284  ILE284      0.2616
     88  O         49.0930   10.3310 -103.4560 O.2   284  ILE284     -0.2715
     89  CB        47.1930    8.2010 -104.0130 C.3   284  ILE284      0.0290
     90  CG1       45.7820    7.6110 -104.0170 C.3   284  ILE284      0.0022
     91  CG2       48.1620    7.1790 -104.6260 C.3   284  ILE284      0.0023
     92  CD1       45.5980    6.6730 -102.9270 C.3   284  ILE284      0.0001
     93  N         50.1440    8.5560 -102.6460 N.am  285  ASN285     -0.1972
     94  CA        51.4670    9.0890 -102.9570 C.3   285  ASN285      0.1688
     95  C         51.8670    8.4920 -104.3100 C.2   285  ASN285      0.2292
     96  O         52.0580    7.3170 -104.4470 O.2   285  ASN285     -0.2864
     97  CB        52.4890    8.7440 -101.8620 C.3   285  ASN285      0.1181
     98  CG        53.8070    9.4850 -102.0360 C.2   285  ASN285      0.2629
     99  OD1       54.1740    9.8970 -103.1540 O.2   285  ASN285     -0.2716
    100  ND2       54.4920    9.7150 -100.9400 N.am  285  ASN285     -0.0877
    101  N         54.3230    5.1140 -100.9410 N.3   290  GLY290     -0.1210
    102  CA        53.4710    5.6990  -99.9110 C.3   290  GLY290      0.1956
    103  C         52.8500    4.6450  -99.0240 C.2   290  GLY290      0.2611
    104  O         51.8600    4.9370  -98.3980 O.2   290  GLY290     -0.2717
    105  N         53.4340    3.4550  -98.9630 N.am  291  ILE291     -0.1979
    106  CA        52.7720    2.3000  -98.3000 C.3   291  ILE291      0.1595
    107  C         53.7470    1.5540  -97.4420 C.2   291  ILE291      0.2287
    108  O         54.9590    1.7770  -97.5200 O.2   291  ILE291     -0.2864
    109  CB        52.1240    1.3070  -99.2920 C.3   291  ILE291      0.0276
    110  CG1       53.1980    0.6180 -100.1330 C.3   291  ILE291      0.0022
    111  CG2       51.1600    2.0210 -100.2360 C.3   291  ILE291      0.0022
    112  CD1       52.7150   -0.5700 -100.9300 C.3   291  ILE291      0.0001
@<TRIPOS>BOND
     1    62    60   am
     2    59    60    1
     3    59    58    1
     4    60    61    2
     5    54    55    1
     6    55    58    1
     7    55    56    1
     8    56    57    2
     9    91    89    1
    10    96    95    2
    11    95    94    1
    12    90    89    1
    13    90    92    1
    14    89    86    1
    15    88    87    2
    16    63    64    1
    17    66    65    2
    18    99    98    2
    19     5     6    1
    20     5     2    1
    21    94    93    1
    22    94    97    1
    23    87    93   am
    24    87    86    1
    25     7     6   ar
    26     7     9   ar
    27    69    68    1
    28    86    85    1
    29     6     8   ar
    30    68    67    1
    31    68    70    1
    32    67    64    1
    33    65    64    1
    34     2     1    1
    35     2     3    1
    36     9    10   ar
    37    98    97    1
    38    98   100   am
    39    85    73   am
    40     8    10   ar
    41     8    11   ar
    42    10    12   ar
    43    48    49    2
    44    48    47    1
    45    11    13   ar
    46     4     3    2
    47     3    15   am
    48   101   102    1
    49   112   110    1
    50    12    14   ar
    51    73    74    2
    52    73    72    1
    53    71    72    1
    54    47    46    1
    55    47    50    1
    56    13    14   ar
    57   111   109    1
    58   110   109    1
    59    72    75    1
    60   102   103    1
    61    15    16    1
    62    44    43    1
    63    44    45    1
    64   109   106    1
    65    50    51    1
    66   103   105   am
    67   103   104    2
    68    43    42    1
    69   105   106    1
    70    53    51    1
    71    75    76    1
    72    16    19    1
    73    16    17    1
    74   106   107    1
    75    25    27   ar
    76    25    22   ar
    77    19    20    1
    78    51    52    1
    79    27    28   ar
    80    76    77   ar
    81    76    78   ar
    82    77    79   ar
    83   108   107    2
    84    42    41    1
    85    17    18    2
    86    81    78   ar
    87    81    83   ar
    88    78    80   ar
    89    38    41    1
    90    38    37    1
    91    38    39    1
    92    22    20   ar
    93    22    24   ar
    94    20    21   ar
    95    79    80   ar
    96    80    82   ar
    97    40    39    2
    98    83    84   ar
    99    35    34    2
   100    28    26   ar
   101    82    84   ar
   102    24    26   ar
   103    24    23   ar
   104    21    23   ar
   105    34    36   am
   106    34    33    1
   107    30    29    1
   108    30    33    1
   109    30    31    1
   110    32    31    2
