@<TRIPOS>MOLECULE
tmp/3wxpA04.pdb
 145 144 0 0 0
SMALL
GASTEIGER

@<TRIPOS>ATOM
      1  N         28.9440   18.3470    1.0800 N.3    35  TRP35      -0.1241
      2  CA        28.0510   17.2760    0.6070 C.3    35  TRP35       0.1605
      3  C         27.1300   17.6930   -0.5440 C.2    35  TRP35       0.2264
      4  O         26.6420   16.8370   -1.3050 O.2    35  TRP35      -0.2867
      5  CB        27.2820   16.6700    1.7560 C.3    35  TRP35       0.0550
      6  CG        26.3430   17.6110    2.5210 C.ar   35  TRP35       0.0003
      7  CD1       26.6210   18.2590    3.6810 C.ar   35  TRP35       0.0946
      8  CD2       24.9770   17.9980    2.1620 C.ar   35  TRP35       0.0152
      9  NE1       25.5420   19.0100    4.1200 N.ar   35  TRP35      -0.2442
     10  CE2       24.5030   18.8470    3.2130 C.ar   35  TRP35       0.0810
     11  CE3       24.1200   17.6580    1.1100 C.ar   35  TRP35       0.0012
     12  CZ2       23.1700   19.4020    3.2150 C.ar   35  TRP35       0.0191
     13  CZ3       22.8130   18.1920    1.1140 C.ar   35  TRP35       0.0001
     14  CH2       22.3700   19.0840    2.1490 C.ar   35  TRP35       0.0015
     15  N         18.0150   22.5930   -4.5380 N.3    70  SER70      -0.1202
     16  CA        16.9130   22.4790   -3.5730 C.3    70  SER70       0.2020
     17  C         17.3610   22.1230   -2.1450 C.2    70  SER70       0.2619
     18  O         16.6180   22.3040   -1.1770 O.2    70  SER70      -0.2717
     19  CB        15.7790   21.5800   -4.0860 C.3    70  SER70       0.2103
     20  OG        16.1010   20.2480   -3.8910 O.3    70  SER70      -0.2182
     21  N         18.6120   21.6430   -2.0010 N.am   71  ASN71      -0.1960
     22  CA        19.1600   21.3660   -0.6820 C.3    71  ASN71       0.1819
     23  C         19.7450   22.5970   -0.0110 C.2    71  ASN71       0.2621
     24  O         20.0620   22.5410    1.1690 O.2    71  ASN71      -0.2715
     25  CB        20.1620   20.2040   -0.7440 C.3    71  ASN71       0.1195
     26  CG        19.4170   18.8770   -1.0120 C.2    71  ASN71       0.2630
     27  OD1       18.2040   18.7440   -0.6850 O.2    71  ASN71      -0.2716
     28  ND2       20.0990   17.9070   -1.5730 N.am   71  ASN71      -0.0877
     29  N         19.8220   23.7090   -0.7830 N.am   72  TRP72      -0.1960
     30  CA        20.0920   25.0730   -0.3040 C.3    72  TRP72       0.1771
     31  C         21.5470   25.3130    0.1390 C.2    72  TRP72       0.2619
     32  O         22.2680   26.1110   -0.4990 O.2    72  TRP72      -0.2715
     33  CB        19.1650   25.4630    0.8740 C.3    72  TRP72       0.0590
     34  CG        19.1870   26.9680    1.0540 C.ar   72  TRP72       0.0006
     35  CD1       20.0970   27.7010    1.7830 C.ar   72  TRP72       0.0946
     36  CD2       18.2930   27.8920    0.4360 C.ar   72  TRP72       0.0152
     37  NE1       19.7980   29.0760    1.6570 N.ar   72  TRP72      -0.2442
     38  CE2       18.7230   29.2300    0.8060 C.ar   72  TRP72       0.0810
     39  CE3       17.2400   27.7220   -0.4930 C.ar   72  TRP72       0.0012
     40  CZ2       18.0720   30.4430    0.3560 C.ar   72  TRP72       0.0191
     41  CZ3       16.5850   28.8980   -0.9520 C.ar   72  TRP72       0.0001
     42  CH2       17.0290   30.2350   -0.6320 C.ar   72  TRP72       0.0015
     43  N         21.9640   24.6730    1.2330 N.am   73  VAL73      -0.1977
     44  CA        23.3550   24.8430    1.7370 C.3    73  VAL73       0.1596
     45  C         24.3090   24.0580    0.8850 C.2    73  VAL73       0.2287
     46  O         23.9180   23.1320    0.1430 O.2    73  VAL73      -0.2864
     47  CB        23.4330   24.4700    3.2300 C.3    73  VAL73       0.0276
     48  CG1       22.5280   25.3860    4.0660 C.3    73  VAL73       0.0022
     49  CG2       23.1610   22.9690    3.4640 C.3    73  VAL73       0.0022
     50  N         25.9430   28.8670    9.5290 N.3   125  ASN125     -0.1296
     51  CA        25.6030   28.6900   10.9550 C.3   125  ASN125      0.1339
     52  C         26.7500   27.9880   11.6730 C.3   125  ASN125      0.2014
     53  O         27.7730   27.5560   11.0130 O.3   125  ASN125     -0.2188
     54  CB        24.2720   27.9650   11.1320 C.3   125  ASN125      0.1102
     55  CG        24.2530   26.5680   10.5310 C.2   125  ASN125      0.2623
     56  OD1       25.2490   25.8710   10.5060 O.2   125  ASN125     -0.2716
     57  ND2       23.1090   26.1910   10.0020 N.am  125  ASN125     -0.0877
     58  N         18.9800   19.8560   15.2320 N.3   150  MET150     -0.1245
     59  CA        20.0670   20.8270   15.1010 C.3   150  MET150      0.1570
     60  C         19.9620   21.8990   16.1640 C.2   150  MET150      0.2261
     61  O         18.8650   22.3310   16.4760 O.2   150  MET150     -0.2867
     62  CB        20.0920   21.5390   13.7350 C.3   150  MET150      0.0387
     63  CG        20.1570   20.6120   12.5600 C.3   150  MET150      0.0595
     64  SD        20.5270   21.5270   11.0540 S.3   150  MET150     -0.1393
     65  CE        22.3410   21.5280   11.1240 C.3   150  MET150      0.0692
     66  N         21.5740   25.6170   16.6850 N.3   152  TRP152     -0.1241
     67  CA        22.3990   26.6580   16.0410 C.3   152  TRP152      0.1605
     68  C         22.7590   27.6500   17.1150 C.2   152  TRP152      0.2264
     69  O         21.8880   28.4010   17.6180 O.2   152  TRP152     -0.2867
     70  CB        21.6470   27.3850   14.9410 C.3   152  TRP152      0.0550
     71  CG        21.1500   26.5520   13.8130 C.ar  152  TRP152      0.0003
     72  CD1       21.0560   25.1450   13.6920 C.ar  152  TRP152      0.0946
     73  CD2       20.7080   27.0760   12.5860 C.ar  152  TRP152      0.0152
     74  NE1       20.5350   24.8210   12.4230 N.ar  152  TRP152     -0.2442
     75  CE2       20.3060   25.9890   11.7310 C.ar  152  TRP152      0.0810
     76  CE3       20.5400   28.4290   12.1280 C.ar  152  TRP152      0.0012
     77  CZ2       19.8140   26.1930   10.4140 C.ar  152  TRP152      0.0191
     78  CZ3       20.0880   28.6320   10.8280 C.ar  152  TRP152      0.0001
     79  CH2       19.7380   27.5110    9.9690 C.ar  152  TRP152      0.0015
     80  N         22.3760   34.8650    8.0430 N.3   157  GLY157     -0.1210
     81  CA        21.9600   34.7130    6.6460 C.3   157  GLY157      0.1956
     82  C         21.3280   33.3660    6.2800 C.2   157  GLY157      0.2612
     83  O         21.1010   33.1430    5.1040 O.2   157  GLY157     -0.2717
     84  N         21.0420   32.5180    7.2800 N.am  158  LEU158     -0.1965
     85  CA        20.3740   31.2240    7.0640 C.3   158  LEU158      0.1728
     86  C         19.2130   31.1780    8.0530 C.2   158  LEU158      0.2616
     87  O         19.3280   31.6630    9.1880 O.2   158  LEU158     -0.2715
     88  CB        21.2890   30.0120    7.3800 C.3   158  LEU158      0.0311
     89  CG        22.4170   29.8240    6.3690 C.3   158  LEU158      0.0022
     90  CD1       23.2430   28.6120    6.8760 C.3   158  LEU158      0.0001
     91  CD2       21.9190   29.5320    4.9790 C.3   158  LEU158      0.0001
     92  N         18.1020   30.5710    7.6080 N.am  159  GLN159     -0.1964
     93  CA        17.0500   30.2340    8.5280 C.3   159  GLN159      0.1718
     94  C         16.8790   28.6990    8.4740 C.2   159  GLN159      0.2458
     95  O         17.2270   28.0760    7.4370 O.2   159  GLN159     -0.2730
     96  CB        15.8000   31.0070    8.3550 C.3   159  GLN159      0.0407
     97  CG        14.8470   30.4570    7.4730 C.3   159  GLN159      0.0908
     98  CD        13.5290   31.2550    7.4000 C.2   159  GLN159      0.2608
     99  OE1       13.3590   32.4170    7.8370 O.2   159  GLN159     -0.2717
    100  NE2       12.5720   30.5860    6.8900 N.am  159  GLN159     -0.0878
    101  N         16.3850   28.0910    9.5860 N.am  160  PRO160     -0.2716
    102  CA        16.1820   26.6430    9.5230 C.3   160  PRO160      0.1536
    103  C         15.1490   26.2260    8.4870 C.2   160  PRO160      0.2598
    104  O         14.3160   27.0510    8.0790 O.2   160  PRO160     -0.2715
    105  CB        15.7610   26.2770   10.9520 C.3   160  PRO160      0.0310
    106  CG        16.2110   27.4460   11.8230 C.3   160  PRO160      0.0237
    107  CD        16.0610   28.6240   10.9200 C.3   160  PRO160      0.0939
    108  N         15.1930   24.9590    8.0960 N.am  161  ALA161     -0.1964
    109  CA        14.1460   24.3970    7.2310 C.3   161  ALA161      0.1728
    110  C         12.7790   24.4030    7.9400 C.2   161  ALA161      0.2616
    111  O         12.6750   24.3700    9.1590 O.2   161  ALA161     -0.2715
    112  CB        14.5320   22.9770    6.7990 C.3   161  ALA161      0.0334
    113  N         11.7410   24.4500    7.0960 N.am  162  GLY162     -0.1955
    114  CA        10.3970   24.3020    7.6280 C.3   162  GLY162      0.1869
    115  C          9.7190   25.5630    8.1770 C.2   162  GLY162      0.2309
    116  O          9.8230   26.6320    7.5990 O.2   162  GLY162     -0.2863
    117  N         11.8570   16.7070    5.6170 N.3   190  ILE190     -0.1245
    118  CA        12.6510   16.8690    4.4380 C.3   190  ILE190      0.1561
    119  C         13.2390   15.5120    4.0480 C.2   190  ILE190      0.2260
    120  O         14.4140   15.4380    3.5490 O.2   190  ILE190     -0.2867
    121  CB        13.7720   17.9430    4.6590 C.3   190  ILE190      0.0252
    122  CG1       14.5770   17.6650    5.9370 C.3   190  ILE190      0.0019
    123  CG2       13.0720   19.3130    4.7790 C.3   190  ILE190      0.0019
    124  CD1       15.8440   18.5560    6.0050 C.3   190  ILE190      0.0001
    125  N         12.8290   17.0080   10.9830 N.3   194  TYR194     -0.1241
    126  CA        13.9340   17.9050   11.2510 C.3   194  TYR194      0.1605
    127  C         13.4310   18.8730   12.3090 C.2   194  TYR194      0.2264
    128  O         12.3620   19.5150   12.1340 O.2   194  TYR194     -0.2867
    129  CB        14.2690   18.6340    9.9720 C.3   194  TYR194      0.0534
    130  CG        15.1520   19.8590   10.0310 C.ar  194  TYR194     -0.0201
    131  CD1       14.6260   21.1240   10.3970 C.ar  194  TYR194     -0.0009
    132  CD2       16.4920   19.8040    9.5350 C.ar  194  TYR194     -0.0009
    133  CE1       15.4320   22.2910   10.3420 C.ar  194  TYR194      0.0417
    134  CE2       17.2940   20.9380    9.4510 C.ar  194  TYR194      0.0417
    135  CZ        16.7480   22.1890    9.7920 C.ar  194  TYR194      0.1957
    136  OH        17.4490   23.3690    9.6850 O.3   194  TYR194     -0.2866
    137  N         27.1890   24.7710    8.6430 N.3   241  GLU241     -0.1245
    138  CA        26.5680   24.7700    7.3220 C.3   241  GLU241      0.1567
    139  C         26.8700   26.1460    6.6720 C.2   241  GLU241      0.2260
    140  O         26.9670   27.1620    7.4020 O.2   241  GLU241     -0.2867
    141  CB        25.0210   24.6120    7.4030 C.3   241  GLU241      0.0388
    142  CG        24.6170   23.2720    8.0160 C.3   241  GLU241      0.1160
    143  CD        23.0970   23.0610    7.8700 C.2   241  GLU241      0.3649
    144  OE1       22.3430   23.7780    8.6000 O.co2 241  GLU241     -0.2457
    145  OE2       22.7080   22.2390    7.0390 O.co2 241  GLU241     -0.2457
@<TRIPOS>BOND
     1    15    16    1
     2    19    20    1
     3    19    16    1
     4    16    17    1
     5    17    21   am
     6    17    18    2
     7    21    22    1
     8    28    26   am
     9     4     3    2
    10    26    25    1
    11    26    27    2
    12    41    42   ar
    13    41    39   ar
    14    29    30    1
    15    29    23   am
    16    25    22    1
    17    22    23    1
    18    42    40   ar
    19     3     2    1
    20    32    31    2
    21    39    36   ar
    22    30    31    1
    23    30    33    1
    24    23    24    2
    25    31    43   am
    26    46    45    2
    27    40    38   ar
    28    36    38   ar
    29    36    34   ar
    30     2     1    1
    31     2     5    1
    32    38    37   ar
    33    33    34    1
    34    45    44    1
    35    34    35   ar
    36    11    13   ar
    37    11     8   ar
    38    13    14   ar
    39    43    44    1
    40    37    35   ar
    41    44    47    1
    42     5     6    1
    43    14    12   ar
    44     8     6   ar
    45     8    10   ar
    46     6     7   ar
    47    10    12   ar
    48    10     9   ar
    49    47    49    1
    50    47    48    1
    51   120   119    2
    52     7     9   ar
    53   119   118    1
    54   118   121    1
    55   118   117    1
    56   121   123    1
    57   121   122    1
    58    91    89    1
    59    83    82    2
    60   122   124    1
    61    82    81    1
    62    82    84   am
    63    89    90    1
    64    89    88    1
    65    81    80    1
    66   139   138    1
    67   139   140    2
    68   112   109    1
    69   100    98   am
    70   145   143   ar
    71    85    84    1
    72    85    88    1
    73    85    86    1
    74   113   114    1
    75   113   110   am
    76   109   110    1
    77   109   108    1
    78   138   141    1
    79   138   137    1
    80    98    97    1
    81    98    99    2
    82   141   142    1
    83    95    94    2
    84    97    96    1
    85   116   115    2
    86    92    86   am
    87    92    93    1
    88   114   115    1
    89   143   142    1
    90   143   144   ar
    91   110   111    2
    92    86    87    2
    93   104   103    2
    94   108   103   am
    95    96    93    1
    96    94    93    1
    97    94   101   am
    98   103   102    1
    99   134   132   ar
   100   134   135   ar
   101   102   101    1
   102   102   105    1
   103    50    51    1
   104   132   130   ar
   105   101   107    1
   106   136   135    1
   107   135   133   ar
   108    79    77   ar
   109    79    78   ar
   110   129   130    1
   111   129   126    1
   112    57    55   am
   113   130   131   ar
   114   133   131   ar
   115    77    75   ar
   116    56    55    2
   117    55    54    1
   118    78    76   ar
   119   107   106    1
   120   105   106    1
   121    51    54    1
   122    51    52    1
   123   125   126    1
   124    53    52    1
   125    64    65    1
   126    64    63    1
   127   126   127    1
   128    75    74   ar
   129    75    73   ar
   130    76    73   ar
   131   128   127    2
   132    74    72   ar
   133    63    62    1
   134    73    71   ar
   135    72    71   ar
   136    62    59    1
   137    71    70    1
   138    70    67    1
   139    59    58    1
   140    59    60    1
   141    67    66    1
   142    67    68    1
   143    60    61    2
   144    68    69    2
