@<TRIPOS>MOLECULE
tmp/3wxpA03.pdb
 154 152 0 0 0
SMALL
GASTEIGER

@<TRIPOS>ATOM
      1  N         35.4720   13.6280   -0.7010 N.3    13  TRP13      -0.1241
      2  CA        34.9240   13.3910    0.6300 C.3    13  TRP13       0.1605
      3  C         36.0360   13.1730    1.6760 C.2    13  TRP13       0.2264
      4  O         36.0660   12.1740    2.4100 O.2    13  TRP13      -0.2867
      5  CB        34.0100   12.1480    0.5940 C.3    13  TRP13       0.0550
      6  CG        32.8770   12.2940   -0.3640 C.ar   13  TRP13       0.0003
      7  CD1       32.8770   11.9380   -1.6780 C.ar   13  TRP13       0.0946
      8  CD2       31.6350   12.9500   -0.1150 C.ar   13  TRP13       0.0152
      9  NE1       31.6840   12.2900   -2.2630 N.ar   13  TRP13      -0.2442
     10  CE2       30.9120   12.9180   -1.3150 C.ar   13  TRP13       0.0810
     11  CE3       31.0480   13.5180    1.0280 C.ar   13  TRP13       0.0012
     12  CZ2       29.5490   13.3560   -1.4000 C.ar   13  TRP13       0.0191
     13  CZ3       29.7070   14.0000    0.9570 C.ar   13  TRP13       0.0001
     14  CH2       28.9700   13.9390   -0.2770 C.ar   13  TRP13       0.0015
     15  N         35.3510   15.6410    9.1130 N.3    31  GLU31      -0.1245
     16  CA        35.0250   15.5450    7.6920 C.3    31  GLU31       0.1567
     17  C         34.8930   16.9640    7.1030 C.2    31  GLU31       0.2260
     18  O         34.1980   17.8160    7.6810 O.2    31  GLU31      -0.2867
     19  CB        33.6740   14.8330    7.4390 C.3    31  GLU31       0.0388
     20  CG        33.6750   13.3290    7.8640 C.3    31  GLU31       0.1160
     21  CD        32.2830   12.7050    7.6740 C.2    31  GLU31       0.3649
     22  OE1       31.4110   13.3130    7.0010 O.co2  31  GLU31      -0.2457
     23  OE2       32.0960   11.5650    8.1830 O.co2  31  GLU31      -0.2457
     24  N         33.2160   17.3810    4.2730 N.3    33  ASN33      -0.1240
     25  CA        31.7690   17.1610    4.1190 C.3    33  ASN33       0.1653
     26  C         31.1400   18.3150    3.2740 C.2    33  ASN33       0.2266
     27  O         30.0670   18.9080    3.6500 O.2    33  ASN33      -0.2867
     28  CB        31.0780   17.0750    5.4860 C.3    33  ASN33       0.1155
     29  CG        29.6580   16.5890    5.3800 C.2    33  ASN33       0.2627
     30  OD1       29.3440   15.7710    4.4770 O.2    33  ASN33      -0.2716
     31  ND2       28.8340   17.0210    6.3150 N.am   33  ASN33      -0.0877
     32  N         28.9440   18.3470    1.0800 N.3    35  TRP35      -0.1241
     33  CA        28.0510   17.2760    0.6070 C.3    35  TRP35       0.1605
     34  C         27.1300   17.6930   -0.5440 C.2    35  TRP35       0.2264
     35  O         26.6420   16.8370   -1.3050 O.2    35  TRP35      -0.2867
     36  CB        27.2820   16.6700    1.7560 C.3    35  TRP35       0.0550
     37  CG        26.3430   17.6110    2.5210 C.ar   35  TRP35       0.0003
     38  CD1       26.6210   18.2590    3.6810 C.ar   35  TRP35       0.0946
     39  CD2       24.9770   17.9980    2.1620 C.ar   35  TRP35       0.0152
     40  NE1       25.5420   19.0100    4.1200 N.ar   35  TRP35      -0.2442
     41  CE2       24.5030   18.8470    3.2130 C.ar   35  TRP35       0.0810
     42  CE3       24.1200   17.6580    1.1100 C.ar   35  TRP35       0.0012
     43  CZ2       23.1700   19.4020    3.2150 C.ar   35  TRP35       0.0191
     44  CZ3       22.8130   18.1920    1.1140 C.ar   35  TRP35       0.0001
     45  CH2       22.3700   19.0840    2.1490 C.ar   35  TRP35       0.0015
     46  N         25.2330   20.2780   -6.1470 N.3    67  ARG67      -0.1245
     47  CA        24.6820   18.9880   -6.5860 C.3    67  ARG67       0.1563
     48  C         23.1610   19.0760   -6.7710 C.2    67  ARG67       0.2260
     49  O         22.6130   18.4830   -7.7030 O.2    67  ARG67      -0.2867
     50  CB        25.0120   17.8810   -5.5820 C.3    67  ARG67       0.0307
     51  CG        26.5460   17.5750   -5.4680 C.3    67  ARG67       0.0489
     52  CD        26.8160   16.3890   -4.5430 C.3    67  ARG67       0.2205
     53  NE        28.2400   16.1930   -4.2510 N.pl3  67  ARG67      -0.0865
     54  CZ        29.1330   15.6430   -5.0720 C.cat  67  ARG67       0.5346
     55  NH1       28.7650   15.2150   -6.2510 N.pl3  67  ARG67       0.1354
     56  NH2       30.4130   15.5740   -4.7100 N.pl3  67  ARG67       0.1354
     57  N         28.7570   20.9700    5.2000 N.3    76  TYR76      -0.1241
     58  CA        28.7760   21.0420    6.6370 C.3    76  TYR76       0.1605
     59  C         30.1170   20.4870    7.1320 C.2    76  TYR76       0.2264
     60  O         30.1600   19.3950    7.7310 O.2    76  TYR76      -0.2867
     61  CB        27.5830   20.2580    7.1950 C.3    76  TYR76       0.0534
     62  CG        27.4200   20.1380    8.6810 C.ar   76  TYR76      -0.0201
     63  CD1       27.3110   21.2730    9.4790 C.ar   76  TYR76      -0.0009
     64  CD2       27.3390   18.8620    9.3030 C.ar   76  TYR76      -0.0009
     65  CE1       27.0860   21.1920   10.8750 C.ar   76  TYR76       0.0417
     66  CE2       27.1010   18.7490   10.6750 C.ar   76  TYR76       0.0417
     67  CZ        26.9940   19.8970   11.4830 C.ar   76  TYR76       0.1957
     68  OH        26.7670   19.7510   12.8340 O.3    76  TYR76      -0.2866
     69  N         32.9370   19.6750    9.5630 N.3    78  GLU78      -0.1245
     70  CA        32.5260   19.3090   10.9120 C.3    78  GLU78       0.1567
     71  C         33.5070   18.3870   11.6300 C.2    78  GLU78       0.2260
     72  O         34.4000   17.7860   10.9840 O.2    78  GLU78      -0.2867
     73  CB        31.1630   18.5380   10.8300 C.3    78  GLU78       0.0388
     74  CG        31.3180   17.2250   10.0360 C.3    78  GLU78       0.1160
     75  CD        29.9940   16.4240   10.1140 C.2    78  GLU78       0.3649
     76  OE1       29.5620   16.1460   11.2850 O.co2  78  GLU78      -0.2457
     77  OE2       29.4740   16.0960    9.0480 O.co2  78  GLU78      -0.2457
     78  N         28.3950    8.5350   12.9520 N.3    84  LYS84      -0.1245
     79  CA        27.6620    9.3640   11.9730 C.3    84  LYS84       0.1561
     80  C         26.8770    8.3890   11.0360 C.2    84  LYS84       0.2260
     81  O         27.4600    7.4730   10.4590 O.2    84  LYS84      -0.2867
     82  CB        28.6020   10.2080   11.1530 C.3    84  LYS84       0.0271
     83  CG        27.8910   11.0080   10.0470 C.3    84  LYS84       0.0035
     84  CD        28.7290   12.1510    9.4500 C.3    84  LYS84       0.0206
     85  CE        27.9770   12.7330    8.2290 C.3    84  LYS84       0.1093
     86  NZ        28.8220   13.8120    7.5990 N.3    84  LYS84      -0.1314
     87  N         25.3040    8.5110    8.2000 N.3    86  TRP86      -0.1227
     88  CA        25.3830    8.6230    6.7480 C.3    86  TRP86       0.1737
     89  C         26.5120    7.8290    6.1150 C.2    86  TRP86       0.2595
     90  O         26.5870    7.7330    4.8840 O.2    86  TRP86      -0.2718
     91  CB        25.5240   10.1190    6.3750 C.3    86  TRP86       0.0564
     92  CG        24.2400   10.8380    6.6320 C.ar   86  TRP86       0.0003
     93  CD1       23.9250   11.6370    7.7400 C.ar   86  TRP86       0.0946
     94  CD2       23.0600   10.8060    5.7850 C.ar   86  TRP86       0.0152
     95  NE1       22.6210   12.1250    7.5810 N.ar   86  TRP86      -0.2442
     96  CE2       22.0870   11.6490    6.3980 C.ar   86  TRP86       0.0810
     97  CE3       22.7870   10.2330    4.5560 C.ar   86  TRP86       0.0012
     98  CZ2       20.7980   11.8850    5.7970 C.ar   86  TRP86       0.0191
     99  CZ3       21.5560   10.4130    3.9460 C.ar   86  TRP86       0.0001
    100  CH2       20.5370   11.2300    4.5970 C.ar   86  TRP86       0.0015
    101  N         27.4630    7.3630    6.9440 N.am   87  ASN87      -0.1974
    102  CA        28.6330    6.7030    6.3510 C.3    87  ASN87       0.1688
    103  C         29.2160    5.7680    7.4290 C.2    87  ASN87       0.2292
    104  O         28.6750    5.5790    8.4990 O.2    87  ASN87      -0.2864
    105  CB        29.6350    7.7800    5.8410 C.3    87  ASN87       0.1181
    106  CG        30.0790    8.6840    6.9680 C.2    87  ASN87       0.2629
    107  OD1       30.2510    8.2520    8.1150 O.2    87  ASN87      -0.2716
    108  ND2       30.2170   10.0070    6.6680 N.am   87  ASN87      -0.0877
    109  N         24.5760   18.9250   15.6550 N.3   129  GLU129     -0.1245
    110  CA        23.5150   18.1090   15.0950 C.3   129  GLU129      0.1567
    111  C         23.5670   16.6990   15.6650 C.2   129  GLU129      0.2260
    112  O         24.6890   16.1260   15.8190 O.2   129  GLU129     -0.2867
    113  CB        23.6410   18.0070   13.5390 C.3   129  GLU129      0.0388
    114  CG        22.6990   17.0260   12.9050 C.3   129  GLU129      0.1160
    115  CD        22.5020   17.3570   11.4590 C.2   129  GLU129      0.3649
    116  OE1       23.4170   17.2700   10.6630 O.co2 129  GLU129     -0.2457
    117  OE2       21.3140   17.7580   11.1330 O.co2 129  GLU129     -0.2457
    118  N         21.5250   12.7650   15.0240 N.3   131  TRP131     -0.1241
    119  CA        20.5770   11.9900   14.2700 C.3   131  TRP131      0.1605
    120  C         20.0380   10.8960   15.1790 C.2   131  TRP131      0.2264
    121  O         20.7840   10.2900   15.9290 O.2   131  TRP131     -0.2867
    122  CB        21.2420   11.3080   13.0440 C.3   131  TRP131      0.0550
    123  CG        21.7670   12.3260   12.0940 C.ar  131  TRP131      0.0003
    124  CD1       23.0860   12.8530   12.0580 C.ar  131  TRP131      0.0946
    125  CD2       21.0640   12.9420   11.0120 C.ar  131  TRP131      0.0152
    126  NE1       23.1700   13.7730   11.0300 N.ar  131  TRP131     -0.2442
    127  CE2       21.9660   13.8360   10.3610 C.ar  131  TRP131      0.0810
    128  CE3       19.7410   12.8140   10.5050 C.ar  131  TRP131      0.0012
    129  CZ2       21.6040   14.6190    9.2980 C.ar  131  TRP131      0.0191
    130  CZ3       19.3950   13.5840    9.3870 C.ar  131  TRP131      0.0001
    131  CH2       20.3040   14.4580    8.7780 C.ar  131  TRP131      0.0015
    132  N         13.0610   13.1470    6.4460 N.3   192  TRP192     -0.1241
    133  CA        13.1040   12.7420    7.8230 C.3   192  TRP192      0.1605
    134  C         12.5010   13.9400    8.5840 C.2   192  TRP192      0.2264
    135  O         12.3990   15.0630    8.0350 O.2   192  TRP192     -0.2867
    136  CB        14.5520   12.4260    8.3060 C.3   192  TRP192      0.0550
    137  CG        15.5280   13.4790    7.8700 C.ar  192  TRP192      0.0003
    138  CD1       15.8720   14.6310    8.5550 C.ar  192  TRP192      0.0946
    139  CD2       16.3220   13.4390    6.6870 C.ar  192  TRP192      0.0152
    140  NE1       16.7960   15.3300    7.8170 N.ar  192  TRP192     -0.2442
    141  CE2       17.0990   14.6280    6.6650 C.ar  192  TRP192      0.0810
    142  CE3       16.4090   12.5330    5.6070 C.ar  192  TRP192      0.0012
    143  CZ2       17.9520   14.9260    5.6300 C.ar  192  TRP192      0.0191
    144  CZ3       17.2750   12.8400    4.5440 C.ar  192  TRP192      0.0001
    145  CH2       18.0550   14.0370    4.5910 C.ar  192  TRP192      0.0015
    146  N         27.3990   16.0280   16.3080 N.3   237  GLU237     -0.1245
    147  CA        28.2040   16.5950   15.2340 C.3   237  GLU237      0.1567
    148  C         28.2900   18.0870   15.4730 C.2   237  GLU237      0.2260
    149  O         27.3140   18.7190   15.8780 O.2   237  GLU237     -0.2867
    150  CB        27.6010   16.3700   13.8350 C.3   237  GLU237      0.0388
    151  CG        27.2380   14.8850   13.6620 C.3   237  GLU237      0.1160
    152  CD        26.8280   14.5670   12.2410 C.2   237  GLU237      0.3649
    153  OE1       27.2500   15.1890   11.2320 O.co2 237  GLU237     -0.2457
    154  OE2       26.0410   13.5490   12.0630 O.co2 237  GLU237     -0.2457
@<TRIPOS>BOND
     1    49    48    2
     2    48    47    1
     3    47    46    1
     4    47    50    1
     5    55    54    1
     6    50    51    1
     7    51    52    1
     8    54    56    1
     9    54    53    2
    10    52    53    1
    11     9     7   ar
    12     9    10   ar
    13     7     6   ar
    14    12    10   ar
    15    12    14   ar
    16    10     8   ar
    17    35    34    2
    18     1     2    1
    19    34    33    1
    20     6     8   ar
    21     6     5    1
    22    14    13   ar
    23     8    11   ar
    24     5     2    1
    25    33    32    1
    26    33    36    1
    27     2     3    1
    28    13    11   ar
    29    42    44   ar
    30    42    39   ar
    31    44    45   ar
    32     3     4    2
    33    36    37    1
    34    45    43   ar
    35    39    37   ar
    36    39    41   ar
    37    37    38   ar
    38    41    43   ar
    39    41    40   ar
    40    26    27    2
    41    26    25    1
    42    38    40   ar
    43    99    97   ar
    44    99   100   ar
    45    25    24    1
    46    25    28    1
    47    30    29    2
    48   144   145   ar
    49   144   142   ar
    50    97    94   ar
    51   145   143   ar
    52   100    98   ar
    53    90    89    2
    54    57    58    1
    55    29    28    1
    56    29    31   am
    57   142   139   ar
    58   143   141   ar
    59    94    96   ar
    60    94    92   ar
    61    98    96   ar
    62   105   102    1
    63   105   106    1
    64    89    88    1
    65    89   101   am
    66   102   101    1
    67   102   103    1
    68    91    92    1
    69    91    88    1
    70    96    95   ar
    71   132   133    1
    72    92    93   ar
    73    58    59    1
    74    58    61    1
    75   141   139   ar
    76   141   140   ar
    77   108   106   am
    78   139   137   ar
    79    88    87    1
    80   106   107    2
    81    22    21   ar
    82    17    18    2
    83    17    16    1
    84    59    60    2
    85    61    62    1
    86   103   104    2
    87    19    16    1
    88    19    20    1
    89    95    93   ar
    90    86    85    1
    91    21    20    1
    92    21    23   ar
    93    16    15    1
    94   140   138   ar
    95   133   136    1
    96   133   134    1
    97   137   136    1
    98   137   138   ar
    99   135   134    2
   100    85    84    1
   101    62    64   ar
   102    62    63   ar
   103   131   129   ar
   104   131   130   ar
   105    77    75   ar
   106   129   127   ar
   107    64    66   ar
   108   130   128   ar
   109    84    83    1
   110    63    65   ar
   111    69    70    1
   112    74    75    1
   113    74    73    1
   114    83    82    1
   115    75    76   ar
   116   127   125   ar
   117   127   126   ar
   118    81    80    2
   119   128   125   ar
   120   116   115   ar
   121    66    67   ar
   122    73    70    1
   123    65    67   ar
   124    70    71    1
   125    72    71    2
   126   125   123   ar
   127   126   124   ar
   128    80    79    1
   129   117   115   ar
   130    82    79    1
   131   153   152   ar
   132   115   114    1
   133    67    68    1
   134    79    78    1
   135   124   123   ar
   136   154   152   ar
   137   123   122    1
   138   152   151    1
   139   114   113    1
   140   122   119    1
   141   113   110    1
   142   151   150    1
   143   150   147    1
   144   119   118    1
   145   119   120    1
   146   110   109    1
   147   110   111    1
   148   120   121    2
   149   147   148    1
   150   147   146    1
   151   148   149    2
   152   111   112    2
