@<TRIPOS>MOLECULE
tmp/3wxpA00.pdb
 89 84 0 0 0
SMALL
GASTEIGER

@<TRIPOS>ATOM
      1  N         40.4170   11.2220   14.6010 N.3    18  ILE18      -0.1245
      2  CA        41.3650   11.7700   15.6100 C.3    18  ILE18       0.1561
      3  C         41.5010   10.6760   16.6340 C.2    18  ILE18       0.2260
      4  O         40.5160   10.3270   17.3120 O.2    18  ILE18      -0.2867
      5  CB        40.8320   13.0720   16.2420 C.3    18  ILE18       0.0252
      6  CG1       40.8470   14.1480   15.1140 C.3    18  ILE18       0.0019
      7  CG2       41.7200   13.4790   17.4440 C.3    18  ILE18       0.0019
      8  CD1       40.1940   15.4600   15.5390 C.3    18  ILE18       0.0001
      9  N         37.3030   11.5390   18.1540 N.3    28  PHE28      -0.1241
     10  CA        36.4280   12.3570   17.3110 C.3    28  PHE28       0.1605
     11  C         36.7120   12.0090   15.8730 C.2    28  PHE28       0.2264
     12  O         37.7310   11.3030   15.5910 O.2    28  PHE28      -0.2867
     13  CB        36.7430   13.8650   17.4650 C.3    28  PHE28       0.0534
     14  CG        36.4040   14.4040   18.8290 C.ar   28  PHE28      -0.0203
     15  CD1       35.0600   14.7110   19.1790 C.ar   28  PHE28      -0.0042
     16  CD2       37.4140   14.5710   19.8000 C.ar   28  PHE28      -0.0042
     17  CE1       34.7490   15.1270   20.4750 C.ar   28  PHE28      -0.0003
     18  CE2       37.1090   15.0040   21.0390 C.ar   28  PHE28      -0.0003
     19  CZ        35.7660   15.3110   21.4060 C.ar   28  PHE28      -0.0000
     20  N         44.2410   19.2590   12.4320 N.3    48  TYR48      -0.1241
     21  CA        44.1580   19.0940   13.8960 C.3    48  TYR48       0.1605
     22  C         45.5670   18.9680   14.4530 C.2    48  TYR48       0.2264
     23  O         46.3050   18.0530   14.0110 O.2    48  TYR48      -0.2867
     24  CB        43.2980   17.8650   14.3230 C.3    48  TYR48       0.0534
     25  CG        43.2720   17.7760   15.8210 C.ar   48  TYR48      -0.0201
     26  CD1       42.8940   18.9030   16.5700 C.ar   48  TYR48      -0.0009
     27  CD2       43.6770   16.6690   16.4930 C.ar   48  TYR48      -0.0009
     28  CE1       42.8820   18.8820   17.9420 C.ar   48  TYR48       0.0417
     29  CE2       43.6260   16.6010   17.8880 C.ar   48  TYR48       0.0417
     30  CZ        43.2300   17.7210   18.6060 C.ar   48  TYR48       0.1957
     31  OH        43.2110   17.7570   20.0060 O.3    48  TYR48      -0.2866
     32  N         46.5540   21.1470   20.3740 N.3    53  GLY53      -0.1225
     33  CA        45.1180   20.9630   20.6430 C.3    53  GLY53       0.1811
     34  C         44.1520   21.8840   19.8770 C.2    53  GLY53       0.2280
     35  O         43.0090   22.1160   20.3370 O.2    53  GLY53      -0.2866
     36  N         41.8420   22.5370   16.3850 N.3    55  LEU55      -0.1245
     37  CA        41.2510   22.1950   15.0850 C.3    55  LEU55       0.1561
     38  C         41.0680   23.4350   14.2660 C.2    55  LEU55       0.2260
     39  O         40.4010   24.3620   14.7670 O.2    55  LEU55      -0.2867
     40  CB        39.9330   21.4790   15.3110 C.3    55  LEU55       0.0270
     41  CG        39.2760   20.9640   14.0190 C.3    55  LEU55       0.0019
     42  CD1       40.0020   19.7740   13.4450 C.3    55  LEU55       0.0001
     43  CD2       37.8250   20.5130   14.3150 C.3    55  LEU55       0.0001
     44  N         33.2640   18.2520   12.9190 N.3    79  ILE79      -0.1245
     45  CA        33.8970   17.2680   13.7480 C.3    79  ILE79       0.1561
     46  C         32.7950   16.6000   14.5510 C.2    79  ILE79       0.2260
     47  O         31.8400   17.2800   14.9940 O.2    79  ILE79      -0.2867
     48  CB        34.9840   17.8990   14.6990 C.3    79  ILE79       0.0252
     49  CG1       35.5820   16.8190   15.6040 C.3    79  ILE79       0.0019
     50  CG2       34.4000   19.0610   15.5170 C.3    79  ILE79       0.0019
     51  CD1       36.8930   17.2910   16.2910 C.3    79  ILE79       0.0001
     52  N         38.3350   25.4060   16.4680 N.3   256  ILE256     -0.1231
     53  CA        37.7320   24.8330   17.6950 C.3   256  ILE256      0.1692
     54  C         38.8870   24.3470   18.5550 C.2   256  ILE256      0.2593
     55  O         39.7460   23.5950   18.0380 O.2   256  ILE256     -0.2718
     56  CB        36.7780   23.6650   17.3600 C.3   256  ILE256      0.0266
     57  CG1       35.6060   24.1840   16.4670 C.3   256  ILE256      0.0019
     58  CG2       36.2800   22.9900   18.6500 C.3   256  ILE256      0.0020
     59  CD1       34.6270   23.0910   16.0060 C.3   256  ILE256      0.0001
     60  N         38.9160   24.7160   19.8390 N.am  257  THR257     -0.1939
     61  CA        40.0540   24.3120   20.6920 C.3   257  THR257      0.2028
     62  C         39.6320   23.3090   21.7130 C.2   257  THR257      0.2642
     63  O         40.4740   22.6580   22.2940 O.2   257  THR257     -0.2714
     64  CB        40.6720   25.4930   21.4560 C.3   257  THR257      0.1808
     65  OG1       39.6740   26.1090   22.2820 O.3   257  THR257     -0.2208
     66  CG2       41.3140   26.5140   20.5060 C.3   257  THR257      0.0379
     67  N         38.3360   23.1310   21.9930 N.am  258  ASN258     -0.1957
     68  CA        37.9860   22.2380   23.1280 C.3   258  ASN258      0.1819
     69  C         36.5390   21.7700   23.0230 C.2   258  ASN258      0.2621
     70  O         35.6430   22.6340   23.0120 O.2   258  ASN258     -0.2715
     71  CB        38.2570   23.0030   24.4610 C.3   258  ASN258      0.1195
     72  CG        37.8440   22.2330   25.7000 C.2   258  ASN258      0.2630
     73  OD1       36.9740   21.3320   25.6210 O.2   258  ASN258     -0.2716
     74  ND2       38.4250   22.5780   26.8640 N.am  258  ASN258     -0.0877
     75  N         36.3090   20.4640   22.8330 N.am  259  ILE259     -0.1963
     76  CA        34.9810   19.8860   22.8630 C.3   259  ILE259      0.1727
     77  C         34.9570   18.9610   24.0310 C.2   259  ILE259      0.2616
     78  O         35.7990   18.0260   24.0850 O.2   259  ILE259     -0.2715
     79  CB        34.6390   19.1190   21.5730 C.3   259  ILE259      0.0290
     80  CG1       34.7050   20.0700   20.3660 C.3   259  ILE259      0.0022
     81  CG2       33.2250   18.4920   21.7120 C.3   259  ILE259      0.0023
     82  CD1       34.7250   19.3110   19.0260 C.3   259  ILE259      0.0001
     83  N         34.0000   19.1330   24.9280 N.am  260  THR260     -0.1951
     84  CA        33.8940   18.2660   26.1220 C.3   260  THR260      0.1897
     85  C         32.4720   17.8660   26.3340 C.2   260  THR260      0.2313
     86  O         31.5620   18.7470   26.3240 O.2   260  THR260     -0.2863
     87  CB        34.4090   18.9980   27.3940 C.3   260  THR260      0.1794
     88  OG1       35.7760   19.3620   27.1730 O.3   260  THR260     -0.2208
     89  CG2       34.4250   18.0310   28.6160 C.3   260  THR260      0.0378
@<TRIPOS>BOND
     1    20    21    1
     2    44    45    1
     3    42    41    1
     4    45    46    1
     5    45    48    1
     6    21    24    1
     7    21    22    1
     8    23    22    2
     9    41    43    1
    10    41    40    1
    11    38    39    2
    12    38    37    1
    13    24    25    1
    14    46    47    2
    15     1     2    1
    16    48    50    1
    17    48    49    1
    18    37    40    1
    19    37    36    1
    20     6     8    1
    21     6     5    1
    22    12    11    2
    23    49    51    1
    24     2     5    1
    25     2     3    1
    26    25    27   ar
    27    25    26   ar
    28    11    10    1
    29    59    57    1
    30     5     7    1
    31    57    56    1
    32    52    53    1
    33    27    29   ar
    34    26    28   ar
    35     3     4    2
    36    10    13    1
    37    10     9    1
    38    56    53    1
    39    56    58    1
    40    13    14    1
    41    53    54    1
    42    29    30   ar
    43    28    30   ar
    44    55    54    2
    45    54    60   am
    46    30    31    1
    47    14    15   ar
    48    14    16   ar
    49    82    80    1
    50    15    17   ar
    51    16    18   ar
    52    60    61    1
    53    34    35    2
    54    34    33    1
    55    80    79    1
    56    32    33    1
    57    17    19   ar
    58    66    64    1
    59    61    64    1
    60    61    62    1
    61    18    19   ar
    62    64    65    1
    63    79    81    1
    64    79    76    1
    65    62    67   am
    66    62    63    2
    67    67    68    1
    68    75    76    1
    69    75    69   am
    70    76    77    1
    71    70    69    2
    72    69    68    1
    73    68    71    1
    74    77    78    2
    75    77    83   am
    76    71    72    1
    77    83    84    1
    78    73    72    2
    79    72    74   am
    80    84    85    1
    81    84    87    1
    82    86    85    2
    83    88    87    1
    84    87    89    1
