@<TRIPOS>MOLECULE
tmp/3wy0B00.pdb
 205 196 0 0 0
SMALL
GASTEIGER

@<TRIPOS>ATOM
      1  N         20.5160   34.5790   60.9190 N.3    38  LYS38      -0.1245
      2  CA        19.8830   34.6760   59.5940 C.3    38  LYS38       0.1561
      3  C         20.9230   34.7350   58.4610 C.2    38  LYS38       0.2260
      4  O         20.7720   34.0650   57.4360 O.2    38  LYS38      -0.2867
      5  CB        18.9270   35.8770   59.4830 C.3    38  LYS38       0.0271
      6  CG        17.6520   35.7790   60.3120 C.3    38  LYS38       0.0035
      7  CD        16.8230   34.5290   59.9930 C.3    38  LYS38       0.0206
      8  CE        16.2800   34.5490   58.5750 C.3    38  LYS38       0.1093
      9  NZ        15.2640   33.4750   58.3710 N.3    38  LYS38      -0.1314
     10  N         22.4100   31.3240   57.9870 N.3    41  GLU41      -0.1231
     11  CA        21.4000   30.4660   57.3660 C.3    41  GLU41       0.1699
     12  C         21.2770   30.7390   55.8690 C.2    41  GLU41       0.2592
     13  O         21.2050   29.8140   55.0500 O.2    41  GLU41      -0.2718
     14  CB        20.0410   30.6750   58.0410 C.3    41  GLU41       0.0402
     15  CG        18.8770   30.0510   57.2820 C.3    41  GLU41       0.1161
     16  CD        17.5390   30.2960   57.9600 C.2    41  GLU41       0.3649
     17  OE1       17.0420   31.4450   57.9260 O.co2  41  GLU41      -0.2457
     18  OE2       16.9860   29.3350   58.5350 O.co2  41  GLU41      -0.2457
     19  N         21.2380   32.0170   55.5140 N.am   42  ILE42      -0.1980
     20  CA        21.1940   32.4190   54.1100 C.3    42  ILE42       0.1595
     21  C         22.4910   32.0100   53.3970 C.2    42  ILE42       0.2287
     22  O         22.4800   31.5360   52.2600 O.2    42  ILE42      -0.2864
     23  CB        20.9640   33.9450   53.9940 C.3    42  ILE42       0.0276
     24  CG1       19.5430   34.2990   54.4670 C.3    42  ILE42       0.0022
     25  CG2       21.2130   34.4280   52.5690 C.3    42  ILE42       0.0022
     26  CD1       19.3690   35.7910   54.8250 C.3    42  ILE42       0.0001
     27  N         22.5220   28.7990   51.5920 N.3    45  LYS45      -0.1231
     28  CA        21.5180   28.6120   50.5510 C.3    45  LYS45       0.1693
     29  C         21.8040   29.3990   49.2800 C.2    45  LYS45       0.2593
     30  O         20.9660   29.4520   48.3830 O.2    45  LYS45      -0.2718
     31  CB        20.1180   28.9600   51.0820 C.3    45  LYS45       0.0285
     32  CG        19.7290   28.1490   52.3180 C.3    45  LYS45       0.0035
     33  CD        18.2180   28.1460   52.5620 C.3    45  LYS45       0.0206
     34  CE        17.7010   29.5230   52.9260 C.3    45  LYS45       0.1093
     35  NZ        16.2540   29.4700   53.3110 N.3    45  LYS45      -0.1314
     36  N         22.9920   29.9930   49.2010 N.am   46  THR46      -0.1939
     37  CA        23.3650   30.8180   48.0550 C.3    46  THR46       0.2028
     38  C         23.5850   29.9840   46.8010 C.2    46  THR46       0.2642
     39  O         23.5230   30.4950   45.6830 O.2    46  THR46      -0.2714
     40  CB        24.6570   31.6230   48.3420 C.3    46  THR46       0.1808
     41  OG1       25.7510   30.7230   48.5990 O.3    46  THR46      -0.2208
     42  CG2       24.4500   32.5230   49.5400 C.3    46  THR46       0.0379
     43  N         23.8470   28.6960   46.9960 N.am   47  ARG47      -0.1977
     44  CA        24.1530   27.7900   45.8910 C.3    47  ARG47       0.1597
     45  C         25.5060   28.1290   45.2640 C.2    47  ARG47       0.2287
     46  O         25.7970   27.7590   44.1320 O.2    47  ARG47      -0.2864
     47  CB        23.0210   27.7780   44.8650 C.3    47  ARG47       0.0334
     48  CG        21.6840   27.4870   45.5290 C.3    47  ARG47       0.0492
     49  CD        20.5130   27.3650   44.5720 C.3    47  ARG47       0.2205
     50  NE        19.3010   27.0870   45.3400 N.pl3  47  ARG47      -0.0865
     51  CZ        18.9130   25.8680   45.7120 C.cat  47  ARG47       0.5346
     52  NH1       19.6240   24.7940   45.3690 N.pl3  47  ARG47       0.1354
     53  NH2       17.8070   25.7180   46.4250 N.pl3  47  ARG47       0.1354
     54  N         29.5080   46.2920   39.7500 N.3   143  CYS143     -0.1235
     55  CA        29.4470   45.0140   39.0200 C.3   143  CYS143      0.1677
     56  C         29.3250   45.1930   37.5080 C.2   143  CYS143      0.2270
     57  O         29.6260   44.2800   36.7540 O.2   143  CYS143     -0.2867
     58  CB        28.2920   44.1310   39.5310 C.3   143  CYS143      0.0956
     59  SG        28.5120   43.5070   41.2150 S.3   143  CYS143     -0.0801
     60  N         20.6430   42.4350   58.4830 N.3   194  VAL194     -0.1245
     61  CA        21.2530   41.3360   57.7490 C.3   194  VAL194      0.1561
     62  C         21.8420   41.8340   56.4450 C.2   194  VAL194      0.2260
     63  O         21.1580   42.4850   55.6560 O.2   194  VAL194     -0.2867
     64  CB        20.2450   40.2270   57.4140 C.3   194  VAL194      0.0252
     65  CG1       20.8610   39.2440   56.4230 C.3   194  VAL194      0.0019
     66  CG2       19.8100   39.5050   58.6810 C.3   194  VAL194      0.0019
     67  N         23.4140   40.4870   53.0730 N.3   196  VAL196     -0.1245
     68  CA        23.7310   39.3240   52.2410 C.3   196  VAL196      0.1561
     69  C         25.0360   39.4750   51.4650 C.2   196  VAL196      0.2260
     70  O         25.5070   38.5050   50.8780 O.2   196  VAL196     -0.2867
     71  CB        22.6000   38.9390   51.2640 C.3   196  VAL196      0.0252
     72  CG1       21.3050   38.6420   52.0250 C.3   196  VAL196      0.0019
     73  CG2       22.3870   40.0350   50.2390 C.3   196  VAL196      0.0019
     74  N         27.5850   37.0230   52.1300 N.3   199  CYS199     -0.1221
     75  CA        27.3680   35.6720   51.6240 C.3   199  CYS199      0.1808
     76  C         27.7860   35.4810   50.1640 C.2   199  CYS199      0.2601
     77  O         27.9850   34.3500   49.7200 O.2   199  CYS199     -0.2717
     78  CB        25.8780   35.3130   51.7450 C.3   199  CYS199      0.0970
     79  SG        25.1310   35.5640   53.3790 S.3   199  CYS199     -0.0800
     80  N         27.8980   36.5780   49.4140 N.am  200  LEU200     -0.1965
     81  CA        27.9360   36.4810   47.9550 C.3   200  LEU200      0.1728
     82  C         29.3140   36.7070   47.3350 C.2   200  LEU200      0.2616
     83  O         29.6480   36.1020   46.3180 O.2   200  LEU200     -0.2715
     84  CB        26.9520   37.4890   47.3510 C.3   200  LEU200      0.0311
     85  CG        25.4630   37.3080   47.6670 C.3   200  LEU200      0.0022
     86  CD1       24.6480   38.4950   47.1770 C.3   200  LEU200      0.0001
     87  CD2       24.9460   36.0250   47.0430 C.3   200  LEU200      0.0001
     88  N         30.1070   37.5850   47.9390 N.am  201  PHE201     -0.1974
     89  CA        31.2500   38.1460   47.2260 C.3   201  PHE201      0.1639
     90  C         32.5640   37.4410   47.5020 C.2   201  PHE201      0.2290
     91  O         32.7950   36.9510   48.6070 O.2   201  PHE201     -0.2864
     92  CB        31.3730   39.6410   47.4990 C.3   201  PHE201      0.0560
     93  CG        30.2120   40.4350   46.9910 C.ar  201  PHE201     -0.0200
     94  CD1       30.1650   40.8460   45.6680 C.ar  201  PHE201     -0.0042
     95  CD2       29.1480   40.7450   47.8250 C.ar  201  PHE201     -0.0042
     96  CE1       29.0980   41.5690   45.1960 C.ar  201  PHE201     -0.0003
     97  CE2       28.0600   41.4700   47.3510 C.ar  201  PHE201     -0.0003
     98  CZ        28.0310   41.8690   46.0390 C.ar  201  PHE201     -0.0000
     99  N         21.6790   48.9230   44.3960 N.3   242  ALA242     -0.1245
    100  CA        22.8020   48.4900   45.2150 C.3   242  ALA242      0.1562
    101  C         23.6260   49.7260   45.5490 C.2   242  ALA242      0.2260
    102  O         23.7710   50.6140   44.7100 O.2   242  ALA242     -0.2867
    103  CB        23.6560   47.4540   44.4660 C.3   242  ALA242      0.0290
    104  N         22.4340   45.9270   49.6860 N.3   255  ILE255     -0.1231
    105  CA        21.9420   45.1210   48.5840 C.3   255  ILE255      0.1692
    106  C         20.4260   45.0750   48.6850 C.2   255  ILE255      0.2592
    107  O         19.8880   44.5310   49.6450 O.2   255  ILE255     -0.2718
    108  CB        22.4820   43.6850   48.6740 C.3   255  ILE255      0.0266
    109  CG1       24.0180   43.6810   48.7560 C.3   255  ILE255      0.0019
    110  CG2       21.9540   42.8260   47.5200 C.3   255  ILE255      0.0020
    111  CD1       24.7060   44.3590   47.6000 C.3   255  ILE255      0.0001
    112  N         19.7450   45.6410   47.6960 N.am  256  ASP256     -0.1960
    113  CA        18.2860   45.7650   47.7330 C.3   256  ASP256      0.1840
    114  C         17.5890   44.4420   47.4150 C.2   256  ASP256      0.2621
    115  O         17.9970   43.7300   46.5060 O.2   256  ASP256     -0.2715
    116  CB        17.8330   46.8420   46.7440 C.3   256  ASP256      0.1450
    117  CG        16.5840   47.5740   47.2010 C.2   256  ASP256      0.3671
    118  OD1       15.5860   46.9070   47.5580 O.co2 256  ASP256     -0.2456
    119  OD2       16.6060   48.8250   47.2030 O.co2 256  ASP256     -0.2456
    120  N         16.5300   44.1190   48.1570 N.am  257  LYS257     -0.1977
    121  CA        15.7760   42.8850   47.9150 C.3   257  LYS257      0.1596
    122  C         15.1170   42.8420   46.5350 C.2   257  LYS257      0.2287
    123  O         14.7980   41.7700   46.0260 O.2   257  LYS257     -0.2864
    124  CB        14.7140   42.6710   48.9980 C.3   257  LYS257      0.0298
    125  CG        15.2490   42.0370   50.2730 C.3   257  LYS257      0.0038
    126  CD        14.1460   41.8330   51.3140 C.3   257  LYS257      0.0206
    127  CE        14.7010   41.1750   52.5750 C.3   257  LYS257      0.1093
    128  NZ        13.6920   41.0570   53.6620 N.3   257  LYS257     -0.1314
    129  N         16.2330   43.4620   43.5860 N.3   259  ILE259     -0.1231
    130  CA        17.0910   43.2930   42.4190 C.3   259  ILE259      0.1678
    131  C         16.6160   42.2130   41.4490 C.2   259  ILE259      0.2434
    132  O         16.5840   42.4460   40.2420 O.2   259  ILE259     -0.2733
    133  CB        18.5780   43.0970   42.7840 C.3   259  ILE259      0.0265
    134  CG1       19.0990   44.3380   43.5150 C.3   259  ILE259      0.0019
    135  CG2       19.3880   42.8520   41.5200 C.3   259  ILE259      0.0020
    136  CD1       20.5690   44.2760   43.8990 C.3   259  ILE259      0.0001
    137  N         16.2360   41.0300   41.9630 N.am  260  PRO260     -0.2729
    138  CA        15.7550   40.0230   41.0070 C.3   260  PRO260      0.1401
    139  C         14.5030   40.4840   40.2560 C.2   260  PRO260      0.2269
    140  O         14.4220   40.2740   39.0430 O.2   260  PRO260     -0.2865
    141  CB        15.4730   38.7960   41.8940 C.3   260  PRO260      0.0296
    142  CG        16.4230   38.9610   43.0510 C.3   260  PRO260      0.0237
    143  CD        16.4430   40.4610   43.3090 C.3   260  PRO260      0.0939
    144  N         25.9390   38.6690   34.3600 N.3   298  HIS298     -0.1241
    145  CA        26.5950   38.8340   35.6450 C.3   298  HIS298      0.1621
    146  C         25.7150   38.3000   36.7640 C.2   298  HIS298      0.2264
    147  O         24.6280   38.8240   37.0060 O.2   298  HIS298     -0.2867
    148  CB        26.9230   40.3010   35.9280 C.3   298  HIS298      0.0745
    149  CG        27.3620   40.5280   37.3320 C.ar  298  HIS298      0.0817
    150  ND1       28.6140   40.1700   37.7800 N.ar  298  HIS298     -0.2268
    151  CD2       26.6940   41.0000   38.4100 C.ar  298  HIS298      0.1154
    152  CE1       28.7110   40.4470   39.0670 C.ar  298  HIS298      0.1986
    153  NE2       27.5620   40.9560   39.4740 N.ar  298  HIS298     -0.2212
    154  N         24.7430   38.4400   39.9680 N.3   300  GLY300     -0.1210
    155  CA        24.8130   39.2290   41.1870 C.3   300  GLY300      0.1956
    156  C         24.4130   38.3290   42.3390 C.2   300  GLY300      0.2612
    157  O         24.9660   38.4070   43.4350 O.2   300  GLY300     -0.2717
    158  N         23.4270   37.4800   42.0700 N.am  301  GLY301     -0.1942
    159  CA        23.0100   36.4380   42.9860 C.3   301  GLY301      0.2014
    160  C         22.3120   35.3400   42.2060 C.2   301  GLY301      0.2639
    161  O         21.9630   35.5200   41.0350 O.2   301  GLY301     -0.2714
    162  N         22.1060   34.1940   42.8450 N.am  302  TYR302     -0.1959
    163  CA        21.4310   33.0940   42.1760 C.3   302  TYR302      0.1771
    164  C         20.0830   33.5360   41.6070 C.2   302  TYR302      0.2619
    165  O         19.7680   33.2620   40.4560 O.2   302  TYR302     -0.2715
    166  CB        21.2440   31.9250   43.1390 C.3   302  TYR302      0.0574
    167  CG        20.6760   30.6830   42.4960 C.ar  302  TYR302     -0.0198
    168  CD1       21.5040   29.7860   41.8360 C.ar  302  TYR302     -0.0009
    169  CD2       19.3190   30.4010   42.5570 C.ar  302  TYR302     -0.0009
    170  CE1       21.0070   28.6490   41.2470 C.ar  302  TYR302      0.0417
    171  CE2       18.8060   29.2490   41.9730 C.ar  302  TYR302      0.0417
    172  CZ        19.6560   28.3790   41.3200 C.ar  302  TYR302      0.1957
    173  OH        19.1650   27.2230   40.7320 O.3   302  TYR302     -0.2866
    174  N         19.2970   34.2350   42.4170 N.am  303  ALA303     -0.1963
    175  CA        17.9850   34.7010   41.9860 C.3   303  ALA303      0.1728
    176  C         18.0750   35.7020   40.8370 C.2   303  ALA303      0.2616
    177  O         17.1440   35.8120   40.0300 O.2   303  ALA303     -0.2715
    178  CB        17.2240   35.3070   43.1610 C.3   303  ALA303      0.0334
    179  N         19.1860   36.4380   40.7570 N.am  304  VAL304     -0.1977
    180  CA        19.3970   37.3360   39.6210 C.3   304  VAL304      0.1596
    181  C         19.4760   36.5550   38.3050 C.2   304  VAL304      0.2287
    182  O         18.8040   36.9000   37.3290 O.2   304  VAL304     -0.2864
    183  CB        20.6410   38.2440   39.8050 C.3   304  VAL304      0.0276
    184  CG1       20.8930   39.0630   38.5500 C.3   304  VAL304      0.0022
    185  CG2       20.4430   39.1610   41.0150 C.3   304  VAL304      0.0022
    186  N         29.4010   31.5480   38.9400 N.3   326  TYR326     -0.1241
    187  CA        28.7940   31.8590   40.2290 C.3   326  TYR326      0.1605
    188  C         29.0110   30.7280   41.2360 C.2   326  TYR326      0.2264
    189  O         29.3630   30.9660   42.3930 O.2   326  TYR326     -0.2867
    190  CB        27.2960   32.0930   40.0300 C.3   326  TYR326      0.0534
    191  CG        26.5260   32.3510   41.2920 C.ar  326  TYR326     -0.0201
    192  CD1       26.5820   33.5830   41.9260 C.ar  326  TYR326     -0.0009
    193  CD2       25.7120   31.3690   41.8370 C.ar  326  TYR326     -0.0009
    194  CE1       25.8540   33.8260   43.0870 C.ar  326  TYR326      0.0417
    195  CE2       24.9830   31.6010   42.9890 C.ar  326  TYR326      0.0417
    196  CZ        25.0490   32.8270   43.6020 C.ar  326  TYR326      0.1957
    197  OH        24.3180   33.0410   44.7450 O.3   326  TYR326     -0.2866
    198  N         30.1850   35.7870   43.4210 N.3   331  ASN331     -0.1240
    199  CA        30.1140   37.0990   42.7990 C.3   331  ASN331      0.1653
    200  C         31.4410   37.8170   42.9950 C.2   331  ASN331      0.2266
    201  O         31.7580   38.2410   44.1050 O.2   331  ASN331     -0.2867
    202  CB        28.9740   37.8960   43.4370 C.3   331  ASN331      0.1155
    203  CG        28.7300   39.2390   42.7570 C.2   331  ASN331      0.2627
    204  OD1       29.6230   39.8180   42.1420 O.2   331  ASN331     -0.2716
    205  ND2       27.5040   39.7350   42.8720 N.am  331  ASN331     -0.0877
@<TRIPOS>BOND
     1   144   145    1
     2   145   148    1
     3   145   146    1
     4   148   149    1
     5    57    56    2
     6   146   147    2
     7   182   181    2
     8   149   150   ar
     9   149   151   ar
    10    56    55    1
    11   150   152   ar
    12   181   180    1
    13   151   153   ar
    14   184   183    1
    15   186   187    1
    16    55    58    1
    17    55    54    1
    18   140   139    2
    19   152   153   ar
    20    58    59    1
    21   180   183    1
    22   180   179    1
    23   183   185    1
    24   154   155    1
    25   190   187    1
    26   190   191    1
    27   177   176    2
    28   187   188    1
    29   132   131    2
    30   139   138    1
    31   165   164    2
    32   173   172    1
    33   179   176   am
    34   176   175    1
    35   138   141    1
    36   138   137    1
    37   161   160    2
    38   155   156    1
    39   188   189    2
    40   170   172   ar
    41   170   168   ar
    42   191   193   ar
    43   191   192   ar
    44   172   171   ar
    45   131   137   am
    46   131   130    1
    47   135   133    1
    48   164   163    1
    49   164   174   am
    50   168   167   ar
    51   193   195   ar
    52   141   142    1
    53   192   194   ar
    54   137   143    1
    55   171   169   ar
    56   175   174    1
    57   175   178    1
    58   158   156   am
    59   158   159    1
    60   204   203    2
    61   163   162    1
    62   163   166    1
    63   160   162   am
    64   160   159    1
    65   156   157    2
    66   130   133    1
    67   130   129    1
    68   167   169   ar
    69   167   166    1
    70   203   205   am
    71   203   202    1
    72   133   134    1
    73   199   200    1
    74   199   198    1
    75   199   202    1
    76   195   196   ar
    77   200   201    2
    78   142   143    1
    79   194   196   ar
    80   134   136    1
    81   196   197    1
    82    46    45    2
    83    99   100    1
    84   103   100    1
    85    49    50    1
    86    49    48    1
    87   102   101    2
    88    47    48    1
    89    47    44    1
    90    96    94   ar
    91    96    98   ar
    92   100   101    1
    93    45    44    1
    94    50    51    2
    95    52    51    1
    96    94    93   ar
    97    39    38    2
    98    51    53    1
    99    44    43    1
   100   123   122    2
   101    98    97   ar
   102    83    82    2
   103   115   114    2
   104   122   121    1
   105   116   117    1
   106   116   113    1
   107    38    43   am
   108    38    37    1
   109    93    92    1
   110    93    95   ar
   111    87    85    1
   112    86    85    1
   113   117   119   ar
   114   117   118   ar
   115    89    92    1
   116    89    90    1
   117    89    88    1
   118    82    88   am
   119    82    81    1
   120    97    95   ar
   121    84    85    1
   122    84    81    1
   123   114   113    1
   124   114   120   am
   125    90    91    2
   126   110   108    1
   127   111   109    1
   128   112   113    1
   129   112   106   am
   130   121   120    1
   131   121   124    1
   132    81    80    1
   133    37    40    1
   134    37    36    1
   135    40    41    1
   136    40    42    1
   137    30    29    2
   138   105   108    1
   139   105   106    1
   140   105   104    1
   141   108   109    1
   142   106   107    2
   143   124   125    1
   144    36    29   am
   145    29    28    1
   146    80    76   am
   147    77    76    2
   148    76    75    1
   149    73    71    1
   150   125   126    1
   151    28    31    1
   152    28    27    1
   153    70    69    2
   154    31    32    1
   155    71    72    1
   156    71    68    1
   157   126   127    1
   158    69    68    1
   159    75    78    1
   160    75    74    1
   161    78    79    1
   162    68    67    1
   163    22    21    2
   164    32    33    1
   165    33    34    1
   166    25    23    1
   167   127   128    1
   168    34    35    1
   169    21    20    1
   170    23    20    1
   171    23    24    1
   172    20    19    1
   173    24    26    1
   174    13    12    2
   175    19    12   am
   176    63    62    2
   177    12    11    1
   178    65    64    1
   179    62    61    1
   180    15    16    1
   181    15    14    1
   182    11    10    1
   183    11    14    1
   184    64    61    1
   185    64    66    1
   186     4     3    2
   187    61    60    1
   188    17    16   ar
   189    16    18   ar
   190     9     8    1
   191     3     2    1
   192     8     7    1
   193     5     2    1
   194     5     6    1
   195     2     1    1
   196     7     6    1
