@<TRIPOS>MOLECULE
tmp/3wy1B00.pdb
 210 200 0 0 0
SMALL
GASTEIGER

@<TRIPOS>ATOM
      1  N         18.2060   10.1540  -44.2220 N.3    59  ASP59      -0.1239
      2  CA        18.5700   10.6130  -42.8790 C.3    59  ASP59       0.1674
      3  C         17.6710    9.8730  -41.8960 C.2    59  ASP59       0.2266
      4  O         17.2420   10.4020  -40.8540 O.2    59  ASP59      -0.2867
      5  CB        18.4120   12.1250  -42.7560 C.3    59  ASP59       0.1410
      6  CG        18.9310   12.6670  -41.4380 C.2    59  ASP59       0.3668
      7  OD1       19.6920   11.9540  -40.7390 O.co2  59  ASP59      -0.2456
      8  OD2       18.5520   13.8060  -41.0870 O.co2  59  ASP59      -0.2456
      9  N         14.1750   11.3450  -40.9950 N.3    62  TYR62      -0.1241
     10  CA        14.1570   12.7970  -40.9020 C.3    62  TYR62       0.1605
     11  C         14.1070   13.4750  -42.2850 C.2    62  TYR62       0.2264
     12  O         14.1000   14.7130  -42.3740 O.2    62  TYR62      -0.2867
     13  CB        15.3200   13.3000  -40.0260 C.3    62  TYR62       0.0534
     14  CG        15.0650   13.0660  -38.5410 C.ar   62  TYR62      -0.0201
     15  CD1       14.2770   13.9450  -37.8140 C.ar   62  TYR62      -0.0009
     16  CD2       15.5720   11.9510  -37.8840 C.ar   62  TYR62      -0.0009
     17  CE1       14.0040   13.7390  -36.4700 C.ar   62  TYR62       0.0417
     18  CE2       15.3060   11.7330  -36.5210 C.ar   62  TYR62       0.0417
     19  CZ        14.5230   12.6360  -35.8260 C.ar   62  TYR62       0.1957
     20  OH        14.2350   12.4410  -34.4940 O.3    62  TYR62      -0.2866
     21  N         12.2170   21.0080  -43.1770 N.3   102  HIS102     -0.1241
     22  CA        12.6590   20.5680  -44.5040 C.3   102  HIS102      0.1621
     23  C         11.9210   19.2970  -44.8550 C.2   102  HIS102      0.2264
     24  O         11.4690   18.5730  -43.9540 O.2   102  HIS102     -0.2867
     25  CB        14.1690   20.2840  -44.5010 C.3   102  HIS102      0.0745
     26  CG        14.6100   19.4430  -43.3440 C.ar  102  HIS102      0.0817
     27  ND1       15.1540   19.9840  -42.1920 N.ar  102  HIS102     -0.2268
     28  CD2       14.5760   18.1040  -43.1370 C.ar  102  HIS102      0.1154
     29  CE1       15.4270   19.0260  -41.3340 C.ar  102  HIS102      0.1986
     30  NE2       15.0880   17.8630  -41.8850 N.ar  102  HIS102     -0.2212
     31  N         25.3600   21.2160  -42.2440 N.3   143  ILE143     -0.1231
     32  CA        25.8320   20.4980  -41.0690 C.3   143  ILE143      0.1692
     33  C         26.3620   19.1350  -41.4770 C.2   143  ILE143      0.2592
     34  O         27.2680   18.5980  -40.8470 O.2   143  ILE143     -0.2718
     35  CB        24.6910   20.3150  -40.0460 C.3   143  ILE143      0.0266
     36  CG1       24.2660   21.6810  -39.5250 C.3   143  ILE143      0.0019
     37  CG2       25.1270   19.4450  -38.8710 C.3   143  ILE143      0.0020
     38  CD1       23.1480   21.6400  -38.5410 C.3   143  ILE143      0.0001
     39  N         25.7800   18.5600  -42.5220 N.am  144  PHE144     -0.1976
     40  CA        26.1960   17.2300  -42.9450 C.3   144  PHE144      0.1639
     41  C         27.2770   17.2710  -44.0300 C.2   144  PHE144      0.2290
     42  O         27.6080   16.2470  -44.6240 O.2   144  PHE144     -0.2864
     43  CB        24.9970   16.4110  -43.4110 C.3   144  PHE144      0.0560
     44  CG        24.0180   16.0680  -42.3110 C.ar  144  PHE144     -0.0200
     45  CD1       24.3850   16.1330  -40.9770 C.ar  144  PHE144     -0.0042
     46  CD2       22.7100   15.6980  -42.6270 C.ar  144  PHE144     -0.0042
     47  CE1       23.4850   15.8220  -39.9610 C.ar  144  PHE144     -0.0003
     48  CE2       21.8030   15.3750  -41.6250 C.ar  144  PHE144     -0.0003
     49  CZ        22.1890   15.4410  -40.2850 C.ar  144  PHE144     -0.0000
     50  N         20.6410   20.3790  -43.9630 N.3   163  PHE163     -0.1241
     51  CA        21.0520   18.9890  -43.8020 C.3   163  PHE163      0.1605
     52  C         21.4440   18.3070  -45.1260 C.2   163  PHE163      0.2264
     53  O         22.2040   18.9010  -45.8960 O.2   163  PHE163     -0.2867
     54  CB        20.0080   18.2710  -42.9480 C.3   163  PHE163      0.0534
     55  CG        19.8810   18.9010  -41.5960 C.ar  163  PHE163     -0.0203
     56  CD1       20.7640   18.5630  -40.5900 C.ar  163  PHE163     -0.0042
     57  CD2       18.9770   19.9310  -41.3680 C.ar  163  PHE163     -0.0042
     58  CE1       20.6960   19.1740  -39.3510 C.ar  163  PHE163     -0.0003
     59  CE2       18.9180   20.5560  -40.1250 C.ar  163  PHE163     -0.0003
     60  CZ        19.7850   20.1720  -39.1200 C.ar  163  PHE163     -0.0000
     61  N         17.4920   16.8860  -48.3770 N.3   167  GLN167     -0.1245
     62  CA        16.6060   17.4980  -47.3820 C.3   167  GLN167      0.1566
     63  C         16.4660   19.0080  -47.5920 C.2   167  GLN167      0.2260
     64  O         16.9080   19.7870  -46.7570 O.2   167  GLN167     -0.2867
     65  CB        17.0860   17.2330  -45.9380 C.3   167  GLN167      0.0367
     66  CG        16.8030   15.8260  -45.3990 C.3   167  GLN167      0.0905
     67  CD        17.6020   15.5040  -44.1370 C.2   167  GLN167      0.2608
     68  OE1       18.8360   15.5530  -44.1500 O.2   167  GLN167     -0.2717
     69  NE2       16.8950   15.1840  -43.0280 N.am  167  GLN167     -0.0878
     70  N          7.5500   16.4820  -30.7360 N.3   197  ARG197     -0.1245
     71  CA         8.9190   16.9470  -30.6300 C.3   197  ARG197      0.1563
     72  C          9.1880   17.6740  -31.9380 C.2   197  ARG197      0.2260
     73  O          9.0750   17.0950  -33.0190 O.2   197  ARG197     -0.2867
     74  CB         9.8710   15.7700  -30.4280 C.3   197  ARG197      0.0307
     75  CG        11.3500   16.1450  -30.2930 C.3   197  ARG197      0.0489
     76  CD        12.0470   16.1060  -31.6640 C.3   197  ARG197      0.2205
     77  NE        13.5110   16.1040  -31.5460 N.pl3 197  ARG197     -0.0865
     78  CZ        14.3460   16.0000  -32.5800 C.cat 197  ARG197      0.5346
     79  NH1       13.8640   15.8940  -33.8180 N.pl3 197  ARG197      0.1354
     80  NH2       15.6620   15.9980  -32.3690 N.pl3 197  ARG197      0.1354
     81  N         11.4930   18.9590  -34.4520 N.3   199  ASP199     -0.1225
     82  CA        12.8110   18.8810  -35.0420 C.3   199  ASP199      0.1805
     83  C         13.2840   20.2570  -35.4590 C.2   199  ASP199      0.2598
     84  O         12.5290   21.0100  -36.1030 O.2   199  ASP199     -0.2718
     85  CB        12.7690   17.9740  -36.2650 C.3   199  ASP199      0.1424
     86  CG        14.1490   17.6990  -36.8270 C.2   199  ASP199      0.3668
     87  OD1       14.8990   16.9560  -36.1540 O.co2 199  ASP199     -0.2456
     88  OD2       14.4690   18.1770  -37.9440 O.co2 199  ASP199     -0.2456
     89  N         14.5320   20.5610  -35.0920 N.am  200  THR200     -0.1953
     90  CA        15.2420   21.7850  -35.4900 C.3   200  THR200      0.1897
     91  C         14.3710   23.0290  -35.4660 C.2   200  THR200      0.2313
     92  O         14.2990   23.7700  -36.4490 O.2   200  THR200     -0.2863
     93  CB        15.9250   21.6330  -36.8670 C.3   200  THR200      0.1794
     94  OG1       14.9870   21.1010  -37.8110 O.3   200  THR200     -0.2208
     95  CG2       17.0900   20.6680  -36.7720 C.3   200  THR200      0.0378
     96  N         15.3440   26.4210  -36.8360 N.3   203  PHE203     -0.1241
     97  CA        15.8210   26.4940  -38.2340 C.3   203  PHE203      0.1605
     98  C         14.7520   26.9700  -39.2220 C.2   203  PHE203      0.2264
     99  O         15.0600   27.2230  -40.3900 O.2   203  PHE203     -0.2867
    100  CB        16.3390   25.1330  -38.7140 C.3   203  PHE203      0.0534
    101  CG        17.6810   24.7390  -38.1390 C.ar  203  PHE203     -0.0203
    102  CD1       18.7410   24.4350  -38.9860 C.ar  203  PHE203     -0.0042
    103  CD2       17.8770   24.6530  -36.7680 C.ar  203  PHE203     -0.0042
    104  CE1       19.9850   24.0600  -38.4730 C.ar  203  PHE203     -0.0003
    105  CE2       19.1300   24.2780  -36.2350 C.ar  203  PHE203     -0.0003
    106  CZ        20.1780   23.9770  -37.0890 C.ar  203  PHE203     -0.0000
    107  N         30.0040   25.8850  -31.1750 N.3   223  THR223     -0.1218
    108  CA        28.6500   25.4690  -30.8330 C.3   223  THR223      0.1862
    109  C         28.6420   24.0630  -30.2450 C.2   223  THR223      0.2287
    110  O         29.4920   23.2290  -30.5810 O.2   223  THR223     -0.2866
    111  CB        27.6980   25.5340  -32.0470 C.3   223  THR223      0.1770
    112  OG1       26.3820   25.1160  -31.6490 O.3   223  THR223     -0.2211
    113  CG2       28.2010   24.6490  -33.1890 C.3   223  THR223      0.0375
    114  N         26.2300   21.9080  -30.6130 N.3   225  GLY225     -0.1210
    115  CA        25.4360   21.0020  -31.4240 C.3   225  GLY225      0.1956
    116  C         26.1640   20.2520  -32.5210 C.2   225  GLY225      0.2611
    117  O         25.5260   19.5260  -33.2880 O.2   225  GLY225     -0.2717
    118  N         27.4840   20.4070  -32.6040 N.am  226  ALA226     -0.1979
    119  CA        28.2540   19.7970  -33.6870 C.3   226  ALA226      0.1597
    120  C         29.7010   19.5320  -33.2510 C.2   226  ALA226      0.2287
    121  O         30.2690   20.3180  -32.4870 O.2   226  ALA226     -0.2864
    122  CB        28.2310   20.7040  -34.9160 C.3   226  ALA226      0.0319
    123  N         31.2770   23.4530  -40.1840 N.3   232  TYR232     -0.1241
    124  CA        30.0830   24.1880  -39.7790 C.3   232  TYR232      0.1605
    125  C         30.3580   25.0210  -38.5220 C.2   232  TYR232      0.2264
    126  O         29.8330   26.1300  -38.3640 O.2   232  TYR232     -0.2867
    127  CB        28.9660   23.1860  -39.4960 C.3   232  TYR232      0.0534
    128  CG        27.6340   23.7770  -39.0910 C.ar  232  TYR232     -0.0201
    129  CD1       26.7270   24.2290  -40.0530 C.ar  232  TYR232     -0.0009
    130  CD2       27.2640   23.8520  -37.7510 C.ar  232  TYR232     -0.0009
    131  CE1       25.4930   24.7540  -39.6890 C.ar  232  TYR232      0.0417
    132  CE2       26.0340   24.3720  -37.3780 C.ar  232  TYR232      0.0417
    133  CZ        25.1560   24.8260  -38.3490 C.ar  232  TYR232      0.1957
    134  OH        23.9350   25.3470  -37.9730 O.3   232  TYR232     -0.2866
    135  N         13.4950   21.0840  -30.4100 N.3   268  GLU268     -0.1245
    136  CA        14.9370   20.8500  -30.4160 C.3   268  GLU268      0.1567
    137  C         15.6890   22.1240  -30.8030 C.2   268  GLU268      0.2260
    138  O         15.5110   22.6460  -31.9050 O.2   268  GLU268     -0.2867
    139  CB        15.3110   19.7660  -31.4210 C.3   268  GLU268      0.0388
    140  CG        16.7530   19.3750  -31.2970 C.3   268  GLU268      0.1160
    141  CD        17.3620   18.9820  -32.6110 C.2   268  GLU268      0.3649
    142  OE1       16.6670   19.0830  -33.6620 O.co2 268  GLU268     -0.2457
    143  OE2       18.5440   18.5700  -32.5880 O.co2 268  GLU268     -0.2457
    144  N         19.1260   24.0850  -31.7870 N.3   270  GLY270     -0.1225
    145  CA        20.5070   24.0140  -32.2590 C.3   270  GLY270      0.1811
    146  C         20.9730   25.4130  -32.6260 C.2   270  GLY270      0.2280
    147  O         20.7200   25.8980  -33.7210 O.2   270  GLY270     -0.2866
    148  N         21.6260   21.3510  -26.1660 N.3   294  PHE294     -0.1241
    149  CA        22.7230   20.3910  -26.1150 C.3   294  PHE294      0.1605
    150  C         23.6540   20.6510  -24.9260 C.2   294  PHE294      0.2264
    151  O         24.7430   20.0940  -24.8590 O.2   294  PHE294     -0.2867
    152  CB        23.5170   20.4290  -27.4200 C.3   294  PHE294      0.0534
    153  CG        22.9340   19.5770  -28.5060 C.ar  294  PHE294     -0.0203
    154  CD1       23.6190   18.4740  -28.9850 C.ar  294  PHE294     -0.0042
    155  CD2       21.6990   19.8870  -29.0570 C.ar  294  PHE294     -0.0042
    156  CE1       23.0830   17.6880  -29.9960 C.ar  294  PHE294     -0.0003
    157  CE2       21.1450   19.1060  -30.0730 C.ar  294  PHE294     -0.0003
    158  CZ        21.8400   18.0020  -30.5400 C.ar  294  PHE294     -0.0000
    159  N         19.0760   10.2690  -29.8790 N.3   329  HIS329     -0.1226
    160  CA        19.4940    9.5380  -31.0640 C.3   329  HIS329      0.1752
    161  C         20.5940   10.2760  -31.8460 C.2   329  HIS329      0.2596
    162  O         21.0610    9.7860  -32.8900 O.2   329  HIS329     -0.2718
    163  CB        18.2690    9.3350  -31.9510 C.3   329  HIS329      0.0759
    164  CG        17.7460   10.6140  -32.5230 C.ar  329  HIS329      0.0818
    165  ND1       17.2460   11.6250  -31.7310 N.ar  329  HIS329     -0.2268
    166  CD2       17.6770   11.0550  -33.8010 C.ar  329  HIS329      0.1154
    167  CE1       16.8780   12.6350  -32.5040 C.ar  329  HIS329      0.1986
    168  NE2       17.1260   12.3170  -33.7600 N.ar  329  HIS329     -0.2212
    169  N         21.0050   11.4470  -31.3540 N.am  330  ASP330     -0.1974
    170  CA        22.0230   12.2430  -32.0500 C.3   330  ASP330      0.1709
    171  C         23.3840   12.3230  -31.3270 C.2   330  ASP330      0.2293
    172  O         24.3360   12.8240  -31.9040 O.2   330  ASP330     -0.2864
    173  CB        21.5480   13.6800  -32.2680 C.3   330  ASP330      0.1436
    174  CG        20.4430   13.7910  -33.2940 C.2   330  ASP330      0.3671
    175  OD1       20.4540   13.0590  -34.3090 O.co2 330  ASP330     -0.2456
    176  OD2       19.5700   14.6520  -33.0950 O.co2 330  ASP330     -0.2456
    177  N         25.9630   11.0170  -41.8040 N.3   386  TYR386     -0.1241
    178  CA        26.7470   11.9280  -40.9710 C.3   386  TYR386      0.1605
    179  C         27.9690   11.2030  -40.4120 C.2   386  TYR386      0.2264
    180  O         28.8520   11.8250  -39.8150 O.2   386  TYR386     -0.2867
    181  CB        25.9040   12.4400  -39.7990 C.3   386  TYR386      0.0534
    182  CG        26.3930   13.7340  -39.1700 C.ar  386  TYR386     -0.0201
    183  CD1       27.3610   14.5220  -39.7900 C.ar  386  TYR386     -0.0009
    184  CD2       25.8900   14.1600  -37.9470 C.ar  386  TYR386     -0.0009
    185  CE1       27.8040   15.7090  -39.2050 C.ar  386  TYR386      0.0417
    186  CE2       26.3190   15.3390  -37.3580 C.ar  386  TYR386      0.0417
    187  CZ        27.2810   16.1080  -37.9890 C.ar  386  TYR386      0.1957
    188  OH        27.6940   17.2800  -37.3960 O.3   386  TYR386     -0.2866
    189  N         26.3510    8.8620  -35.8550 N.3   397  ARG397     -0.1245
    190  CA        25.4330    8.6750  -34.7390 C.3   397  ARG397      0.1563
    191  C         25.0060    7.2230  -34.5480 C.2   397  ARG397      0.2260
    192  O         24.1650    6.9220  -33.6910 O.2   397  ARG397     -0.2867
    193  CB        24.2030    9.5790  -34.9280 C.3   397  ARG397      0.0307
    194  CG        24.5470   11.0720  -34.8810 C.3   397  ARG397      0.0489
    195  CD        23.4610   11.9520  -35.5000 C.3   397  ARG397      0.2205
    196  NE        23.3120   11.7310  -36.9410 N.pl3 397  ARG397     -0.0865
    197  CZ        22.3910   12.3430  -37.6910 C.cat 397  ARG397      0.5346
    198  NH1       21.5540   13.2180  -37.1410 N.pl3 397  ARG397      0.1354
    199  NH2       22.2980   12.0780  -38.9800 N.pl3 397  ARG397      0.1354
    200  N         22.4390    4.2520  -31.8700 N.3   401  ARG401     -0.1245
    201  CA        21.2570    3.7830  -32.5790 C.3   401  ARG401      0.1563
    202  C         21.2320    2.2540  -32.7470 C.2   401  ARG401      0.2260
    203  O         20.3820    1.7220  -33.4620 O.2   401  ARG401     -0.2867
    204  CB        21.1350    4.4380  -33.9700 C.3   401  ARG401      0.0307
    205  CG        20.6290    5.8920  -33.9880 C.3   401  ARG401      0.0489
    206  CD        21.1160    6.6690  -35.2150 C.3   401  ARG401      0.2205
    207  NE        20.8670    8.1120  -35.1290 N.pl3 401  ARG401     -0.0865
    208  CZ        20.7010    8.9140  -36.1810 C.cat 401  ARG401      0.5346
    209  NH1       20.7190    8.4190  -37.4140 N.pl3 401  ARG401      0.1354
    210  NH2       20.4940   10.2160  -36.0000 N.pl3 401  ARG401      0.1354
@<TRIPOS>BOND
     1    61    62    1
     2    63    62    1
     3    63    64    2
     4    62    65    1
     5    65    66    1
     6    53    52    2
     7    66    67    1
     8    52    51    1
     9    23    22    1
    10    23    24    2
    11    42    41    2
    12    22    25    1
    13    22    21    1
    14    25    26    1
    15     1     2    1
    16    68    67    2
    17    67    69   am
    18    41    40    1
    19    50    51    1
    20    51    54    1
    21    43    40    1
    22    43    44    1
    23    26    28   ar
    24    26    27   ar
    25    28    30   ar
    26    54    55    1
    27    40    39    1
    28     2     5    1
    29     2     3    1
    30     5     6    1
    31    46    44   ar
    32    46    48   ar
    33    39    33   am
    34    12    11    2
    35    44    45   ar
    36    11    10    1
    37    31    32    1
    38    27    29   ar
    39     3     4    2
    40    30    29   ar
    41   177   178    1
    42    48    49   ar
    43    55    57   ar
    44    55    56   ar
    45    33    32    1
    46    33    34    2
    47     6     8   ar
    48     6     7   ar
    49    57    59   ar
    50    32    35    1
    51     9    10    1
    52    45    47   ar
    53   178   179    1
    54   178   181    1
    55    10    13    1
    56    56    58   ar
    57   179   180    2
    58    99    98    2
    59    49    47   ar
    60   123   124    1
    61    59    60   ar
    62   129   131   ar
    63   129   128   ar
    64    35    36    1
    65    35    37    1
    66    13    14    1
    67   181   182    1
    68   183   185   ar
    69   183   182   ar
    70   124   127    1
    71   124   125    1
    72   131   133   ar
    73    36    38    1
    74   127   128    1
    75    58    60   ar
    76    98    97    1
    77   185   187   ar
    78   182   184   ar
    79   128   130   ar
    80   102   104   ar
    81   102   101   ar
    82   199   197    1
    83   100    97    1
    84   100   101    1
    85    14    16   ar
    86    14    15   ar
    87   125   126    2
    88   104   106   ar
    89   133   134    1
    90   133   132   ar
    91    97    96    1
    92   101   103   ar
    93   187   188    1
    94   187   186   ar
    95   184   186   ar
    96    88    86   ar
    97    16    18   ar
    98    15    17   ar
    99    94    93    1
   100   130   132   ar
   101   197   198    1
   102   197   196    2
   103   209   208    1
   104   106   105   ar
   105   196   195    1
   106    93    95    1
   107    93    90    1
   108    86    85    1
   109    86    87   ar
   110   103   105   ar
   111    18    19   ar
   112    17    19   ar
   113    92    91    2
   114    85    82    1
   115   208   210    1
   116   208   207    2
   117    84    83    2
   118   189   190    1
   119    19    20    1
   120   195   194    1
   121    90    91    1
   122    90    89    1
   123    83    89   am
   124    83    82    1
   125   206   207    1
   126   206   205    1
   127    82    81    1
   128   193   194    1
   129   193   190    1
   130   122   119    1
   131   190   191    1
   132   191   192    2
   133   175   174   ar
   134   205   204    1
   135   204   201    1
   136    79    78    1
   137   166   168   ar
   138   166   164   ar
   139   168   167   ar
   140   147   146    2
   141   119   120    1
   142   119   118    1
   143   142   141   ar
   144   203   202    2
   145   174   176   ar
   146   174   173    1
   147   117   116    2
   148   120   121    2
   149   113   111    1
   150    73    72    2
   151   162   161    2
   152   202   201    1
   153   146   145    1
   154   141   143   ar
   155   141   140    1
   156   118   116   am
   157    78    80    1
   158    78    77    2
   159   201   200    1
   160   164   163    1
   161   164   165   ar
   162   116   115    1
   163   167   165   ar
   164   173   170    1
   165   145   144    1
   166   170   169    1
   167   170   171    1
   168   111   112    1
   169   111   108    1
   170   163   160    1
   171    72    71    1
   172   138   137    2
   173   172   171    2
   174   161   169   am
   175   161   160    1
   176    76    77    1
   177    76    75    1
   178   115   114    1
   179   139   140    1
   180   139   136    1
   181   107   108    1
   182   160   159    1
   183   108   109    1
   184   137   136    1
   185    70    71    1
   186    71    74    1
   187   110   109    2
   188   158   157   ar
   189   158   156   ar
   190    74    75    1
   191   136   135    1
   192   157   155   ar
   193   156   154   ar
   194   155   153   ar
   195   154   153   ar
   196   153   152    1
   197   152   149    1
   198   148   149    1
   199   149   150    1
   200   150   151    2
