@<TRIPOS>MOLECULE
tmp/3wy3A00.pdb
 136 129 0 0 0
SMALL
GASTEIGER

@<TRIPOS>ATOM
      1  N         -4.5340   -6.8230   26.6030 N.3    59  ASP59      -0.1239
      2  CA        -4.5070   -7.5690   25.3540 C.3    59  ASP59       0.1674
      3  C         -4.9650   -6.6220   24.2520 C.2    59  ASP59       0.2266
      4  O         -5.5510   -7.0360   23.2510 O.2    59  ASP59      -0.2867
      5  CB        -5.3930   -8.8140   25.4290 C.3    59  ASP59       0.1410
      6  CG        -5.1840   -9.7540   24.2560 C.2    59  ASP59       0.3668
      7  OD1       -4.1700   -9.6050   23.5410 O.co2  59  ASP59      -0.2456
      8  OD2       -6.0360  -10.6400   24.0470 O.co2  59  ASP59      -0.2456
      9  N         -8.8660   -6.4510   23.4060 N.3    62  TYR62      -0.1241
     10  CA        -9.5830   -7.7170   23.5070 C.3    62  TYR62       0.1605
     11  C         -9.8710   -8.1130   24.9520 C.2    62  TYR62       0.2264
     12  O        -10.4520   -9.1680   25.2130 O.2    62  TYR62      -0.2867
     13  CB        -8.7980   -8.8230   22.8000 C.3    62  TYR62       0.0534
     14  CG        -8.9180   -8.7610   21.2950 C.ar   62  TYR62      -0.0201
     15  CD1       -9.9930   -9.3520   20.6440 C.ar   62  TYR62      -0.0009
     16  CD2       -7.9710   -8.0940   20.5260 C.ar   62  TYR62      -0.0009
     17  CE1      -10.1160   -9.2920   19.2680 C.ar   62  TYR62       0.0417
     18  CE2       -8.0870   -8.0290   19.1480 C.ar   62  TYR62       0.0417
     19  CZ        -9.1600   -8.6330   18.5270 C.ar   62  TYR62       0.1957
     20  OH        -9.2820   -8.5700   17.1610 O.3    62  TYR62      -0.2866
     21  N        -15.1260  -13.7110   26.5870 N.3   102  HIS102     -0.1241
     22  CA       -14.4580  -13.3820   27.8370 C.3   102  HIS102      0.1621
     23  C        -14.3710  -11.8730   28.0300 C.2   102  HIS102      0.2264
     24  O        -14.3260  -11.1150   27.0620 O.2   102  HIS102     -0.2867
     25  CB       -13.0610  -14.0000   27.8620 C.3   102  HIS102      0.0745
     26  CG       -12.2560  -13.7100   26.6320 C.ar  102  HIS102      0.0817
     27  ND1      -12.1550  -14.6010   25.5850 N.ar  102  HIS102     -0.2268
     28  CD2      -11.5220  -12.6300   26.2810 C.ar  102  HIS102      0.1154
     29  CE1      -11.3900  -14.0800   24.6420 C.ar  102  HIS102      0.1986
     30  NE2      -10.9910  -12.8860   25.0390 N.ar  102  HIS102     -0.2212
     31  N         -1.9610  -18.1070   26.2960 N.3   144  PHE144     -0.1241
     32  CA        -0.9550  -17.0940   26.5940 C.3   144  PHE144      0.1605
     33  C         -0.0330  -17.5140   27.7380 C.2   144  PHE144      0.2264
     34  O          0.6500  -16.6790   28.3320 O.2   144  PHE144     -0.2867
     35  CB        -1.6280  -15.7600   26.9270 C.3   144  PHE144      0.0534
     36  CG        -2.3330  -15.1270   25.7600 C.ar  144  PHE144     -0.0203
     37  CD1       -2.1080  -15.5740   24.4680 C.ar  144  PHE144     -0.0042
     38  CD2       -3.2250  -14.0860   25.9560 C.ar  144  PHE144     -0.0042
     39  CE1       -2.7560  -14.9940   23.3950 C.ar  144  PHE144     -0.0003
     40  CE2       -3.8770  -13.5020   24.8860 C.ar  144  PHE144     -0.0003
     41  CZ        -3.6410  -13.9570   23.6050 C.ar  144  PHE144     -0.0000
     42  N         -7.2000  -17.2190   27.7590 N.3   163  PHE163     -0.1241
     43  CA        -6.1090  -16.3020   27.4570 C.3   163  PHE163      0.1605
     44  C         -5.4980  -15.7250   28.7340 C.2   163  PHE163      0.2264
     45  O         -5.2220  -16.4650   29.6790 O.2   163  PHE163     -0.2867
     46  CB        -6.6040  -15.1940   26.5310 C.3   163  PHE163      0.0534
     47  CG        -7.1880  -15.7060   25.2450 C.ar  163  PHE163     -0.0203
     48  CD1       -6.3650  -16.0330   24.1810 C.ar  163  PHE163     -0.0042
     49  CD2       -8.5540  -15.8810   25.1070 C.ar  163  PHE163     -0.0042
     50  CE1       -6.8960  -16.5090   22.9960 C.ar  163  PHE163     -0.0003
     51  CE2       -9.0910  -16.3570   23.9260 C.ar  163  PHE163     -0.0003
     52  CZ        -8.2620  -16.6710   22.8700 C.ar  163  PHE163     -0.0000
     53  N         -8.2390  -11.8800   31.6180 N.3   167  GLN167     -0.1245
     54  CA        -9.3470  -12.1430   30.7060 C.3   167  GLN167      0.1566
     55  C        -10.1450  -13.3860   31.1050 C.2   167  GLN167      0.2260
     56  O        -10.0760  -14.4100   30.4260 O.2   167  GLN167     -0.2867
     57  CB        -8.8350  -12.2980   29.2710 C.3   167  GLN167      0.0367
     58  CG        -8.3600  -11.0000   28.6410 C.3   167  GLN167      0.0905
     59  CD        -7.6970  -11.2080   27.2930 C.2   167  GLN167      0.2608
     60  OE1       -6.7820  -12.0190   27.1550 O.2   167  GLN167     -0.2717
     61  NE2       -8.1610  -10.4750   26.2890 N.am  167  GLN167     -0.0878
     62  N        -17.5130   -9.1910   13.7650 N.3   197  ARG197     -0.1245
     63  CA       -16.5430  -10.2750   13.7550 C.3   197  ARG197      0.1563
     64  C        -16.5520  -10.9170   15.1350 C.2   197  ARG197      0.2260
     65  O        -16.2550  -10.2580   16.1300 O.2   197  ARG197     -0.2867
     66  CB       -15.1460   -9.7680   13.3890 C.3   197  ARG197      0.0307
     67  CG       -14.0540  -10.8370   13.3950 C.3   197  ARG197      0.0489
     68  CD       -13.3230  -10.8830   14.7300 C.3   197  ARG197      0.2205
     69  NE       -12.1140  -11.6980   14.6710 N.pl3 197  ARG197     -0.0865
     70  CZ       -11.2670  -11.8470   15.6840 C.cat 197  ARG197      0.5346
     71  NH1      -11.5000  -11.2370   16.8380 N.pl3 197  ARG197      0.1354
     72  NH2      -10.1890  -12.6050   15.5450 N.pl3 197  ARG197      0.1354
     73  N        -15.0870  -12.8420   17.8970 N.3   199  ASN199     -0.1225
     74  CA       -13.8510  -13.3360   18.4920 C.3   199  ASN199      0.1785
     75  C        -14.0040  -14.7280   19.0930 C.2   199  ASN199      0.2597
     76  O        -14.8780  -14.9440   19.9330 O.2   199  ASN199     -0.2718
     77  CB       -13.3660  -12.3660   19.5680 C.3   199  ASN199      0.1169
     78  CG       -11.9290  -12.6130   19.9600 C.2   199  ASN199      0.2627
     79  OD1      -11.0900  -12.9030   19.1120 O.2   199  ASN199     -0.2716
     80  ND2      -11.6390  -12.5130   21.2510 N.am  199  ASN199     -0.0877
     81  N        -13.1250  -15.6450   18.6840 N.am  200  THR200     -0.1953
     82  CA       -13.1140  -17.0290   19.1670 C.3   200  THR200      0.1897
     83  C        -14.5180  -17.6060   19.3390 C.2   200  THR200      0.2313
     84  O        -14.9040  -18.0100   20.4350 O.2   200  THR200     -0.2863
     85  CB       -12.3580  -17.1510   20.5060 C.3   200  THR200      0.1794
     86  OG1      -12.8770  -16.2060   21.4500 O.3   200  THR200     -0.2208
     87  CG2      -10.8750  -16.8980   20.3060 C.3   200  THR200      0.0378
     88  N        -14.5410  -16.2380   14.1200 N.3   268  GLU268     -0.1245
     89  CA       -13.1620  -16.7020   14.1530 C.3   268  GLU268      0.1567
     90  C        -13.0780  -18.0990   14.7560 C.2   268  GLU268      0.2260
     91  O        -13.4880  -18.3180   15.8960 O.2   268  GLU268     -0.2867
     92  CB       -12.2900  -15.7350   14.9450 C.3   268  GLU268      0.0388
     93  CG       -10.8650  -16.2130   15.1340 C.3   268  GLU268      0.1160
     94  CD       -10.2180  -15.5910   16.3480 C.2   268  GLU268      0.3649
     95  OE1      -10.9290  -14.8750   17.0860 O.co2 268  GLU268     -0.2457
     96  OE2       -9.0090  -15.8180   16.5660 O.co2 268  GLU268     -0.2457
     97  N         -4.1730   -9.5130   12.5970 N.3   329  HIS329     -0.1226
     98  CA        -3.3980   -8.9700   13.7080 C.3   329  HIS329      0.1752
     99  C         -2.7730  -10.0520   14.5900 C.2   329  HIS329      0.2596
    100  O         -2.1120   -9.7410   15.5790 O.2   329  HIS329     -0.2718
    101  CB        -4.2800   -8.0560   14.5600 C.3   329  HIS329      0.0759
    102  CG        -5.4140   -8.7670   15.2200 C.ar  329  HIS329      0.0818
    103  ND1       -6.4520   -9.3300   14.5220 N.ar  329  HIS329     -0.2268
    104  CD2       -5.6740   -9.0090   16.5360 C.ar  329  HIS329      0.1154
    105  CE1       -7.3060   -9.8940   15.3620 C.ar  329  HIS329      0.1986
    106  NE2       -6.8460   -9.7060   16.5910 N.ar  329  HIS329     -0.2212
    107  N         -2.9810  -11.3170   14.2380 N.am  330  ASP330     -0.1974
    108  CA        -2.4920  -12.4150   15.0670 C.3   330  ASP330      0.1709
    109  C         -1.3920  -13.2370   14.4090 C.2   330  ASP330      0.2293
    110  O         -0.7880  -14.0950   15.0520 O.2   330  ASP330     -0.2864
    111  CB        -3.6420  -13.3420   15.4450 C.3   330  ASP330      0.1436
    112  CG        -4.6230  -12.6910   16.3890 C.2   330  ASP330      0.3671
    113  OD1       -4.1890  -11.9110   17.2650 O.co2 330  ASP330     -0.2456
    114  OD2       -5.8300  -12.9570   16.2440 O.co2 330  ASP330     -0.2456
    115  N          3.0250  -10.9720   18.4230 N.3   397  ARG397     -0.1245
    116  CA         2.2690  -10.5530   17.2520 C.3   397  ARG397      0.1563
    117  C          2.5400   -9.0980   16.8740 C.2   397  ARG397      0.2260
    118  O          1.9170   -8.5650   15.9580 O.2   397  ARG397     -0.2867
    119  CB         0.7730  -10.7570   17.5050 C.3   397  ARG397      0.0307
    120  CG         0.3720  -12.2110   17.7220 C.3   397  ARG397      0.0489
    121  CD        -1.0040  -12.3200   18.3610 C.3   397  ARG397      0.2205
    122  NE        -1.0600  -11.6880   19.6760 N.pl3 397  ARG397     -0.0865
    123  CZ        -2.1570  -11.6190   20.4230 C.cat 397  ARG397      0.5346
    124  NH1       -3.2950  -12.1410   19.9850 N.pl3 397  ARG397      0.1354
    125  NH2       -2.1180  -11.0230   21.6070 N.pl3 397  ARG397      0.1354
    126  N          1.6170   -5.6070   13.7480 N.3   401  ARG401     -0.1245
    127  CA         0.8030   -4.5720   14.3770 C.3   401  ARG401      0.1563
    128  C          1.4990   -3.2150   14.3530 C.2   401  ARG401      0.2260
    129  O          1.0380   -2.2620   14.9780 O.2   401  ARG401     -0.2867
    130  CB         0.4620   -4.9620   15.8180 C.3   401  ARG401      0.0307
    131  CG        -0.6570   -5.9850   15.9360 C.3   401  ARG401      0.0489
    132  CD        -0.4690   -6.8710   17.1590 C.3   401  ARG401      0.2205
    133  NE        -1.5490   -6.7200   18.1300 N.pl3 401  ARG401     -0.0865
    134  CZ        -2.1960   -7.7360   18.6940 C.cat 401  ARG401      0.5346
    135  NH1       -1.8790   -8.9850   18.3850 N.pl3 401  ARG401      0.1354
    136  NH2       -3.1640   -7.5040   19.5700 N.pl3 401  ARG401      0.1354
@<TRIPOS>BOND
     1    97    98    1
     2    66    67    1
     3    66    63    1
     4    67    68    1
     5    98   101    1
     6    98    99    1
     7   126   127    1
     8    63    62    1
     9    63    64    1
    10    88    89    1
    11    89    90    1
    12    89    92    1
    13   107    99   am
    14   107   108    1
    15   128   127    1
    16   128   129    2
    17   127   130    1
    18   109   110    2
    19   109   108    1
    20   103   102   ar
    21   103   105   ar
    22   101   102    1
    23    99   100    2
    24    69    68    1
    25    69    70    2
    26    90    91    2
    27    92    93    1
    28   108   111    1
    29    93    94    1
    30    64    65    2
    31   102   104   ar
    32   105   106   ar
    33   111   112    1
    34    72    70    1
    35    70    71    1
    36   130   131    1
    37   131   132    1
    38   118   117    2
    39   114   112   ar
    40    94    96   ar
    41    94    95   ar
    42   112   113   ar
    43   104   106   ar
    44   117   116    1
    45   132   133    1
    46    20    19    1
    47   116   119    1
    48   116   115    1
    49   119   120    1
    50   120   121    1
    51    73    74    1
    52   133   134    2
    53   121   122    1
    54   135   134    1
    55    74    75    1
    56    74    77    1
    57    19    18   ar
    58    19    17   ar
    59    81    75   am
    60    81    82    1
    61   134   136    1
    62    75    76    2
    63    79    78    2
    64    18    16   ar
    65    82    83    1
    66    82    85    1
    67    17    15   ar
    68    83    84    2
    69    77    78    1
    70   122   123    2
    71    78    80   am
    72   124   123    1
    73    87    85    1
    74   123   125    1
    75    85    86    1
    76    16    14   ar
    77    15    14   ar
    78    14    13    1
    79    13    10    1
    80    52    50   ar
    81    52    51   ar
    82    50    48   ar
    83     4     3    2
    84    39    41   ar
    85    39    37   ar
    86     9    10    1
    87    10    11    1
    88     7     6   ar
    89    41    40   ar
    90    51    49   ar
    91     8     6   ar
    92    48    47   ar
    93     3     2    1
    94     6     5    1
    95    37    36   ar
    96    29    30   ar
    97    29    27   ar
    98    40    38   ar
    99    11    12    2
   100    30    28   ar
   101    49    47   ar
   102    47    46    1
   103     2     5    1
   104     2     1    1
   105    27    26   ar
   106    36    38   ar
   107    36    35    1
   108    28    26   ar
   109    61    59   am
   110    31    32    1
   111    46    43    1
   112    21    22    1
   113    32    35    1
   114    32    33    1
   115    26    25    1
   116    24    23    2
   117    60    59    2
   118    59    58    1
   119    43    42    1
   120    43    44    1
   121    33    34    2
   122    22    25    1
   123    22    23    1
   124    58    57    1
   125    44    45    2
   126    57    54    1
   127    56    55    2
   128    54    55    1
   129    54    53    1
