@<TRIPOS>MOLECULE
tmp/3wy4A00.pdb
 198 189 0 0 0
SMALL
GASTEIGER

@<TRIPOS>ATOM
      1  N         24.7310  -16.2200  -23.1300 N.3    59  ASP59      -0.1239
      2  CA        25.7850  -17.0590  -22.5740 C.3    59  ASP59       0.1674
      3  C         26.9360  -16.1560  -22.1390 C.2    59  ASP59       0.2266
      4  O         28.0620  -16.6100  -21.9310 O.2    59  ASP59      -0.2867
      5  CB        26.2550  -18.0990  -23.5950 C.3    59  ASP59       0.1410
      6  CG        27.0830  -19.2060  -22.9620 C.2    59  ASP59       0.3668
      7  OD1       27.0260  -19.3580  -21.7240 O.co2  59  ASP59      -0.2456
      8  OD2       27.7860  -19.9250  -23.7030 O.co2  59  ASP59      -0.2456
      9  N         29.7770  -15.6690  -25.1350 N.3    62  TYR62      -0.1241
     10  CA        30.0010  -16.8130  -26.0150 C.3    62  TYR62       0.1605
     11  C         28.8780  -17.0370  -27.0280 C.2    62  TYR62       0.2264
     12  O         28.8780  -18.0280  -27.7580 O.2    62  TYR62      -0.2867
     13  CB        30.2720  -18.0790  -25.1980 C.3    62  TYR62       0.0534
     14  CG        31.6090  -18.0500  -24.4930 C.ar   62  TYR62      -0.0201
     15  CD1       32.7510  -18.5410  -25.1120 C.ar   62  TYR62      -0.0009
     16  CD2       31.7320  -17.5200  -23.2160 C.ar   62  TYR62      -0.0009
     17  CE1       33.9770  -18.5110  -24.4770 C.ar   62  TYR62       0.0417
     18  CE2       32.9550  -17.4870  -22.5720 C.ar   62  TYR62       0.0417
     19  CZ        34.0730  -17.9860  -23.2070 C.ar   62  TYR62       0.1957
     20  OH        35.2930  -17.9520  -22.5720 O.3    62  TYR62      -0.2866
     21  N         30.0490  -21.7510  -32.9930 N.3   102  HIS102     -0.1241
     22  CA        28.6410  -21.3780  -32.9840 C.3   102  HIS102      0.1621
     23  C         28.4680  -19.8720  -32.8300 C.2   102  HIS102      0.2264
     24  O         29.2790  -19.2060  -32.1860 O.2   102  HIS102     -0.2867
     25  CB        27.8990  -22.1120  -31.8640 C.3   102  HIS102      0.0745
     26  CG        28.5610  -21.9990  -30.5260 C.ar  102  HIS102      0.0817
     27  ND1       29.3590  -22.9940  -30.0040 N.ar  102  HIS102     -0.2268
     28  CD2       28.5460  -21.0060  -29.6040 C.ar  102  HIS102      0.1154
     29  CE1       29.8060  -22.6210  -28.8180 C.ar  102  HIS102      0.1986
     30  NE2       29.3280  -21.4190  -28.5520 N.ar  102  HIS102     -0.2212
     31  N         24.4980  -29.5500  -24.0090 N.3   143  ILE143     -0.1231
     32  CA        25.1910  -29.5040  -22.7270 C.3   143  ILE143      0.1692
     33  C         24.4130  -28.6650  -21.7160 C.2   143  ILE143      0.2592
     34  O         24.3890  -28.9720  -20.5230 O.2   143  ILE143     -0.2718
     35  CB        26.6200  -28.9470  -22.8900 C.3   143  ILE143      0.0266
     36  CG1       27.4000  -29.7970  -23.8940 C.3   143  ILE143      0.0019
     37  CG2       27.3440  -28.9000  -21.5520 C.3   143  ILE143      0.0020
     38  CD1       28.8190  -29.3400  -24.1200 C.3   143  ILE143      0.0001
     39  N         23.7580  -27.6170  -22.2050 N.am  144  PHE144     -0.1976
     40  CA        23.0030  -26.7180  -21.3410 C.3   144  PHE144      0.1639
     41  C         21.5590  -27.1740  -21.1300 C.2   144  PHE144      0.2290
     42  O         20.7360  -26.4260  -20.6040 O.2   144  PHE144     -0.2864
     43  CB        23.0410  -25.2880  -21.8880 C.3   144  PHE144      0.0560
     44  CG        24.4060  -24.6590  -21.8460 C.ar  144  PHE144     -0.0200
     45  CD1       25.3760  -25.1340  -20.9790 C.ar  144  PHE144     -0.0042
     46  CD2       24.7180  -23.5920  -22.6710 C.ar  144  PHE144     -0.0042
     47  CE1       26.6320  -24.5580  -20.9370 C.ar  144  PHE144     -0.0003
     48  CE2       25.9720  -23.0110  -22.6330 C.ar  144  PHE144     -0.0003
     49  CZ        26.9300  -23.4950  -21.7650 C.ar  144  PHE144     -0.0000
     50  N         24.9540  -26.1950  -27.3580 N.3   163  PHE163     -0.1241
     51  CA        24.7450  -25.4250  -26.1400 C.3   163  PHE163      0.1605
     52  C         23.3530  -24.7970  -26.1300 C.2   163  PHE163      0.2264
     53  O         22.3570  -25.4940  -26.3290 O.2   163  PHE163     -0.2867
     54  CB        25.8370  -24.3650  -25.9910 C.3   163  PHE163      0.0534
     55  CG        27.2270  -24.9360  -25.9520 C.ar  163  PHE163     -0.0203
     56  CD1       27.7880  -25.3420  -24.7530 C.ar  163  PHE163     -0.0042
     57  CD2       27.9670  -25.0780  -27.1150 C.ar  163  PHE163     -0.0042
     58  CE1       29.0640  -25.8740  -24.7130 C.ar  163  PHE163     -0.0003
     59  CE2       29.2440  -25.6090  -27.0830 C.ar  163  PHE163     -0.0003
     60  CZ        29.7930  -26.0070  -25.8800 C.ar  163  PHE163     -0.0000
     61  N         22.2760  -20.5050  -29.5360 N.3   167  GLN167     -0.1245
     62  CA        23.6400  -20.6990  -30.0170 C.3   167  GLN167      0.1566
     63  C         23.7080  -21.7770  -31.0970 C.2   167  GLN167      0.2260
     64  O         24.2470  -22.8580  -30.8610 O.2   167  GLN167     -0.2867
     65  CB        24.5720  -21.0590  -28.8580 C.3   167  GLN167      0.0367
     66  CG        24.9270  -19.8880  -27.9570 C.3   167  GLN167      0.0905
     67  CD        25.7330  -20.3080  -26.7430 C.2   167  GLN167      0.2608
     68  OE1       25.3320  -21.2010  -25.9970 O.2   167  GLN167     -0.2717
     69  NE2       26.8780  -19.6670  -26.5410 N.am  167  GLN167     -0.0878
     70  N         42.4390  -17.8750  -27.8910 N.3   197  ARG197     -0.1245
     71  CA        41.9420  -19.0350  -27.1680 C.3   197  ARG197      0.1563
     72  C         40.7790  -19.5860  -27.9780 C.2   197  ARG197      0.2260
     73  O         39.7590  -18.9180  -28.1440 O.2   197  ARG197     -0.2867
     74  CB        41.4880  -18.6570  -25.7560 C.3   197  ARG197      0.0307
     75  CG        40.9710  -19.8280  -24.9200 C.3   197  ARG197      0.0489
     76  CD        39.4570  -19.9920  -25.0400 C.3   197  ARG197      0.2205
     77  NE        38.9190  -20.9250  -24.0540 N.pl3 197  ARG197     -0.0865
     78  CZ        37.6230  -21.1690  -23.8880 C.cat 197  ARG197      0.5346
     79  NH1       36.7290  -20.5490  -24.6460 N.pl3 197  ARG197      0.1354
     80  NH2       37.2210  -22.0310  -22.9650 N.pl3 197  ARG197      0.1354
     81  N         37.6630  -21.4660  -28.5450 N.3   199  ASP199     -0.1225
     82  CA        36.5130  -21.9830  -27.8170 C.3   199  ASP199      0.1805
     83  C         35.9500  -23.2440  -28.4610 C.2   199  ASP199      0.2598
     84  O         35.6670  -23.2580  -29.6590 O.2   199  ASP199     -0.2718
     85  CB        35.4260  -20.9100  -27.7480 C.3   199  ASP199      0.1424
     86  CG        34.2170  -21.3590  -26.9630 C.2   199  ASP199      0.3668
     87  OD1       34.3280  -21.4570  -25.7260 O.co2 199  ASP199     -0.2456
     88  OD2       33.1570  -21.6050  -27.5760 O.co2 199  ASP199     -0.2456
     89  N         35.7830  -24.2910  -27.6520 N.am  200  THR200     -0.1953
     90  CA        35.2360  -25.5710  -28.1060 C.3   200  THR200      0.1897
     91  C         35.9280  -26.0520  -29.3770 C.2   200  THR200      0.2313
     92  O         35.2740  -26.3410  -30.3780 O.2   200  THR200     -0.2863
     93  CB        33.7180  -25.4810  -28.3660 C.3   200  THR200      0.1794
     94  OG1       33.4780  -24.7020  -29.5420 O.3   200  THR200     -0.2208
     95  CG2       33.0050  -24.8410  -27.1860 C.3   200  THR200      0.0378
     96  N         34.9030  -29.1340  -31.2640 N.3   203  PHE203     -0.1241
     97  CA        33.4780  -29.1740  -31.5720 C.3   203  PHE203      0.1605
     98  C         33.1670  -28.7740  -33.0090 C.2   203  PHE203      0.2264
     99  O         32.0360  -28.9240  -33.4540 O.2   203  PHE203     -0.2867
    100  CB        32.7010  -28.2580  -30.6210 C.3   203  PHE203      0.0534
    101  CG        32.4090  -28.8730  -29.2830 C.ar  203  PHE203     -0.0203
    102  CD1       31.1240  -29.2760  -28.9600 C.ar  203  PHE203     -0.0042
    103  CD2       33.4160  -29.0450  -28.3480 C.ar  203  PHE203     -0.0042
    104  CE1       30.8470  -29.8380  -27.7300 C.ar  203  PHE203     -0.0003
    105  CE2       33.1450  -29.6080  -27.1150 C.ar  203  PHE203     -0.0003
    106  CZ        31.8590  -30.0050  -26.8060 C.ar  203  PHE203     -0.0000
    107  N         34.0260  -32.7830  -18.6190 N.3   225  GLY225     -0.1225
    108  CA        33.5920  -31.4670  -19.0490 C.3   225  GLY225      0.1811
    109  C         32.1740  -31.1200  -18.6380 C.2   225  GLY225      0.2280
    110  O         31.6230  -30.1110  -19.0820 O.2   225  GLY225     -0.2866
    111  N         23.8990  -35.2770  -20.3080 N.3   232  TYR232     -0.1241
    112  CA        24.8990  -35.2270  -21.3700 C.3   232  TYR232      0.1605
    113  C         26.0090  -36.2510  -21.1380 C.2   232  TYR232      0.2264
    114  O         26.6670  -36.6940  -22.0790 O.2   232  TYR232     -0.2867
    115  CB        25.4870  -33.8140  -21.4510 C.3   232  TYR232      0.0534
    116  CG        26.5360  -33.6110  -22.5220 C.ar  232  TYR232     -0.0201
    117  CD1       26.1740  -33.3310  -23.8330 C.ar  232  TYR232     -0.0009
    118  CD2       27.8900  -33.6750  -22.2160 C.ar  232  TYR232     -0.0009
    119  CE1       27.1290  -33.1340  -24.8130 C.ar  232  TYR232      0.0417
    120  CE2       28.8530  -33.4800  -23.1880 C.ar  232  TYR232      0.0417
    121  CZ        28.4680  -33.2110  -24.4850 C.ar  232  TYR232      0.1957
    122  OH        29.4240  -33.0170  -25.4550 O.3   232  TYR232     -0.2866
    123  N         40.4000  -25.1650  -26.3140 N.3   268  GLN268     -0.1245
    124  CA        39.6810  -25.7450  -25.1890 C.3   268  GLN268      0.1566
    125  C         39.1130  -27.0980  -25.5940 C.2   268  GLN268      0.2260
    126  O         38.2330  -27.1780  -26.4510 O.2   268  GLN268     -0.2867
    127  CB        38.5520  -24.8260  -24.7320 C.3   268  GLN268      0.0367
    128  CG        37.8350  -25.3190  -23.4870 C.3   268  GLN268      0.0905
    129  CD        36.3500  -25.0250  -23.5160 C.2   268  GLN268      0.2608
    130  OE1       35.7270  -25.0200  -24.5780 O.2   268  GLN268     -0.2717
    131  NE2       35.7730  -24.7740  -22.3460 N.am  268  GLN268     -0.0878
    132  N         36.9850  -30.4500  -25.0550 N.3   270  GLY270     -0.1225
    133  CA        35.8820  -31.0800  -24.3520 C.3   270  GLY270      0.1811
    134  C         35.5880  -32.4230  -24.9910 C.2   270  GLY270      0.2280
    135  O         34.8140  -32.5100  -25.9440 O.2   270  GLY270     -0.2866
    136  N         39.9860  -30.7560  -19.0670 N.3   294  PHE294     -0.1241
    137  CA        39.3010  -30.7040  -17.7790 C.3   294  PHE294      0.1605
    138  C         39.9310  -31.6450  -16.7560 C.2   294  PHE294      0.2264
    139  O         39.3780  -31.8540  -15.6760 O.2   294  PHE294     -0.2867
    140  CB        37.8200  -31.0510  -17.9460 C.3   294  PHE294      0.0534
    141  CG        36.9840  -29.9190  -18.4690 C.ar  294  PHE294     -0.0203
    142  CD1       36.2900  -29.0950  -17.5980 C.ar  294  PHE294     -0.0042
    143  CD2       36.8870  -29.6800  -19.8300 C.ar  294  PHE294     -0.0042
    144  CE1       35.5170  -28.0530  -18.0740 C.ar  294  PHE294     -0.0003
    145  CE2       36.1160  -28.6390  -20.3120 C.ar  294  PHE294     -0.0003
    146  CZ        35.4300  -27.8240  -19.4320 C.ar  294  PHE294     -0.0000
    147  N         36.5170  -19.8030  -16.0910 N.3   329  HIS329     -0.1226
    148  CA        35.1680  -19.2630  -15.9770 C.3   329  HIS329      0.1752
    149  C         34.0920  -20.3420  -16.0870 C.2   329  HIS329      0.2596
    150  O         32.9020  -20.0340  -16.1290 O.2   329  HIS329     -0.2718
    151  CB        34.9400  -18.2070  -17.0590 C.3   329  HIS329      0.0759
    152  CG        34.9960  -18.7540  -18.4510 C.ar  329  HIS329      0.0818
    153  ND1       36.1270  -19.3450  -18.9730 N.ar  329  HIS329     -0.2268
    154  CD2       34.0600  -18.8060  -19.4280 C.ar  329  HIS329      0.1154
    155  CE1       35.8850  -19.7370  -20.2110 C.ar  329  HIS329      0.1986
    156  NE2       34.6390  -19.4210  -20.5120 N.ar  329  HIS329     -0.2212
    157  N         34.5090  -21.6040  -16.1330 N.am  330  ASP330     -0.1974
    158  CA        33.5660  -22.7030  -16.3240 C.3   330  ASP330      0.1709
    159  C         33.4910  -23.6600  -15.1410 C.2   330  ASP330      0.2293
    160  O         32.5640  -24.4650  -15.0480 O.2   330  ASP330     -0.2864
    161  CB        33.9120  -23.4910  -17.5880 C.3   330  ASP330      0.1436
    162  CG        33.6250  -22.7170  -18.8520 C.2   330  ASP330      0.3671
    163  OD1       32.6350  -21.9560  -18.8760 O.co2 330  ASP330     -0.2456
    164  OD2       34.3920  -22.8730  -19.8220 O.co2 330  ASP330     -0.2456
    165  N         23.0120  -21.7910  -17.3810 N.3   386  TYR386     -0.1241
    166  CA        23.4420  -23.1450  -17.0530 C.3   386  TYR386      0.1605
    167  C         23.1520  -23.4490  -15.5840 C.2   386  TYR386      0.2264
    168  O         23.1700  -24.6050  -15.1610 O.2   386  TYR386     -0.2867
    169  CB        24.9380  -23.2990  -17.3400 C.3   386  TYR386      0.0534
    170  CG        25.4170  -24.7270  -17.4860 C.ar  386  TYR386     -0.0201
    171  CD1       24.5190  -25.7790  -17.6140 C.ar  386  TYR386     -0.0009
    172  CD2       26.7750  -25.0220  -17.4920 C.ar  386  TYR386     -0.0009
    173  CE1       24.9590  -27.0830  -17.7470 C.ar  386  TYR386      0.0417
    174  CE2       27.2240  -26.3220  -17.6250 C.ar  386  TYR386      0.0417
    175  CZ        26.3130  -27.3480  -17.7510 C.ar  386  TYR386      0.1957
    176  OH        26.7580  -28.6440  -17.8830 O.3   386  TYR386     -0.2866
    177  N         27.8470  -21.6000  -13.1430 N.3   397  ARG397     -0.1245
    178  CA        29.2440  -21.1850  -13.1180 C.3   397  ARG397      0.1563
    179  C         29.4370  -19.7830  -12.5420 C.2   397  ARG397      0.2260
    180  O         30.5500  -19.2610  -12.5350 O.2   397  ARG397     -0.2867
    181  CB        29.8320  -21.2520  -14.5300 C.3   397  ARG397      0.0307
    182  CG        29.7700  -22.6360  -15.1600 C.3   397  ARG397      0.0489
    183  CD        29.9030  -22.5640  -16.6730 C.3   397  ARG397      0.2205
    184  NE        28.7600  -21.8940  -17.2880 N.pl3 397  ARG397     -0.0865
    185  CZ        28.6290  -21.6840  -18.5940 C.cat 397  ARG397      0.5346
    186  NH1       29.5730  -22.0910  -19.4310 N.pl3 397  ARG397      0.1354
    187  NH2       27.5530  -21.0670  -19.0630 N.pl3 397  ARG397      0.1354
    188  N         32.5590  -16.4440  -11.2320 N.3   401  ARG401     -0.1245
    189  CA        32.4540  -15.2590  -12.0760 C.3   401  ARG401      0.1563
    190  C         32.0350  -14.0080  -11.3050 C.2   401  ARG401      0.2260
    191  O         31.6360  -13.0070  -11.9000 O.2   401  ARG401     -0.2867
    192  CB        31.5100  -15.5200  -13.2550 C.3   401  ARG401      0.0307
    193  CG        32.1960  -16.2030  -14.4280 C.3   401  ARG401      0.0489
    194  CD        31.4350  -17.4230  -14.9200 C.3   401  ARG401      0.2205
    195  NE        30.2920  -17.0810  -15.7600 N.pl3 401  ARG401     -0.0865
    196  CZ        29.9080  -17.7930  -16.8150 C.cat 401  ARG401      0.5346
    197  NH1       30.5820  -18.8820  -17.1620 N.pl3 401  ARG401      0.1354
    198  NH2       28.8550  -17.4160  -17.5270 N.pl3 401  ARG401      0.1354
@<TRIPOS>BOND
     1    99    98    2
     2    98    97    1
     3    21    22    1
     4    22    23    1
     5    22    25    1
     6    23    24    2
     7    25    26    1
     8    97    96    1
     9    97   100    1
    10    63    64    2
    11    63    62    1
    12   100   101    1
    13    26    27   ar
    14    26    28   ar
    15    92    91    2
    16    62    61    1
    17    62    65    1
    18    27    29   ar
    19    84    83    2
    20    28    30   ar
    21    94    93    1
    22    91    90    1
    23   101   102   ar
    24   101   103   ar
    25   102   104   ar
    26    65    66    1
    27    29    30   ar
    28    81    82    1
    29    83    82    1
    30    83    89   am
    31    93    90    1
    32    93    95    1
    33   103   105   ar
    34    73    72    2
    35    90    89    1
    36    72    71    1
    37    66    67    1
    38    70    71    1
    39    82    85    1
    40    12    11    2
    41    85    86    1
    42   104   106   ar
    43    88    86   ar
    44    50    51    1
    45    71    74    1
    46   105   106   ar
    47    57    59   ar
    48    57    55   ar
    49    59    60   ar
    50    11    10    1
    51    86    87   ar
    52    67    69   am
    53    67    68    2
    54   126   125    2
    55    53    52    2
    56   123   124    1
    57    51    52    1
    58    51    54    1
    59    10    13    1
    60    10     9    1
    61    54    55    1
    62    55    56   ar
    63   135   134    2
    64    60    58   ar
    65    74    75    1
    66   125   124    1
    67   122   121    1
    68    13    14    1
    69   124   127    1
    70    15    14   ar
    71    15    17   ar
    72   132   133    1
    73    76    75    1
    74    76    77    1
    75   134   133    1
    76   119   121   ar
    77   119   117   ar
    78    56    58   ar
    79   127   128    1
    80    79    78    1
    81   130   129    2
    82    14    16   ar
    83   121   120   ar
    84    17    19   ar
    85    38    36    1
    86    77    78    2
    87    31    32    1
    88    36    35    1
    89    78    80    1
    90   117   116   ar
    91     8     6   ar
    92     5     6    1
    93     5     2    1
    94   129   128    1
    95   129   131   am
    96    16    18   ar
    97    19    18   ar
    98    19    20    1
    99   120   118   ar
   100     1     2    1
   101     6     7   ar
   102    35    32    1
   103    35    37    1
   104    32    33    1
   105    46    48   ar
   106    46    44   ar
   107    48    49   ar
   108     2     3    1
   109   116   118   ar
   110   116   115    1
   111    39    33   am
   112    39    40    1
   113     3     4    2
   114   114   113    2
   115    43    44    1
   116    43    40    1
   117    44    45   ar
   118    49    47   ar
   119    33    34    2
   120   115   112    1
   121   112   113    1
   122   112   111    1
   123    40    41    1
   124    41    42    2
   125    45    47   ar
   126   156   155   ar
   127   156   154   ar
   128   145   143   ar
   129   145   146   ar
   130   155   153   ar
   131   143   141   ar
   132   164   162   ar
   133   146   144   ar
   134   186   185    1
   135   154   152   ar
   136   110   109    2
   137   136   137    1
   138   187   185    1
   139   108   109    1
   140   108   107    1
   141   153   152   ar
   142   163   162   ar
   143   162   161    1
   144   185   184    2
   145   141   140    1
   146   141   142   ar
   147   152   151    1
   148   144   142   ar
   149   140   137    1
   150   176   175    1
   151   137   138    1
   152   175   173   ar
   153   175   174   ar
   154   173   171   ar
   155   174   172   ar
   156   171   170   ar
   157   161   158    1
   158   198   196    1
   159   172   170   ar
   160   170   169    1
   161   165   166    1
   162   169   166    1
   163   184   183    1
   164   197   196    1
   165   151   148    1
   166   166   167    1
   167   196   195    2
   168   138   139    2
   169   183   182    1
   170   158   157    1
   171   158   159    1
   172   157   149   am
   173   150   149    2
   174   147   148    1
   175   149   148    1
   176   195   194    1
   177   167   168    2
   178   182   181    1
   179   159   160    2
   180   194   193    1
   181   181   178    1
   182   193   192    1
   183   192   189    1
   184   177   178    1
   185   178   179    1
   186   179   180    2
   187   189   190    1
   188   189   188    1
   189   191   190    2
