@<TRIPOS>MOLECULE
tmp/3wy6A04.pdb
 143 142 0 0 0
SMALL
GASTEIGER

@<TRIPOS>ATOM
      1  N         35.0960   13.3660   -0.7470 N.3    13  TRP13      -0.1241
      2  CA        34.5940   13.1080    0.6180 C.3    13  TRP13       0.1605
      3  C         35.6740   12.9310    1.6670 C.2    13  TRP13       0.2264
      4  O         35.7290   11.9020    2.3440 O.2    13  TRP13      -0.2867
      5  CB        33.6700   11.8860    0.6270 C.3    13  TRP13       0.0550
      6  CG        32.4930   12.0310   -0.3100 C.ar   13  TRP13       0.0003
      7  CD1       32.4490   11.5990   -1.6240 C.ar   13  TRP13       0.0946
      8  CD2       31.2290   12.7160   -0.0590 C.ar   13  TRP13       0.0152
      9  NE1       31.2160   11.8840   -2.1670 N.ar   13  TRP13      -0.2442
     10  CE2       30.4450   12.5810   -1.2370 C.ar   13  TRP13       0.0810
     11  CE3       30.6850   13.3960    1.0400 C.ar   13  TRP13       0.0012
     12  CZ2       29.0990   13.1060   -1.3290 C.ar   13  TRP13       0.0191
     13  CZ3       29.3500   13.8670    0.9690 C.ar   13  TRP13       0.0001
     14  CH2       28.5980   13.7440   -0.2190 C.ar   13  TRP13       0.0015
     15  N         34.9650   15.5150    9.0660 N.3    31  GLU31      -0.1245
     16  CA        34.6060   15.3850    7.6430 C.3    31  GLU31       0.1567
     17  C         34.4560   16.7600    7.0500 C.2    31  GLU31       0.2260
     18  O         33.8310   17.6600    7.6300 O.2    31  GLU31      -0.2867
     19  CB        33.2420   14.6470    7.4440 C.3    31  GLU31       0.0388
     20  CG        33.2670   13.1820    7.9160 C.3    31  GLU31       0.1160
     21  CD        31.9360   12.4600    7.6880 C.2    31  GLU31       0.3649
     22  OE1       31.0810   13.0930    7.0050 O.co2  31  GLU31      -0.2457
     23  OE2       31.7410   11.3510    8.2360 O.co2  31  GLU31      -0.2457
     24  N         32.7880   17.1710    4.1730 N.3    33  ASN33      -0.1240
     25  CA        31.3220   17.0540    4.0540 C.3    33  ASN33       0.1653
     26  C         30.6660   18.1330    3.1990 C.2    33  ASN33       0.2266
     27  O         29.6230   18.7410    3.6050 O.2    33  ASN33      -0.2867
     28  CB        30.6450   16.9280    5.4290 C.3    33  ASN33       0.1155
     29  CG        29.2150   16.3750    5.3230 C.2    33  ASN33       0.2627
     30  OD1       28.9010   15.6080    4.4190 O.2    33  ASN33      -0.2716
     31  ND2       28.3700   16.7590    6.2870 N.am   33  ASN33      -0.0877
     32  N         28.5510   18.0840    1.0120 N.3    35  TRP35      -0.1241
     33  CA        27.5900   17.0670    0.5290 C.3    35  TRP35       0.1605
     34  C         26.7490   17.5190   -0.6480 C.2    35  TRP35       0.2264
     35  O         26.2660   16.6620   -1.4210 O.2    35  TRP35      -0.2867
     36  CB        26.8180   16.4540    1.6990 C.3    35  TRP35       0.0550
     37  CG        25.9250   17.4140    2.4030 C.ar   35  TRP35       0.0003
     38  CD1       26.1780   18.0240    3.5970 C.ar   35  TRP35       0.0946
     39  CD2       24.5800   17.7980    2.0260 C.ar   35  TRP35       0.0152
     40  NE1       25.1040   18.8030    3.9610 N.ar   35  TRP35      -0.2442
     41  CE2       24.1100   18.6690    3.0280 C.ar   35  TRP35       0.0810
     42  CE3       23.7280   17.4730    0.9340 C.ar   35  TRP35       0.0012
     43  CZ2       22.8390   19.2970    2.9950 C.ar   35  TRP35       0.0191
     44  CZ3       22.3900   18.0460    0.9290 C.ar   35  TRP35       0.0001
     45  CH2       21.9810   18.9710    1.9760 C.ar   35  TRP35       0.0015
     46  N         28.2730   20.7560    5.1350 N.3    76  TYR76      -0.1241
     47  CA        28.3040   20.8690    6.6100 C.3    76  TYR76       0.1605
     48  C         29.6730   20.2750    7.0870 C.2    76  TYR76       0.2264
     49  O         29.7210   19.1830    7.6720 O.2    76  TYR76      -0.2867
     50  CB        27.0820   20.0740    7.1610 C.3    76  TYR76       0.0534
     51  CG        26.9550   19.9810    8.6670 C.ar   76  TYR76      -0.0201
     52  CD1       26.9510   21.1240    9.4740 C.ar   76  TYR76      -0.0009
     53  CD2       26.7340   18.7300    9.2660 C.ar   76  TYR76      -0.0009
     54  CE1       26.6940   21.0430   10.8420 C.ar   76  TYR76       0.0417
     55  CE2       26.5980   18.5890   10.6220 C.ar   76  TYR76       0.0417
     56  CZ        26.5800   19.7270   11.4480 C.ar   76  TYR76       0.1957
     57  OH        26.3180   19.6130   12.7890 O.3    76  TYR76      -0.2866
     58  N         32.4810   19.5010    9.5240 N.3    78  GLU78      -0.1245
     59  CA        32.1200   19.1590   10.9130 C.3    78  GLU78       0.1567
     60  C         33.0480   18.2640   11.6070 C.2    78  GLU78       0.2260
     61  O         33.9300   17.6600   10.9690 O.2    78  GLU78      -0.2867
     62  CB        30.7500   18.3580   10.8880 C.3    78  GLU78       0.0388
     63  CG        30.8660   17.0400   10.0340 C.3    78  GLU78       0.1160
     64  CD        29.5980   16.2520   10.0960 C.2    78  GLU78       0.3649
     65  OE1       29.1790   15.9760   11.2310 O.co2  78  GLU78      -0.2457
     66  OE2       29.0720   15.9020    9.0580 O.co2  78  GLU78      -0.2457
     67  N         27.9300    8.4030   13.0130 N.3    84  LYS84      -0.1245
     68  CA        27.2340    9.1480   11.9850 C.3    84  LYS84       0.1561
     69  C         26.4520    8.1480   11.0750 C.2    84  LYS84       0.2260
     70  O         27.0780    7.2610   10.4930 O.2    84  LYS84      -0.2867
     71  CB        28.1990   10.0210   11.1470 C.3    84  LYS84       0.0271
     72  CG        27.4090   10.8030   10.0940 C.3    84  LYS84       0.0035
     73  CD        28.3640   11.8820    9.4580 C.3    84  LYS84       0.0206
     74  CE        27.5420   12.5060    8.2580 C.3    84  LYS84       0.1093
     75  NZ        28.4380   13.5550    7.5860 N.3    84  LYS84      -0.1314
     76  N         25.0140    8.2240    8.2340 N.3    86  TRP86      -0.1227
     77  CA        25.0760    8.2980    6.7800 C.3    86  TRP86       0.1737
     78  C         26.2430    7.5200    6.1890 C.2    86  TRP86       0.2595
     79  O         26.2940    7.4130    4.9380 O.2    86  TRP86      -0.2718
     80  CB        25.2960    9.7890    6.3730 C.3    86  TRP86       0.0564
     81  CG        23.8920   10.5190    6.6390 C.ar   86  TRP86       0.0003
     82  CD1       23.5340   11.3040    7.7430 C.ar   86  TRP86       0.0946
     83  CD2       22.7350   10.5110    5.7760 C.ar   86  TRP86       0.0152
     84  NE1       22.2570   11.7870    7.5890 N.ar   86  TRP86      -0.2442
     85  CE2       21.7320   11.3070    6.4020 C.ar   86  TRP86       0.0810
     86  CE3       22.4530    9.9100    4.5230 C.ar   86  TRP86       0.0012
     87  CZ2       20.5040   11.5090    5.8300 C.ar   86  TRP86       0.0191
     88  CZ3       21.1970   10.0610    3.9570 C.ar   86  TRP86       0.0001
     89  CH2       20.2300   10.8870    4.6200 C.ar   86  TRP86       0.0015
     90  N         27.1690    7.0320    7.0210 N.am   87  ASN87      -0.1974
     91  CA        28.3720    6.3840    6.4800 C.3    87  ASN87       0.1688
     92  C         28.9400    5.4870    7.5460 C.2    87  ASN87       0.2292
     93  O         28.3840    5.3300    8.6400 O.2    87  ASN87      -0.2864
     94  CB        29.4050    7.4640    5.9390 C.3    87  ASN87       0.1181
     95  CG        29.8590    8.4380    7.0340 C.2    87  ASN87       0.2629
     96  OD1       30.0440    8.0130    8.1880 O.2    87  ASN87      -0.2716
     97  ND2       29.9610    9.7630    6.7270 N.am   87  ASN87      -0.0877
     98  N         24.1800   18.8340   15.5570 N.3   129  GLU129     -0.1245
     99  CA        23.0920   17.9520   14.9840 C.3   129  GLU129      0.1567
    100  C         23.1880   16.5770   15.5610 C.2   129  GLU129      0.2260
    101  O         24.3180   16.0130   15.7150 O.2   129  GLU129     -0.2867
    102  CB        23.2570   17.8580   13.4350 C.3   129  GLU129      0.0388
    103  CG        22.2000   16.9760   12.7290 C.3   129  GLU129      0.1160
    104  CD        22.2100   17.2350   11.2470 C.2   129  GLU129      0.3649
    105  OE1       23.2190   16.9820   10.5730 O.co2 129  GLU129     -0.2457
    106  OE2       21.2340   17.7630   10.7240 O.co2 129  GLU129     -0.2457
    107  N         21.1320   12.6140   14.9710 N.3   131  TRP131     -0.1241
    108  CA        20.1870   11.7970   14.2390 C.3   131  TRP131      0.1605
    109  C         19.6590   10.7700   15.2260 C.2   131  TRP131      0.2264
    110  O         20.4250   10.1930   16.0010 O.2   131  TRP131     -0.2867
    111  CB        20.8980   11.0580   13.0800 C.3   131  TRP131      0.0550
    112  CG        21.4700   12.0660   12.0870 C.ar  131  TRP131      0.0003
    113  CD1       22.7830   12.6370   12.0800 C.ar  131  TRP131      0.0946
    114  CD2       20.7490   12.6920   11.0190 C.ar  131  TRP131      0.0152
    115  NE1       22.8590   13.5200   11.0250 N.ar  131  TRP131     -0.2442
    116  CE2       21.6660   13.5670   10.3390 C.ar  131  TRP131      0.0810
    117  CE3       19.4450   12.4950   10.4780 C.ar  131  TRP131      0.0012
    118  CZ2       21.2770   14.3350    9.1690 C.ar  131  TRP131      0.0191
    119  CZ3       19.0350   13.2630    9.3500 C.ar  131  TRP131      0.0001
    120  CH2       19.9450   14.1350    8.6770 C.ar  131  TRP131      0.0015
    121  N         12.5660   12.8930    6.4420 N.3   192  TRP192     -0.1241
    122  CA        12.5450   12.4720    7.8320 C.3   192  TRP192      0.1605
    123  C         12.0010   13.6810    8.5810 C.2   192  TRP192      0.2264
    124  O         11.8920   14.7640    7.9860 O.2   192  TRP192     -0.2867
    125  CB        13.9980   12.0830    8.3170 C.3   192  TRP192      0.0550
    126  CG        15.0290   13.1250    7.9380 C.ar  192  TRP192      0.0003
    127  CD1       15.3730   14.2470    8.6210 C.ar  192  TRP192      0.0946
    128  CD2       15.8170   13.0880    6.7630 C.ar  192  TRP192      0.0152
    129  NE1       16.3930   14.9470    7.9620 N.ar  192  TRP192     -0.2442
    130  CE2       16.7030   14.2410    6.8060 C.ar  192  TRP192      0.0810
    131  CE3       15.9330   12.1630    5.6790 C.ar  192  TRP192      0.0012
    132  CZ2       17.5520   14.5410    5.7720 C.ar  192  TRP192      0.0191
    133  CZ3       16.8610   12.4950    4.6500 C.ar  192  TRP192      0.0001
    134  CH2       17.6640   13.6730    4.7350 C.ar  192  TRP192      0.0015
    135  N         26.9580   15.9120   16.2470 N.3   237  GLU237     -0.1245
    136  CA        27.7980   16.4820   15.2010 C.3   237  GLU237      0.1567
    137  C         27.8560   18.0010   15.4340 C.2   237  GLU237      0.2260
    138  O         26.8890   18.6000   15.8850 O.2   237  GLU237     -0.2867
    139  CB        27.2240   16.2350   13.7780 C.3   237  GLU237      0.0388
    140  CG        26.8470   14.7500   13.5950 C.3   237  GLU237      0.1160
    141  CD        26.4130   14.3660   12.2110 C.2   237  GLU237      0.3649
    142  OE1       26.7910   15.0180   11.2420 O.co2 237  GLU237     -0.2457
    143  OE2       25.5990   13.3900   12.0780 O.co2 237  GLU237     -0.2457
@<TRIPOS>BOND
     1     9     7   ar
     2     9    10   ar
     3     7     6   ar
     4    35    34    2
     5    12    10   ar
     6    12    14   ar
     7    10     8   ar
     8     1     2    1
     9    34    33    1
    10     6     8   ar
    11     6     5    1
    12    14    13   ar
    13     8    11   ar
    14    33    32    1
    15    33    36    1
    16     2     5    1
    17     2     3    1
    18    44    42   ar
    19    44    45   ar
    20    42    39   ar
    21    13    11   ar
    22     3     4    2
    23    36    37    1
    24    45    43   ar
    25    39    37   ar
    26    39    41   ar
    27    37    38   ar
    28    43    41   ar
    29    41    40   ar
    30    26    27    2
    31    26    25    1
    32    38    40   ar
    33    88    86   ar
    34    88    89   ar
    35    25    24    1
    36    25    28    1
    37    30    29    2
    38    86    83   ar
    39    89    87   ar
    40   133   134   ar
    41   133   131   ar
    42   134   132   ar
    43    79    78    2
    44    46    47    1
    45    29    28    1
    46    29    31   am
    47   131   128   ar
    48   132   130   ar
    49    83    85   ar
    50    83    81   ar
    51    87    85   ar
    52    94    91    1
    53    94    95    1
    54    78    77    1
    55    78    90   am
    56    80    81    1
    57    80    77    1
    58    85    84   ar
    59   121   122    1
    60    91    90    1
    61    91    92    1
    62    47    48    1
    63    47    50    1
    64    81    82   ar
    65    97    95   am
    66   128   130   ar
    67   128   126   ar
    68    77    76    1
    69   130   129   ar
    70    22    21   ar
    71    95    96    2
    72    17    18    2
    73    17    16    1
    74    48    49    2
    75    50    51    1
    76    19    16    1
    77    19    20    1
    78    92    93    2
    79    75    74    1
    80    84    82   ar
    81    16    15    1
    82    21    20    1
    83    21    23   ar
    84   122   125    1
    85   122   123    1
    86   126   125    1
    87   126   127   ar
    88   129   127   ar
    89   124   123    2
    90    74    73    1
    91    51    53   ar
    92    51    52   ar
    93   120   118   ar
    94   120   119   ar
    95    66    64   ar
    96   118   116   ar
    97    53    55   ar
    98   119   117   ar
    99    73    72    1
   100    52    54   ar
   101    58    59    1
   102    63    64    1
   103    63    62    1
   104    72    71    1
   105    64    65   ar
   106   116   114   ar
   107   116   115   ar
   108   117   114   ar
   109    70    69    2
   110   105   104   ar
   111    55    56   ar
   112   106   104   ar
   113    54    56   ar
   114    62    59    1
   115    59    60    1
   116    61    60    2
   117   114   112   ar
   118   115   113   ar
   119    69    68    1
   120    71    68    1
   121   142   141   ar
   122   104   103    1
   123    56    57    1
   124    68    67    1
   125   143   141   ar
   126   113   112   ar
   127   112   111    1
   128   141   140    1
   129   103   102    1
   130   111   108    1
   131   102    99    1
   132   140   139    1
   133   139   136    1
   134   108   107    1
   135   108   109    1
   136    99    98    1
   137    99   100    1
   138   136   137    1
   139   136   135    1
   140   109   110    2
   141   137   138    2
   142   100   101    2
