@<TRIPOS>MOLECULE
tmp/3wy6A05.pdb
 141 140 0 0 0
SMALL
GASTEIGER

@<TRIPOS>ATOM
      1  N         28.5510   18.0840    1.0120 N.3    35  TRP35      -0.1241
      2  CA        27.5900   17.0670    0.5290 C.3    35  TRP35       0.1605
      3  C         26.7490   17.5190   -0.6480 C.2    35  TRP35       0.2264
      4  O         26.2660   16.6620   -1.4210 O.2    35  TRP35      -0.2867
      5  CB        26.8180   16.4540    1.6990 C.3    35  TRP35       0.0550
      6  CG        25.9250   17.4140    2.4030 C.ar   35  TRP35       0.0003
      7  CD1       26.1780   18.0240    3.5970 C.ar   35  TRP35       0.0946
      8  CD2       24.5800   17.7980    2.0260 C.ar   35  TRP35       0.0152
      9  NE1       25.1040   18.8030    3.9610 N.ar   35  TRP35      -0.2442
     10  CE2       24.1100   18.6690    3.0280 C.ar   35  TRP35       0.0810
     11  CE3       23.7280   17.4730    0.9340 C.ar   35  TRP35       0.0012
     12  CZ2       22.8390   19.2970    2.9950 C.ar   35  TRP35       0.0191
     13  CZ3       22.3900   18.0460    0.9290 C.ar   35  TRP35       0.0001
     14  CH2       21.9810   18.9710    1.9760 C.ar   35  TRP35       0.0015
     15  N         17.5700   22.4230   -4.6130 N.3    70  SER70      -0.1202
     16  CA        16.4510   22.4030   -3.6660 C.3    70  SER70       0.2020
     17  C         16.9240   21.9910   -2.2640 C.2    70  SER70       0.2619
     18  O         16.1880   22.1340   -1.3250 O.2    70  SER70      -0.2717
     19  CB        15.2870   21.5300   -4.1780 C.3    70  SER70       0.2103
     20  OG        15.6390   20.1810   -4.0910 O.3    70  SER70      -0.2182
     21  N         18.1760   21.4710   -2.1180 N.am   71  ASN71      -0.1960
     22  CA        18.6580   21.1190   -0.7820 C.3    71  ASN71       0.1819
     23  C         19.2440   22.3220   -0.0620 C.2    71  ASN71       0.2621
     24  O         19.5330   22.2670    1.1360 O.2    71  ASN71      -0.2715
     25  CB        19.6050   19.9320   -0.8490 C.3    71  ASN71       0.1195
     26  CG        18.8210   18.6280   -1.1140 C.2    71  ASN71       0.2630
     27  OD1       17.5870   18.5550   -0.8540 O.2    71  ASN71      -0.2716
     28  ND2       19.4890   17.6540   -1.7090 N.am   71  ASN71      -0.0877
     29  N         19.3530   23.4180   -0.8370 N.am   72  TRP72      -0.1960
     30  CA        19.5920   24.7810   -0.2970 C.3    72  TRP72       0.1771
     31  C         21.0280   25.0730    0.1600 C.2    72  TRP72       0.2619
     32  O         21.7010   25.9010   -0.4800 O.2    72  TRP72      -0.2715
     33  CB        18.6440   25.1310    0.8730 C.3    72  TRP72       0.0590
     34  CG        18.6480   26.6520    1.1740 C.ar   72  TRP72       0.0006
     35  CD1       19.4810   27.3270    2.0700 C.ar   72  TRP72       0.0946
     36  CD2       17.8230   27.6650    0.5700 C.ar   72  TRP72       0.0152
     37  NE1       19.1670   28.6670    2.0990 N.ar   72  TRP72      -0.2442
     38  CE2       18.1880   28.9200    1.1830 C.ar   72  TRP72       0.0810
     39  CE3       16.7980   27.6430   -0.3960 C.ar   72  TRP72       0.0012
     40  CZ2       17.5790   30.1690    0.8550 C.ar   72  TRP72       0.0191
     41  CZ3       16.1710   28.9030   -0.7440 C.ar   72  TRP72       0.0001
     42  CH2       16.5890   30.1590   -0.1200 C.ar   72  TRP72       0.0015
     43  N         21.4670   24.4600    1.2730 N.am   73  VAL73      -0.1977
     44  CA        22.8310   24.6750    1.7240 C.3    73  VAL73       0.1596
     45  C         23.8390   23.8640    0.8800 C.2    73  VAL73       0.2287
     46  O         23.4640   22.9450    0.1270 O.2    73  VAL73      -0.2864
     47  CB        23.0020   24.2910    3.2350 C.3    73  VAL73       0.0276
     48  CG1       22.0690   25.1810    4.0890 C.3    73  VAL73       0.0022
     49  CG2       22.7210   22.7890    3.5130 C.3    73  VAL73       0.0022
     50  N         25.5120   28.8030    9.4300 N.3   125  ASN125     -0.1240
     51  CA        25.2090   28.6470   10.8470 C.3   125  ASN125      0.1653
     52  C         26.3440   27.8980   11.5360 C.2   125  ASN125      0.2266
     53  O         27.3440   27.4690   10.8930 O.2   125  ASN125     -0.2867
     54  CB        23.8460   27.8940   11.0370 C.3   125  ASN125      0.1155
     55  CG        23.8320   26.5070   10.3950 C.2   125  ASN125      0.2627
     56  OD1       24.8160   25.7790   10.4410 O.2   125  ASN125     -0.2716
     57  ND2       22.6420   26.0610    9.9260 N.am  125  ASN125     -0.0877
     58  N         18.5380   19.7040   15.1900 N.3   150  MET150     -0.1245
     59  CA        19.6890   20.6040   15.0770 C.3   150  MET150      0.1570
     60  C         19.5370   21.6610   16.1440 C.2   150  MET150      0.2261
     61  O         18.4570   22.1400   16.4520 O.2   150  MET150     -0.2867
     62  CB        19.7340   21.3400   13.7340 C.3   150  MET150      0.0387
     63  CG        19.8000   20.4290   12.5340 C.3   150  MET150      0.0595
     64  SD        20.1780   21.3500   11.0030 S.3   150  MET150     -0.1393
     65  CE        22.0540   21.3720   11.0540 C.3   150  MET150      0.0692
     66  N         21.1390   25.4690   16.6450 N.3   152  TRP152     -0.1241
     67  CA        21.9990   26.4760   16.0070 C.3   152  TRP152      0.1605
     68  C         22.3280   27.4940   17.0570 C.2   152  TRP152      0.2264
     69  O         21.4470   28.2580   17.5250 O.2   152  TRP152     -0.2867
     70  CB        21.2420   27.2100   14.8950 C.3   152  TRP152      0.0550
     71  CG        20.7370   26.3480   13.7620 C.ar  152  TRP152      0.0003
     72  CD1       20.5630   24.9510   13.6840 C.ar  152  TRP152      0.0946
     73  CD2       20.3090   26.8820   12.4980 C.ar  152  TRP152      0.0152
     74  NE1       20.0690   24.6250   12.3890 N.ar  152  TRP152     -0.2442
     75  CE2       19.8660   25.7940   11.6740 C.ar  152  TRP152      0.0810
     76  CE3       20.2160   28.2090   11.9900 C.ar  152  TRP152      0.0012
     77  CZ2       19.4000   25.9870   10.3240 C.ar  152  TRP152      0.0191
     78  CZ3       19.7410   28.3990   10.6910 C.ar  152  TRP152      0.0001
     79  CH2       19.3580   27.2800    9.8490 C.ar  152  TRP152      0.0015
     80  N         20.6660   32.5050    7.2600 N.3   158  LEU158     -0.1231
     81  CA        20.0710   31.1860    7.0030 C.3   158  LEU158      0.1693
     82  C         18.8840   31.0400    7.9450 C.2   158  LEU158      0.2592
     83  O         19.0080   31.4210    9.1190 O.2   158  LEU158     -0.2718
     84  CB        20.9820   29.9730    7.3280 C.3   158  LEU158      0.0284
     85  CG        22.0440   29.6140    6.2660 C.3   158  LEU158      0.0019
     86  CD1       22.9290   28.4210    6.6970 C.3   158  LEU158      0.0001
     87  CD2       21.3750   29.3650    4.8860 C.3   158  LEU158      0.0001
     88  N         17.8100   30.4240    7.4540 N.am  159  GLN159     -0.1966
     89  CA        16.5760   30.1060    8.2310 C.3   159  GLN159      0.1718
     90  C         16.5270   28.5580    8.2580 C.2   159  GLN159      0.2458
     91  O         16.8850   27.8930    7.2690 O.2   159  GLN159     -0.2730
     92  CB        15.3310   30.6910    7.4950 C.3   159  GLN159      0.0407
     93  CG        14.0220   30.3320    8.1160 C.3   159  GLN159      0.0908
     94  CD        12.9150   31.0580    7.3700 C.2   159  GLN159      0.2608
     95  OE1       12.0980   30.4500    6.6790 O.2   159  GLN159     -0.2717
     96  NE2       12.8850   32.3300    7.5360 N.am  159  GLN159     -0.0878
     97  N         16.0750   27.9830    9.3590 N.am  160  PRO160     -0.2716
     98  CA        15.9350   26.5020    9.3700 C.3   160  PRO160      0.1536
     99  C         14.8590   26.0740    8.3490 C.2   160  PRO160      0.2598
    100  O         14.0150   26.9000    7.9160 O.2   160  PRO160     -0.2715
    101  CB        15.4370   26.1800   10.8110 C.3   160  PRO160      0.0310
    102  CG        15.9260   27.3780   11.6110 C.3   160  PRO160      0.0237
    103  CD        15.7270   28.5750   10.6700 C.3   160  PRO160      0.0939
    104  N         14.8410   24.7990    8.0090 N.am  161  ALA161     -0.1964
    105  CA        13.7760   24.2590    7.1350 C.3   161  ALA161      0.1728
    106  C         12.3690   24.2610    7.8430 C.2   161  ALA161      0.2616
    107  O         12.2630   24.2750    9.0820 O.2   161  ALA161     -0.2715
    108  CB        14.1540   22.8620    6.6610 C.3   161  ALA161      0.0334
    109  N         11.3110   24.2880    7.0670 N.am  162  GLY162     -0.1955
    110  CA         9.9850   24.1080    7.6410 C.3   162  GLY162      0.1869
    111  C          9.3480   25.4160    8.1460 C.2   162  GLY162      0.2309
    112  O          9.5640   26.4810    7.5570 O.2   162  GLY162     -0.2863
    113  N         11.2780   16.4420    5.5780 N.3   190  ILE190     -0.1245
    114  CA        12.2000   16.6030    4.4430 C.3   190  ILE190      0.1561
    115  C         12.7340   15.2360    4.0250 C.2   190  ILE190      0.2260
    116  O         13.9000   15.1690    3.5070 O.2   190  ILE190     -0.2867
    117  CB        13.3590   17.6060    4.7590 C.3   190  ILE190      0.0252
    118  CG1       14.2400   17.1690    5.9940 C.3   190  ILE190      0.0019
    119  CG2       12.7390   18.9930    4.9540 C.3   190  ILE190      0.0019
    120  CD1       15.4980   18.0150    6.1930 C.3   190  ILE190      0.0001
    121  N         12.4120   16.8340   10.8550 N.3   194  TYR194     -0.1241
    122  CA        13.5210   17.7270   11.2260 C.3   194  TYR194      0.1605
    123  C         13.0270   18.7090   12.2540 C.2   194  TYR194      0.2264
    124  O         11.9350   19.3130   12.0430 O.2   194  TYR194     -0.2867
    125  CB        13.8770   18.4550    9.9130 C.3   194  TYR194      0.0534
    126  CG        14.7410   19.6900    9.9500 C.ar  194  TYR194     -0.0201
    127  CD1       14.2170   20.9560   10.2580 C.ar  194  TYR194     -0.0009
    128  CD2       16.0430   19.5900    9.5470 C.ar  194  TYR194     -0.0009
    129  CE1       15.0200   22.1230   10.2170 C.ar  194  TYR194      0.0417
    130  CE2       16.8920   20.7190    9.4930 C.ar  194  TYR194      0.0417
    131  CZ        16.3380   21.9890    9.7770 C.ar  194  TYR194      0.1957
    132  OH        17.0690   23.1810    9.6830 O.3   194  TYR194     -0.2866
    133  N         26.8090   24.6700    8.5670 N.3   241  GLU241     -0.1245
    134  CA        26.1510   24.6400    7.2270 C.3   241  GLU241      0.1567
    135  C         26.4290   26.0010    6.6130 C.2   241  GLU241      0.2260
    136  O         26.6030   27.0370    7.3110 O.2   241  GLU241     -0.2867
    137  CB        24.6380   24.4230    7.3440 C.3   241  GLU241      0.0388
    138  CG        24.2480   23.0570    7.9530 C.3   241  GLU241      0.1160
    139  CD        22.7060   22.8410    7.8560 C.2   241  GLU241      0.3649
    140  OE1       21.9470   23.6200    8.5170 O.co2 241  GLU241     -0.2457
    141  OE2       22.2680   21.8990    7.1400 O.co2 241  GLU241     -0.2457
@<TRIPOS>BOND
     1    15    16    1
     2    19    20    1
     3    19    16    1
     4    16    17    1
     5    17    21   am
     6    17    18    2
     7    21    22    1
     8    28    26   am
     9     4     3    2
    10    26    27    2
    11    26    25    1
    12    25    22    1
    13    29    30    1
    14    29    23   am
    15    22    23    1
    16    41    39   ar
    17    41    42   ar
    18     3     2    1
    19    32    31    2
    20    39    36   ar
    21    30    31    1
    22    30    33    1
    23    42    40   ar
    24    23    24    2
    25    46    45    2
    26    31    43   am
    27     2     1    1
    28     2     5    1
    29    36    34   ar
    30    36    38   ar
    31    40    38   ar
    32    33    34    1
    33    45    44    1
    34    13    11   ar
    35    13    14   ar
    36    11     8   ar
    37    34    35   ar
    38    38    37   ar
    39    43    44    1
    40     5     6    1
    41    44    47    1
    42    14    12   ar
    43     8     6   ar
    44     8    10   ar
    45    35    37   ar
    46     6     7   ar
    47    12    10   ar
    48    10     9   ar
    49    47    49    1
    50    47    48    1
    51   116   115    2
    52     7     9   ar
    53   115   114    1
    54   114   117    1
    55   114   113    1
    56   117   119    1
    57   117   118    1
    58    87    85    1
    59   118   120    1
    60    85    86    1
    61    85    84    1
    62   135   134    1
    63   135   136    2
    64   108   105    1
    65    95    94    2
    66    81    80    1
    67    81    84    1
    68    81    82    1
    69   109   110    1
    70   109   106   am
    71   105   106    1
    72   105   104    1
    73   141   139   ar
    74   134   137    1
    75   134   133    1
    76    91    90    2
    77   137   138    1
    78    94    96   am
    79    94    93    1
    80    88    82   am
    81    88    89    1
    82    92    93    1
    83    92    89    1
    84   112   111    2
    85   110   111    1
    86   106   107    2
    87   139   138    1
    88   139   140   ar
    89   100    99    2
    90    82    83    2
    91   104    99   am
    92    89    90    1
    93    90    97   am
    94    99    98    1
    95    97    98    1
    96    97   103    1
    97    98   101    1
    98    50    51    1
    99   130   128   ar
   100   130   131   ar
   101   128   126   ar
   102   132   131    1
   103   131   129   ar
   104    79    77   ar
   105    79    78   ar
   106   125   126    1
   107   125   122    1
   108    57    55   am
   109   126   127   ar
   110   129   127   ar
   111    77    75   ar
   112    55    56    2
   113    55    54    1
   114   103   102    1
   115    78    76   ar
   116   101   102    1
   117    51    54    1
   118    51    52    1
   119   121   122    1
   120    53    52    2
   121    64    65    1
   122    64    63    1
   123   122   123    1
   124    75    74   ar
   125    75    73   ar
   126    76    73   ar
   127   124   123    2
   128    74    72   ar
   129    73    71   ar
   130    63    62    1
   131    72    71   ar
   132    62    59    1
   133    71    70    1
   134    70    67    1
   135    59    58    1
   136    59    60    1
   137    67    66    1
   138    67    68    1
   139    60    61    2
   140    68    69    2
