@<TRIPOS>MOLECULE
tmp/3wy9A00.pdb
 118 116 0 0 0
SMALL
GASTEIGER

@<TRIPOS>ATOM
      1  N         51.3740  -14.6250   20.0340 N.3    12  VAL12      -0.1231
      2  CA        51.2860  -16.0450   19.6550 C.3    12  VAL12       0.1692
      3  C         51.8940  -16.9260   20.7880 C.2    12  VAL12       0.2592
      4  O         52.9260  -16.5780   21.3940 O.2    12  VAL12      -0.2718
      5  CB        51.8750  -16.3130   18.2290 C.3    12  VAL12       0.0266
      6  CG1       53.4030  -16.1300   18.1820 C.3    12  VAL12       0.0020
      7  CG2       51.4960  -17.7100   17.7110 C.3    12  VAL12       0.0020
      8  N         51.2220  -18.0370   21.0980 N.am   13  ASP13      -0.1960
      9  CA        51.6320  -19.0200   22.1270 C.3    13  ASP13       0.1840
     10  C         51.3870  -18.6070   23.5800 C.2    13  ASP13       0.2622
     11  O         51.6660  -19.3860   24.4830 O.2    13  ASP13      -0.2715
     12  CB        53.1030  -19.5160   21.9780 C.3    13  ASP13       0.1450
     13  CG        53.3960  -20.1270   20.5990 C.2    13  ASP13       0.3671
     14  OD1       52.5460  -20.8900   20.0780 O.co2  13  ASP13      -0.2456
     15  OD2       54.4790  -19.8440   20.0370 O.co2  13  ASP13      -0.2456
     16  N         50.8750  -17.4010   23.8220 N.am   14  HIS14      -0.1959
     17  CA        50.7100  -16.9780   25.2160 C.3    14  HIS14       0.1787
     18  C         49.4710  -17.5890   25.8860 C.2    14  HIS14       0.2621
     19  O         49.3790  -17.5910   27.1130 O.2    14  HIS14      -0.2715
     20  CB        50.7610  -15.4540   25.3490 C.3    14  HIS14       0.0785
     21  CG        52.1400  -14.9010   25.2780 C.ar   14  HIS14       0.0821
     22  ND1       52.5300  -13.7790   25.9790 N.ar   14  HIS14      -0.2267
     23  CD2       53.2350  -15.3210   24.6000 C.ar   14  HIS14       0.1154
     24  CE1       53.8060  -13.5310   25.7330 C.ar   14  HIS14       0.1986
     25  NE2       54.2550  -14.4500   24.8950 N.ar   14  HIS14      -0.2212
     26  N         48.5340  -18.0660   25.0590 N.am   15  GLY15      -0.1940
     27  CA        47.4530  -18.9620   25.4910 C.3    15  GLY15       0.2014
     28  C         46.0360  -18.5070   25.1780 C.2    15  GLY15       0.2639
     29  O         45.1110  -18.8600   25.9090 O.2    15  GLY15      -0.2714
     30  N         45.8580  -17.7290   24.1000 N.am   16  LYS16      -0.1963
     31  CA        44.5280  -17.3380   23.6730 C.3    16  LYS16       0.1728
     32  C         43.5900  -18.5370   23.4020 C.2    16  LYS16       0.2617
     33  O         42.4960  -18.6010   23.9900 O.2    16  LYS16      -0.2715
     34  CB        44.5900  -16.4140   22.4540 C.3    16  LYS16       0.0311
     35  CG        45.3390  -15.0870   22.6910 C.3    16  LYS16       0.0038
     36  CD        45.4380  -14.2640   21.4070 C.3    16  LYS16       0.0206
     37  CE        46.1170  -15.0060   20.2680 C.3    16  LYS16       0.1093
     38  NZ        47.5540  -15.3220   20.5580 N.3    16  LYS16      -0.1314
     39  N         43.9860  -19.4670   22.5130 N.am   17  SER17      -0.1936
     40  CA        43.1120  -20.6470   22.2030 C.3    17  SER17       0.2055
     41  C         42.8180  -21.4900   23.3970 C.2    17  SER17       0.2643
     42  O         41.7060  -21.9990   23.5400 O.2    17  SER17      -0.2714
     43  CB        43.7480  -21.5970   21.1870 C.3    17  SER17       0.2130
     44  OG        43.8320  -20.9310   19.9630 O.3    17  SER17      -0.2179
     45  N         43.8380  -21.6890   24.2360 N.am   18  THR18      -0.1950
     46  CA        43.6760  -22.5160   25.4290 C.3    18  THR18       0.1897
     47  C         42.6730  -21.8600   26.4050 C.2    18  THR18       0.2313
     48  O         41.8230  -22.5450   26.9340 O.2    18  THR18      -0.2863
     49  CB        45.0400  -22.8690   26.0710 C.3    18  THR18       0.1794
     50  OG1       45.8810  -23.4480   25.0740 O.3    18  THR18      -0.2208
     51  CG2       44.8960  -23.8730   27.2110 C.3    18  THR18       0.0378
     52  N         41.5860  -27.5780   18.0630 N.3    51  LYS51      -0.1245
     53  CA        42.6860  -27.3430   17.1220 C.3    51  LYS51       0.1561
     54  C         42.3690  -28.0140   15.7720 C.2    51  LYS51       0.2260
     55  O         42.4530  -27.3950   14.7020 O.2    51  LYS51      -0.2867
     56  CB        44.0100  -27.8310   17.7060 C.3    51  LYS51       0.0271
     57  CG        45.1910  -27.6580   16.7660 C.3    51  LYS51       0.0035
     58  CD        46.3830  -27.0040   17.4640 C.3    51  LYS51       0.0206
     59  CE        47.4940  -26.6730   16.4670 C.3    51  LYS51       0.1093
     60  NZ        48.2730  -25.4690   16.8750 N.3    51  LYS51      -0.1314
     61  N         48.7350  -15.3650   32.0370 N.3   133  ASN133     -0.1225
     62  CA        48.5080  -16.7850   31.8270 C.3   133  ASN133      0.1785
     63  C         49.7440  -17.6190   32.1000 C.2   133  ASN133      0.2597
     64  O         50.8230  -17.0710   32.3610 O.2   133  ASN133     -0.2718
     65  CB        48.0130  -17.0160   30.3700 C.3   133  ASN133      0.1169
     66  CG        47.3220  -18.3320   30.2120 C.2   133  ASN133      0.2627
     67  OD1       46.6070  -18.7690   31.1310 O.2   133  ASN133     -0.2716
     68  ND2       47.5750  -19.0180   29.0930 N.am  133  ASN133     -0.0877
     69  N         49.5680  -18.9460   32.0620 N.am  134  LYS134     -0.1980
     70  CA        50.6230  -19.9490   32.3800 C.3   134  LYS134      0.1596
     71  C         51.1910  -19.8080   33.7950 C.2   134  LYS134      0.2287
     72  O         52.3800  -20.0540   34.0440 O.2   134  LYS134     -0.2864
     73  CB        51.7460  -19.9270   31.3390 C.3   134  LYS134      0.0298
     74  CG        51.2200  -20.0480   29.9070 C.3   134  LYS134      0.0038
     75  CD        52.2740  -20.5970   28.9520 C.3   134  LYS134      0.0206
     76  CE        51.7280  -20.4810   27.5480 C.3   134  LYS134      0.1093
     77  NZ        52.7200  -20.7360   26.4900 N.3   134  LYS134     -0.1314
     78  N         50.8850  -21.6860   36.2460 N.3   136  ASP136     -0.1225
     79  CA        51.3780  -23.0150   36.6520 C.3   136  ASP136      0.1805
     80  C         52.8140  -23.2510   36.2610 C.2   136  ASP136      0.2597
     81  O         53.4930  -24.0330   36.9000 O.2   136  ASP136     -0.2718
     82  CB        50.5180  -24.1500   36.0590 C.3   136  ASP136      0.1424
     83  CG        50.4790  -24.1200   34.5250 C.2   136  ASP136      0.3668
     84  OD1       50.0530  -23.0730   33.9480 O.co2 136  ASP136     -0.2456
     85  OD2       50.8770  -25.1340   33.9040 O.co2 136  ASP136     -0.2456
     86  N         53.2770  -22.5870   35.2090 N.am  137  MET137     -0.1979
     87  CA        54.6440  -22.7840   34.7560 C.3   137  MET137      0.1605
     88  C         55.6360  -21.9020   35.5090 C.2   137  MET137      0.2287
     89  O         56.8430  -22.0080   35.3050 O.2   137  MET137     -0.2864
     90  CB        54.7520  -22.5980   33.2410 C.3   137  MET137      0.0413
     91  CG        54.7860  -23.9060   32.4490 C.3   137  MET137      0.0598
     92  SD        54.3890  -23.5300   30.7210 S.3   137  MET137     -0.1393
     93  CE        55.7940  -24.2970   29.8950 C.3   137  MET137      0.0692
     94  N         45.6340  -20.0490   34.8240 N.3   170  SER170     -0.1202
     95  CA        46.2000  -21.1690   34.0810 C.3   170  SER170      0.2020
     96  C         45.0970  -21.7090   33.1810 C.2   170  SER170      0.2619
     97  O         44.2180  -22.4360   33.6430 O.2   170  SER170     -0.2717
     98  CB        46.7080  -22.2800   35.0080 C.3   170  SER170      0.2103
     99  OG        47.0520  -23.4640   34.2870 O.3   170  SER170     -0.2182
    100  N         45.1260  -21.3440   31.8940 N.am  171  ALA171     -0.1965
    101  CA        44.0910  -21.8670   30.9690 C.3   171  ALA171      0.1728
    102  C         44.1840  -23.3860   31.0270 C.2   171  ALA171      0.2616
    103  O         43.1770  -24.0620   31.0560 O.2   171  ALA171     -0.2715
    104  CB        44.3090  -21.3680   29.5440 C.3   171  ALA171      0.0334
    105  N         45.4080  -23.8970   31.1220 N.am  172  TRP172     -0.1974
    106  CA        45.6270  -25.3260   31.0460 C.3   172  TRP172      0.1640
    107  C         45.0300  -26.1330   32.2520 C.2   172  TRP172      0.2290
    108  O         44.3360  -27.1340   32.0420 O.2   172  TRP172     -0.2864
    109  CB        47.1150  -25.6270   30.7980 C.3   172  TRP172      0.0576
    110  CG        47.3530  -27.0810   30.5990 C.ar  172  TRP172      0.0006
    111  CD1       47.8130  -27.9730   31.5310 C.ar  172  TRP172      0.0946
    112  CD2       47.0850  -27.8360   29.4080 C.ar  172  TRP172      0.0152
    113  NE1       47.8580  -29.2470   30.9900 N.ar  172  TRP172     -0.2442
    114  CE2       47.4150  -29.1890   29.6890 C.ar  172  TRP172      0.0810
    115  CE3       46.6090  -27.5000   28.1210 C.ar  172  TRP172      0.0012
    116  CZ2       47.2870  -30.2100   28.7290 C.ar  172  TRP172      0.0191
    117  CZ3       46.4600  -28.5220   27.1660 C.ar  172  TRP172      0.0001
    118  CH2       46.8060  -29.8610   27.4770 C.ar  172  TRP172      0.0015
@<TRIPOS>BOND
     1    55    54    2
     2    54    53    1
     3    59    60    1
     4    59    58    1
     5    57    58    1
     6    57    56    1
     7    53    56    1
     8    53    52    1
     9     7     5    1
    10     6     5    1
    11     5     2    1
    12     2     1    1
    13     2     3    1
    14    44    43    1
    15    15    13   ar
    16    14    13   ar
    17    37    38    1
    18    37    36    1
    19    13    12    1
    20     3     8   am
    21     3     4    2
    22     8     9    1
    23    43    40    1
    24    36    35    1
    25    12     9    1
    26     9    10    1
    27    40    39    1
    28    40    41    1
    29    34    35    1
    30    34    31    1
    31    39    32   am
    32    41    42    2
    33    41    45   am
    34    32    31    1
    35    32    33    2
    36    10    16   am
    37    10    11    2
    38    31    30    1
    39    16    17    1
    40    30    28   am
    41    45    46    1
    42    23    25   ar
    43    23    21   ar
    44    25    24   ar
    45    26    27    1
    46    26    18   am
    47    50    49    1
    48    28    27    1
    49    28    29    2
    50    17    20    1
    51    17    18    1
    52    21    20    1
    53    21    22   ar
    54    46    49    1
    55    46    47    1
    56    24    22   ar
    57    18    19    2
    58    49    51    1
    59    47    48    2
    60    77    76    1
    61   117   118   ar
    62   117   115   ar
    63   118   116   ar
    64    76    75    1
    65   115   112   ar
    66   116   114   ar
    67    75    74    1
    68    68    66   am
    69   112   114   ar
    70   112   110   ar
    71   104   101    1
    72   114   113   ar
    73    93    92    1
    74    74    73    1
    75    66    65    1
    76    66    67    2
    77    65    62    1
    78   110   109    1
    79   110   111   ar
    80    92    91    1
    81   109   106    1
    82   101   102    1
    83   101   100    1
    84   113   111   ar
    85   102   103    2
    86   102   105   am
    87   106   105    1
    88   106   107    1
    89    73    70    1
    90    62    61    1
    91    62    63    1
    92   100    96   am
    93   108   107    2
    94    69    63   am
    95    69    70    1
    96    63    64    2
    97    70    71    1
    98    91    90    1
    99    96    97    2
   100    96    95    1
   101    90    87    1
   102    71    72    2
   103    85    83   ar
   104    84    83   ar
   105    95    94    1
   106    95    98    1
   107    99    98    1
   108    83    82    1
   109    87    86    1
   110    87    88    1
   111    86    80   am
   112    89    88    2
   113    82    79    1
   114    78    79    1
   115    80    79    1
   116    80    81    2
