@<TRIPOS>MOLECULE
tmp/3wycB00.pdb
 212 204 0 0 0
SMALL
GASTEIGER

@<TRIPOS>ATOM
      1  N         -2.0440   29.7480  -24.2580 N.3     8  VAL8       -0.1231
      2  CA        -2.2740   29.7410  -25.6750 C.3     8  VAL8        0.1692
      3  C         -1.4240   28.6570  -26.3260 C.2     8  VAL8        0.2593
      4  O         -0.2010   28.8080  -26.4570 O.2     8  VAL8       -0.2718
      5  CB        -2.0090   31.0810  -26.3310 C.3     8  VAL8        0.0266
      6  CG1       -2.2190   31.0070  -27.8240 C.3     8  VAL8        0.0020
      7  CG2       -2.9370   32.1380  -25.7820 C.3     8  VAL8        0.0020
      8  N         -2.0730   27.5960  -26.7870 N.am    9  GLY9       -0.1942
      9  CA        -1.4760   26.5150  -27.5420 C.3     9  GLY9        0.2014
     10  C         -1.2350   25.2870  -26.7100 C.2     9  GLY9        0.2639
     11  O         -0.6480   25.3770  -25.6710 O.2     9  GLY9       -0.2714
     12  N         -1.6380   24.1300  -27.1950 N.am   10  TYR10      -0.1959
     13  CA        -1.6170   22.9490  -26.3550 C.3    10  TYR10       0.1771
     14  C         -0.7860   21.8180  -26.9020 C.2    10  TYR10       0.2620
     15  O         -1.2680   20.7860  -27.2240 O.2    10  TYR10      -0.2715
     16  CB        -3.0210   22.4740  -25.9880 C.3    10  TYR10       0.0574
     17  CG        -3.0910   21.5480  -24.7790 C.ar   10  TYR10      -0.0198
     18  CD1       -2.8610   22.0210  -23.5110 C.ar   10  TYR10      -0.0009
     19  CD2       -3.4080   20.2210  -24.9120 C.ar   10  TYR10      -0.0009
     20  CE1       -2.9060   21.2080  -22.4160 C.ar   10  TYR10       0.0417
     21  CE2       -3.4680   19.3940  -23.8310 C.ar   10  TYR10       0.0417
     22  CZ        -3.2240   19.9020  -22.5590 C.ar   10  TYR10       0.1957
     23  OH        -3.2740   19.0960  -21.4820 O.3    10  TYR10      -0.2866
     24  N          0.5070   22.0630  -26.9390 N.am   11  GLY11      -0.1940
     25  CA         1.5040   21.0840  -27.2260 C.3    11  GLY11       0.2014
     26  C          2.2550   20.7080  -25.9630 C.2    11  GLY11       0.2639
     27  O          1.6970   20.7160  -24.8930 O.2    11  GLY11      -0.2714
     28  N          3.5200   20.3740  -26.1260 N.am   12  ASN12      -0.1958
     29  CA         4.3800   20.0030  -25.0280 C.3    12  ASN12       0.1819
     30  C          4.5020   21.1010  -23.9400 C.2    12  ASN12       0.2621
     31  O          4.3170   20.8240  -22.7950 O.2    12  ASN12      -0.2715
     32  CB         5.7550   19.5900  -25.5230 C.3    12  ASN12       0.1195
     33  CG         5.7210   18.3780  -26.4270 C.2    12  ASN12       0.2630
     34  OD1        5.1160   17.3810  -26.1280 O.2    12  ASN12      -0.2716
     35  ND2        6.4010   18.4780  -27.5290 N.am   12  ASN12      -0.0877
     36  N          4.8050   22.3190  -24.3580 N.am   13  LEU13      -0.1977
     37  CA         4.8660   23.4640  -23.4480 C.3    13  LEU13       0.1596
     38  C          3.5360   23.7290  -22.8040 C.2    13  LEU13       0.2287
     39  O          3.4570   23.9650  -21.5670 O.2    13  LEU13      -0.2864
     40  CB         5.3830   24.7320  -24.1150 C.3    13  LEU13       0.0297
     41  CG         6.8470   25.0780  -23.9190 C.3    13  LEU13       0.0022
     42  CD1        7.7740   23.9100  -24.0740 C.3    13  LEU13       0.0001
     43  CD2        7.2390   26.2410  -24.7880 C.3    13  LEU13       0.0001
     44  N          1.1130   21.5680  -22.0850 N.3    15  ARG15      -0.1245
     45  CA         0.9400   20.5590  -21.0460 C.3    15  ARG15       0.1563
     46  C          1.8720   20.8550  -19.8560 C.2    15  ARG15       0.2260
     47  O          1.4950   20.6370  -18.6790 O.2    15  ARG15      -0.2867
     48  CB         1.1880   19.1240  -21.5430 C.3    15  ARG15       0.0307
     49  CG         0.0170   18.6700  -22.4830 C.3    15  ARG15       0.0489
     50  CD         0.1830   17.2120  -22.9500 C.3    15  ARG15       0.2205
     51  NE         1.1580   17.1330  -24.0220 N.pl3  15  ARG15      -0.0865
     52  CZ         0.9300   17.4590  -25.3130 C.cat  15  ARG15       0.5346
     53  NH1        1.9320   17.3320  -26.1920 N.pl3  15  ARG15       0.1354
     54  NH2       -0.2730   17.9200  -25.7460 N.pl3  15  ARG15       0.1354
     55  N         -6.8440   27.2530  -28.1400 N.3    34  THR34      -0.1203
     56  CA        -6.2310   26.4900  -29.1660 C.3    34  THR34       0.1994
     57  C         -6.7580   26.9320  -30.5180 C.2    34  THR34       0.2618
     58  O         -7.8940   27.4530  -30.6490 O.2    34  THR34      -0.2717
     59  CB        -6.4750   24.9580  -28.9490 C.3    34  THR34       0.1784
     60  OG1       -5.8950   24.2310  -30.0350 O.3    34  THR34      -0.2211
     61  CG2       -7.9670   24.5880  -28.9100 C.3    34  THR34       0.0376
     62  N         -5.9580   26.6800  -31.5390 N.am   35  ARG35      -0.1965
     63  CA        -6.4070   26.9030  -32.8740 C.3    35  ARG35       0.1729
     64  C         -7.2130   25.7160  -33.4590 C.2    35  ARG35       0.2616
     65  O         -7.9230   25.8640  -34.4460 O.2    35  ARG35      -0.2715
     66  CB        -5.2430   27.2790  -33.7660 C.3    35  ARG35       0.0348
     67  CG        -4.5840   28.6330  -33.3610 C.3    35  ARG35       0.0492
     68  CD        -3.2540   28.7740  -34.0200 C.3    35  ARG35       0.2205
     69  NE        -2.3820   27.7580  -33.4380 N.pl3  35  ARG35      -0.0865
     70  CZ        -1.1240   27.5760  -33.7960 C.cat  35  ARG35       0.5346
     71  NH1       -0.5720   28.3290  -34.7310 N.pl3  35  ARG35       0.1354
     72  NH2       -0.3990   26.6400  -33.2030 N.pl3  35  ARG35       0.1354
     73  N         -7.0190   24.5390  -32.9250 N.am   36  ARG36      -0.1977
     74  CA        -7.8660   23.4100  -33.2520 C.3    36  ARG36       0.1597
     75  C         -9.2750   23.5970  -32.6930 C.2    36  ARG36       0.2287
     76  O         -9.5540   24.4970  -31.8890 O.2    36  ARG36      -0.2864
     77  CB        -7.2310   22.1190  -32.7290 C.3    36  ARG36       0.0334
     78  CG        -5.9670   21.7480  -33.4550 C.3    36  ARG36       0.0492
     79  CD        -5.1200   20.7420  -32.6860 C.3    36  ARG36       0.2205
     80  NE        -4.3870   21.3300  -31.5470 N.pl3  36  ARG36      -0.0865
     81  CZ        -3.8180   20.6400  -30.5530 C.cat  36  ARG36       0.5346
     82  NH1       -3.8540   19.3010  -30.5120 N.pl3  36  ARG36       0.1354
     83  NH2       -3.1810   21.3050  -29.5730 N.pl3  36  ARG36       0.1354
     84  N         -8.9930   30.1570  -30.0090 N.3    52  VAL52      -0.1245
     85  CA        -8.2570   31.4350  -29.9120 C.3    52  VAL52       0.1561
     86  C         -9.1440   32.6550  -30.2430 C.2    52  VAL52       0.2260
     87  O         -8.9160   33.7750  -29.7110 O.2    52  VAL52      -0.2867
     88  CB        -6.9770   31.4820  -30.7820 C.3    52  VAL52       0.0252
     89  CG1       -5.8980   30.5310  -30.1960 C.3    52  VAL52       0.0019
     90  CG2       -7.2150   31.1120  -32.2360 C.3    52  VAL52       0.0019
     91  N          2.4820   29.2500  -25.7480 N.3    68  CYS68      -0.1221
     92  CA         3.1830   28.0020  -25.8120 C.3    68  CYS68       0.1808
     93  C          3.3770   27.4730  -27.1980 C.2    68  CYS68       0.2602
     94  O          3.7250   26.3140  -27.3600 O.2    68  CYS68      -0.2717
     95  CB         2.4980   26.9600  -24.9420 C.3    68  CYS68       0.0970
     96  SG         2.3900   27.3390  -23.1710 S.3    68  CYS68      -0.0800
     97  N          3.2930   28.3490  -28.1860 N.am   69  GLY69      -0.1942
     98  CA         3.3640   27.9390  -29.5700 C.3    69  GLY69       0.2014
     99  C          4.7660   27.8750  -30.0840 C.2    69  GLY69       0.2639
    100  O          5.7430   28.3620  -29.4450 O.2    69  GLY69      -0.2714
    101  N          4.8930   27.2570  -31.2500 N.am   70  GLY70      -0.1939
    102  CA         6.2340   27.0530  -31.8590 C.3    70  GLY70       0.2014
    103  C          6.8210   28.3580  -32.3140 C.2    70  GLY70       0.2639
    104  O          6.0660   29.3160  -32.6330 O.2    70  GLY70      -0.2714
    105  N          8.1540   28.4410  -32.3250 N.am   71  SER71      -0.1949
    106  CA         8.7910   29.7180  -32.6570 C.3    71  SER71       0.1924
    107  C          8.8300   30.0370  -34.1470 C.2    71  SER71       0.2314
    108  O          8.7950   31.2060  -34.5130 O.2    71  SER71      -0.2863
    109  CB        10.2650   29.8080  -32.0890 C.3    71  SER71       0.2116
    110  OG        10.2000   29.7960  -30.6630 O.3    71  SER71      -0.2180
    111  N          4.3620   29.9710  -35.3130 N.3    74  ASP74      -0.1239
    112  CA         3.2570   30.2560  -34.4580 C.3    74  ASP74       0.1674
    113  C          3.4520   31.5960  -33.7540 C.2    74  ASP74       0.2266
    114  O          2.5660   32.4750  -33.7840 O.2    74  ASP74      -0.2867
    115  CB         3.0050   29.2130  -33.3690 C.3    74  ASP74       0.1410
    116  CG         2.6440   27.8390  -33.8930 C.2    74  ASP74       0.3668
    117  OD1        2.2090   27.7230  -35.0530 O.co2  74  ASP74      -0.2456
    118  OD2        2.8020   26.8560  -33.1160 O.co2  74  ASP74      -0.2456
    119  N          1.3840   34.9450  -33.0420 N.3    78  GLN78      -0.1245
    120  CA         0.6030   34.9900  -31.8580 C.3    78  GLN78       0.1566
    121  C          1.1810   35.9550  -30.8310 C.2    78  GLN78       0.2260
    122  O          0.4470   36.4250  -29.9790 O.2    78  GLN78      -0.2867
    123  CB         0.4130   33.5930  -31.2340 C.3    78  GLN78       0.0367
    124  CG        -0.4010   32.6610  -32.1680 C.3    78  GLN78       0.0905
    125  CD        -0.7090   31.3300  -31.5460 C.2    78  GLN78       0.2608
    126  OE1       -1.8990   30.9620  -31.3150 O.2    78  GLN78      -0.2717
    127  NE2        0.3410   30.6340  -31.1740 N.am   78  GLN78      -0.0878
    128  N          8.3600   31.6210  -25.2560 N.3    91  SER91      -0.1217
    129  CA         9.6570   30.9440  -25.2740 C.3    91  SER91       0.1889
    130  C         10.4540   31.0970  -26.5740 C.2    91  SER91       0.2288
    131  O         11.3150   30.2700  -26.9070 O.2    91  SER91      -0.2866
    132  CB         9.4490   29.4600  -24.9330 C.3    91  SER91       0.2089
    133  OG         9.0550   28.7660  -26.1580 O.3    91  SER91      -0.2183
    134  N         12.5580   31.2910  -29.7490 N.3    93  ASP93      -0.1239
    135  CA        13.9830   30.9080  -29.7050 C.3    93  ASP93       0.1674
    136  C         14.7370   31.0450  -30.9890 C.2    93  ASP93       0.2266
    137  O         15.8240   30.4520  -31.1650 O.2    93  ASP93      -0.2867
    138  CB        14.1230   29.4890  -29.1660 C.3    93  ASP93       0.1410
    139  CG        13.6660   28.4500  -30.1270 C.2    93  ASP93       0.3668
    140  OD1       13.1870   28.8400  -31.2030 O.co2  93  ASP93      -0.2456
    141  OD2       13.7730   27.2590  -29.8000 O.co2  93  ASP93      -0.2456
    142  N         11.6980   33.2620  -22.8440 N.3   120  VAL120     -0.1231
    143  CA        11.8900   32.6620  -21.5690 C.3   120  VAL120      0.1692
    144  C         11.9590   31.1460  -21.7060 C.2   120  VAL120      0.2593
    145  O         11.2680   30.5640  -22.5180 O.2   120  VAL120     -0.2718
    146  CB        10.6950   33.0370  -20.7080 C.3   120  VAL120      0.0266
    147  CG1       10.7440   32.3340  -19.3450 C.3   120  VAL120      0.0020
    148  CG2       10.6360   34.5800  -20.5540 C.3   120  VAL120      0.0020
    149  N         12.7530   30.5050  -20.8700 N.am  121  GLY121     -0.1942
    150  CA        12.9480   29.0550  -20.8950 C.3   121  GLY121      0.2014
    151  C         14.3700   28.8160  -20.3960 C.2   121  GLY121      0.2639
    152  O         14.8910   29.6090  -19.5620 O.2   121  GLY121     -0.2714
    153  N         15.0040   27.7440  -20.8670 N.am  122  TRP122     -0.1959
    154  CA        16.3660   27.4890  -20.5240 C.3   122  TRP122      0.1771
    155  C         17.3760   27.9060  -21.5350 C.2   122  TRP122      0.2620
    156  O         18.4720   28.3870  -21.1750 O.2   122  TRP122     -0.2715
    157  CB        16.5650   26.0680  -20.0410 C.3   122  TRP122      0.0590
    158  CG        16.2630   24.9510  -21.0160 C.ar  122  TRP122      0.0006
    159  CD1       15.0490   24.4710  -21.3180 C.ar  122  TRP122      0.0946
    160  CD2       17.2000   24.2210  -21.7740 C.ar  122  TRP122      0.0152
    161  NE1       15.1480   23.4290  -22.2080 N.ar  122  TRP122     -0.2442
    162  CE2       16.4680   23.2570  -22.5170 C.ar  122  TRP122      0.0810
    163  CE3       18.5940   24.2290  -21.8490 C.ar  122  TRP122      0.0012
    164  CZ2       17.0810   22.3340  -23.3530 C.ar  122  TRP122      0.0191
    165  CZ3       19.2060   23.3100  -22.6640 C.ar  122  TRP122      0.0001
    166  CH2       18.4500   22.3720  -23.4140 C.ar  122  TRP122      0.0015
    167  N         17.0810   27.8120  -22.8250 N.am  123  ASP123     -0.1958
    168  CA        17.9340   28.5130  -23.7950 C.3   123  ASP123      0.1825
    169  C         17.1350   28.8020  -25.0760 C.2   123  ASP123      0.2464
    170  O         16.9550   27.9390  -25.8890 O.2   123  ASP123     -0.2730
    171  CB        19.1640   27.7080  -24.1680 C.3   123  ASP123      0.1450
    172  CG        20.2640   28.5660  -24.7930 C.2   123  ASP123      0.3671
    173  OD1       20.0070   29.7470  -25.0690 O.co2 123  ASP123     -0.2456
    174  OD2       21.4100   28.1230  -24.9700 O.co2 123  ASP123     -0.2456
    175  N         16.7480   30.0190  -25.2920 N.am  124  PRO124     -0.2727
    176  CA        17.0430   31.1830  -24.4930 C.3   124  PRO124      0.1402
    177  C         16.3420   31.1750  -23.1140 C.2   124  PRO124      0.2269
    178  O         15.3570   30.4680  -22.8820 O.2   124  PRO124     -0.2865
    179  CB        16.5420   32.3670  -25.3730 C.3   124  PRO124      0.0296
    180  CG        15.6060   31.7410  -26.3400 C.3   124  PRO124      0.0237
    181  CD        15.9760   30.3210  -26.5200 C.3   124  PRO124      0.0939
    182  N         13.9580   18.3290  -30.8620 N.3   153  GLN153     -0.1245
    183  CA        12.8050   18.2050  -31.7100 C.3   153  GLN153      0.1566
    184  C         13.0590   18.7520  -33.1360 C.2   153  GLN153      0.2260
    185  O         12.6420   18.1770  -34.0720 O.2   153  GLN153     -0.2867
    186  CB        11.5670   18.7900  -31.0870 C.3   153  GLN153      0.0367
    187  CG        10.2830   18.1240  -31.5710 C.3   153  GLN153      0.0905
    188  CD        10.2920   16.5950  -31.4930 C.2   153  GLN153      0.2608
    189  OE1       10.4220   16.0230  -30.4250 O.2   153  GLN153     -0.2717
    190  NE2       10.1360   15.9330  -32.6400 N.am  153  GLN153     -0.0878
    191  N         12.5870   18.4060  -20.7710 N.3   275  ASN275     -0.1226
    192  CA        12.8640   19.7330  -21.2410 C.3   275  ASN275      0.1770
    193  C         11.6230   20.5950  -21.3040 C.2   275  ASN275      0.2439
    194  O         11.6230   21.5970  -20.7130 O.2   275  ASN275     -0.2733
    195  CB        13.5890   19.5850  -22.5880 C.3   275  ASN275      0.1168
    196  CG        13.3850   20.7210  -23.5790 C.2   275  ASN275      0.2627
    197  OD1       13.1550   21.8430  -23.2730 O.2   275  ASN275     -0.2716
    198  ND2       13.5640   20.3790  -24.8080 N.am  275  ASN275     -0.0877
    199  N         10.4830   20.0700  -21.9500 N.am  276  PRO276     -0.2729
    200  CA         9.3070   20.9780  -21.9370 C.3   276  PRO276      0.1401
    201  C          8.7250   21.3240  -20.5460 C.2   276  PRO276      0.2269
    202  O          8.2590   22.3910  -20.3510 O.2   276  PRO276     -0.2865
    203  CB         8.2700   20.3010  -22.8290 C.3   276  PRO276      0.0296
    204  CG         8.6480   18.9180  -22.9090 C.3   276  PRO276      0.0237
    205  CD        10.1100   18.8690  -22.8410 C.3   276  PRO276      0.0939
    206  N         10.9990   24.0590  -19.1010 N.3   279  THR279     -0.1218
    207  CA        10.7900   25.2940  -19.7840 C.3   279  THR279      0.1862
    208  C          9.4800   25.9270  -19.2380 C.2   279  THR279      0.2287
    209  O          9.4560   27.0970  -18.9060 O.2   279  THR279     -0.2866
    210  CB        10.6870   25.0530  -21.3120 C.3   279  THR279      0.1770
    211  OG1       11.9010   24.5500  -21.7830 O.3   279  THR279     -0.2211
    212  CG2       10.3600   26.2970  -22.0920 C.3   279  THR279      0.0375
@<TRIPOS>BOND
     1   111   112    1
     2   117   116   ar
     3    71    70    1
     4   108   107    2
     5   112   113    1
     6   112   115    1
     7    65    64    2
     8   107   106    1
     9   185   184    2
    10    68    69    1
    11    68    67    1
    12   116   115    1
    13   116   118   ar
    14    70    69    2
    15    70    72    1
    16   114   113    2
    17    66    67    1
    18    66    63    1
    19    64    73   am
    20    64    63    1
    21    78    77    1
    22    78    79    1
    23    74    73    1
    24    74    77    1
    25    74    75    1
    26   184   183    1
    27   119   120    1
    28    63    62    1
    29    75    76    2
    30    79    80    1
    31   106   105    1
    32   106   109    1
    33   190   188   am
    34   104   103    2
    35   105   103   am
    36   103   102    1
    37    90    88    1
    38   124   125    1
    39   124   123    1
    40   109   110    1
    41   102   101    1
    42   120   123    1
    43   120   121    1
    44   183   186    1
    45   183   182    1
    46   187   188    1
    47   187   186    1
    48    80    81    2
    49   125   126    2
    50   125   127   am
    51    62    57   am
    52   188   189    2
    53   101    99   am
    54   140   139   ar
    55   137   136    2
    56   136   135    1
    57   121   122    2
    58    88    89    1
    59    88    85    1
    60    58    57    2
    61    81    82    1
    62    81    83    1
    63    57    56    1
    64    86    85    1
    65    86    87    2
    66   139   141   ar
    67   139   138    1
    68    99    98    1
    69    99   100    2
    70    60    59    1
    71    84    85    1
    72   134   135    1
    73   135   138    1
    74    98    97    1
    75    56    59    1
    76    56    55    1
    77    59    61    1
    78    97    93   am
    79     6     5    1
    80     9     8    1
    81     9    10    1
    82    35    33   am
    83    94    93    2
    84    25    24    1
    85    25    26    1
    86    15    14    2
    87    93    92    1
    88    12    10   am
    89    12    13    1
    90    24    14   am
    91   131   130    2
    92    14    13    1
    93     8     3   am
    94    10    11    2
    95   130   129    1
    96   181   180    1
    97   181   175    1
    98     4     3    2
    99    33    34    2
   100    33    32    1
   101    13    16    1
   102   180   179    1
   103     5     7    1
   104     5     2    1
   105     3     2    1
   106    53    52    1
   107   133   132    1
   108    28    26   am
   109    28    29    1
   110    16    17    1
   111    26    27    2
   112   170   169    2
   113    92    91    1
   114    92    95    1
   115    54    52    1
   116     2     1    1
   117    32    29    1
   118   179   176    1
   119    52    51    2
   120   175   169   am
   121   175   176    1
   122   129   128    1
   123   129   132    1
   124   169   168    1
   125   173   172   ar
   126    29    30    1
   127   174   172   ar
   128    95    96    1
   129    19    17   ar
   130    19    21   ar
   131   198   196   am
   132   172   171    1
   133    43    41    1
   134    17    18   ar
   135   176   177    1
   136    36    30   am
   137    36    37    1
   138   171   168    1
   139    40    41    1
   140    40    37    1
   141    42    41    1
   142    51    50    1
   143    30    31    2
   144    21    22   ar
   145   168   167    1
   146   196   197    2
   147   196   195    1
   148    18    20   ar
   149    37    38    1
   150   166   164   ar
   151   166   165   ar
   152   164   162   ar
   153   177   178    2
   154    50    49    1
   155   204   205    1
   156   204   203    1
   157   142   143    1
   158   205   199    1
   159   203   200    1
   160   167   155   am
   161    38    39    2
   162   165   163   ar
   163   195   192    1
   164    22    20   ar
   165    22    23    1
   166   145   144    2
   167   162   161   ar
   168   162   160   ar
   169    49    48    1
   170   161   159   ar
   171   212   210    1
   172    44    45    1
   173   199   200    1
   174   199   193   am
   175   200   201    1
   176   163   160   ar
   177   211   210    1
   178   160   158   ar
   179   144   143    1
   180   144   149   am
   181   143   146    1
   182    48    45    1
   183   155   156    2
   184   155   154    1
   185   159   158   ar
   186   210   207    1
   187   193   192    1
   188   193   194    2
   189   192   191    1
   190    45    46    1
   191   158   157    1
   192   150   149    1
   193   150   151    1
   194   153   154    1
   195   153   151   am
   196   146   148    1
   197   146   147    1
   198   201   202    2
   199   154   157    1
   200   151   152    2
   201    46    47    2
   202   207   208    1
   203   207   206    1
   204   208   209    2
