@<TRIPOS>MOLECULE
tmp/3wycB01.pdb
 112 109 0 0 0
SMALL
GASTEIGER

@<TRIPOS>ATOM
      1  N         12.5580   31.2910  -29.7490 N.3    93  ASP93      -0.1239
      2  CA        13.9830   30.9080  -29.7050 C.3    93  ASP93       0.1674
      3  C         14.7370   31.0450  -30.9890 C.2    93  ASP93       0.2266
      4  O         15.8240   30.4520  -31.1650 O.2    93  ASP93      -0.2867
      5  CB        14.1230   29.4890  -29.1660 C.3    93  ASP93       0.1410
      6  CG        13.6660   28.4500  -30.1270 C.2    93  ASP93       0.3668
      7  OD1       13.1870   28.8400  -31.2030 O.co2  93  ASP93      -0.2456
      8  OD2       13.7730   27.2590  -29.8000 O.co2  93  ASP93      -0.2456
      9  N         15.0040   27.7440  -20.8670 N.3   122  TRP122     -0.1227
     10  CA        16.3660   27.4890  -20.5240 C.3   122  TRP122      0.1737
     11  C         17.3760   27.9060  -21.5350 C.2   122  TRP122      0.2595
     12  O         18.4720   28.3870  -21.1750 O.2   122  TRP122     -0.2718
     13  CB        16.5650   26.0680  -20.0410 C.3   122  TRP122      0.0564
     14  CG        16.2630   24.9510  -21.0160 C.ar  122  TRP122      0.0003
     15  CD1       15.0490   24.4710  -21.3180 C.ar  122  TRP122      0.0946
     16  CD2       17.2000   24.2210  -21.7740 C.ar  122  TRP122      0.0152
     17  NE1       15.1480   23.4290  -22.2080 N.ar  122  TRP122     -0.2442
     18  CE2       16.4680   23.2570  -22.5170 C.ar  122  TRP122      0.0810
     19  CE3       18.5940   24.2290  -21.8490 C.ar  122  TRP122      0.0012
     20  CZ2       17.0810   22.3340  -23.3530 C.ar  122  TRP122      0.0191
     21  CZ3       19.2060   23.3100  -22.6640 C.ar  122  TRP122      0.0001
     22  CH2       18.4500   22.3720  -23.4140 C.ar  122  TRP122      0.0015
     23  N         17.0810   27.8120  -22.8250 N.am  123  ASP123     -0.1974
     24  CA        17.9340   28.5130  -23.7950 C.3   123  ASP123      0.1709
     25  C         17.1350   28.8020  -25.0760 C.2   123  ASP123      0.2293
     26  O         16.9550   27.9390  -25.8890 O.2   123  ASP123     -0.2864
     27  CB        19.1640   27.7080  -24.1680 C.3   123  ASP123      0.1436
     28  CG        20.2640   28.5660  -24.7930 C.2   123  ASP123      0.3671
     29  OD1       20.0070   29.7470  -25.0690 O.co2 123  ASP123     -0.2456
     30  OD2       21.4100   28.1230  -24.9700 O.co2 123  ASP123     -0.2456
     31  N         24.9140   21.9010  -25.1940 N.3   147  TRP147     -0.1241
     32  CA        23.5740   21.3740  -25.0490 C.3   147  TRP147      0.1605
     33  C         23.5950   19.8460  -25.0590 C.2   147  TRP147      0.2264
     34  O         24.3150   19.2000  -25.8090 O.2   147  TRP147     -0.2867
     35  CB        22.6510   21.9350  -26.1680 C.3   147  TRP147      0.0550
     36  CG        22.6270   23.3710  -26.2660 C.ar  147  TRP147      0.0003
     37  CD1       21.9020   24.2170  -25.5100 C.ar  147  TRP147      0.0946
     38  CD2       23.4050   24.1710  -27.1280 C.ar  147  TRP147      0.0152
     39  NE1       22.1250   25.4980  -25.8680 N.ar  147  TRP147     -0.2442
     40  CE2       23.0740   25.5090  -26.8540 C.ar  147  TRP147      0.0810
     41  CE3       24.4190   23.8980  -28.0720 C.ar  147  TRP147      0.0012
     42  CZ2       23.6680   26.5740  -27.5260 C.ar  147  TRP147      0.0191
     43  CZ3       25.0270   24.9680  -28.7500 C.ar  147  TRP147      0.0001
     44  CH2       24.6410   26.2950  -28.4770 C.ar  147  TRP147      0.0015
     45  N         17.1520   15.2290  -26.4700 N.3   151  VAL151     -0.1231
     46  CA        16.4290   15.1580  -27.7290 C.3   151  VAL151      0.1692
     47  C         16.1760   16.4960  -28.2850 C.2   151  VAL151      0.2593
     48  O         15.5800   17.3380  -27.6100 O.2   151  VAL151     -0.2718
     49  CB        15.0850   14.4220  -27.5490 C.3   151  VAL151      0.0266
     50  CG1       14.2960   14.4800  -28.8420 C.3   151  VAL151      0.0020
     51  CG2       15.3700   12.9740  -27.2300 C.3   151  VAL151      0.0020
     52  N         16.5590   16.6860  -29.5180 N.am  152  SER152     -0.1938
     53  CA        16.2430   17.8960  -30.1960 C.3   152  SER152      0.2055
     54  C         15.0740   17.6950  -31.1490 C.2   152  SER152      0.2642
     55  O         15.2000   17.0160  -32.1150 O.2   152  SER152     -0.2714
     56  CB        17.4480   18.3650  -30.9560 C.3   152  SER152      0.2130
     57  OG        17.0900   19.3510  -31.8590 O.3   152  SER152     -0.2179
     58  N         13.9580   18.3290  -30.8620 N.am  153  GLN153     -0.1976
     59  CA        12.8050   18.2050  -31.7100 C.3   153  GLN153      0.1601
     60  C         13.0590   18.7520  -33.1360 C.2   153  GLN153      0.2287
     61  O         12.6420   18.1770  -34.0720 O.2   153  GLN153     -0.2864
     62  CB        11.5670   18.7900  -31.0870 C.3   153  GLN153      0.0394
     63  CG        10.2830   18.1240  -31.5710 C.3   153  GLN153      0.0908
     64  CD        10.2920   16.5950  -31.4930 C.2   153  GLN153      0.2608
     65  OE1       10.4220   16.0230  -30.4250 O.2   153  GLN153     -0.2717
     66  NE2       10.1360   15.9330  -32.6400 N.am  153  GLN153     -0.0878
     67  N         15.9150   18.8310  -34.8430 N.3   155  HIS155     -0.1241
     68  CA        16.7680   17.9430  -35.6250 C.3   155  HIS155      0.1621
     69  C         16.0130   16.6150  -35.9090 C.2   155  HIS155      0.2264
     70  O         16.1350   16.0690  -36.9980 O.2   155  HIS155     -0.2867
     71  CB        18.0340   17.6340  -34.9030 C.3   155  HIS155      0.0745
     72  CG        19.0050   18.7440  -34.9230 C.ar  155  HIS155      0.0817
     73  ND1       18.8530   19.8540  -34.1330 N.ar  155  HIS155     -0.2268
     74  CD2       20.1690   18.8970  -35.6030 C.ar  155  HIS155      0.1154
     75  CE1       19.8770   20.6670  -34.3450 C.ar  155  HIS155      0.1986
     76  NE2       20.6690   20.1170  -35.2590 N.ar  155  HIS155     -0.2212
     77  N         21.4120   15.3420  -29.2350 N.3   172  THR172     -0.1218
     78  CA        22.5430   16.2520  -29.2550 C.3   172  THR172      0.1862
     79  C         23.3970   15.8840  -28.0400 C.2   172  THR172      0.2287
     80  O         22.8900   15.8110  -26.9320 O.2   172  THR172     -0.2866
     81  CB        22.0330   17.6340  -29.1680 C.3   172  THR172      0.1770
     82  OG1       21.1160   17.8400  -30.2410 O.3   172  THR172     -0.2211
     83  CG2       23.1490   18.6580  -29.2520 C.3   172  THR172      0.0375
     84  N         26.0950   14.2500  -32.9990 N.3   198  ARG198     -0.1245
     85  CA        24.6890   14.0640  -33.2450 C.3   198  ARG198      0.1563
     86  C         24.4060   12.6170  -33.4940 C.2   198  ARG198      0.2260
     87  O         25.0680   11.9420  -34.3180 O.2   198  ARG198     -0.2867
     88  CB        24.2640   14.9700  -34.3450 C.3   198  ARG198      0.0307
     89  CG        24.4150   16.4340  -33.9350 C.3   198  ARG198      0.0489
     90  CD        23.7190   17.3790  -34.8980 C.3   198  ARG198      0.2205
     91  NE        23.7800   18.7540  -34.4490 N.pl3 198  ARG198     -0.0865
     92  CZ        23.0880   19.2260  -33.4420 C.cat 198  ARG198      0.5346
     93  NH1       22.2640   18.4850  -32.7400 N.pl3 198  ARG198      0.1354
     94  NH2       23.2550   20.4750  -33.1040 N.pl3 198  ARG198      0.1354
     95  N         16.8070   16.6550  -21.7500 N.3   248  HIS248     -0.1241
     96  CA        17.8230   17.5660  -22.3000 C.3   248  HIS248      0.1621
     97  C         18.6290   18.1990  -21.1330 C.2   248  HIS248      0.2264
     98  O         18.4520   17.8220  -20.0050 O.2   248  HIS248     -0.2867
     99  CB        17.1790   18.6190  -23.1570 C.3   248  HIS248      0.0745
    100  CG        17.9320   18.8930  -24.4050 C.ar  248  HIS248      0.0817
    101  ND1       19.3070   18.8690  -24.4560 N.ar  248  HIS248     -0.2268
    102  CD2       17.5080   19.1900  -25.6590 C.ar  248  HIS248      0.1154
    103  CE1       19.7110   19.1320  -25.6850 C.ar  248  HIS248      0.1986
    104  NE2       18.6400   19.3400  -26.4330 N.ar  248  HIS248     -0.2212
    105  N         12.5870   18.4060  -20.7710 N.3   275  ASN275     -0.1240
    106  CA        12.8640   19.7330  -21.2410 C.3   275  ASN275      0.1653
    107  C         11.6230   20.5950  -21.3040 C.2   275  ASN275      0.2266
    108  O         11.6230   21.5970  -20.7130 O.2   275  ASN275     -0.2867
    109  CB        13.5890   19.5850  -22.5880 C.3   275  ASN275      0.1155
    110  CG        13.3850   20.7210  -23.5790 C.2   275  ASN275      0.2627
    111  OD1       13.1550   21.8430  -23.2730 O.2   275  ASN275     -0.2716
    112  ND2       13.5640   20.3790  -24.8080 N.am  275  ASN275     -0.0877
@<TRIPOS>BOND
     1    70    69    2
     2    69    68    1
     3    68    71    1
     4    68    67    1
     5    74    76   ar
     6    74    72   ar
     7    76    75   ar
     8    72    71    1
     9    72    73   ar
    10    90    91    1
    11    90    89    1
    12    91    92    2
    13    75    73   ar
    14    88    89    1
    15    88    85    1
    16    87    86    2
    17    61    60    2
    18    86    85    1
    19    92    94    1
    20    92    93    1
    21    85    84    1
    22    60    59    1
    23    66    64   am
    24    55    54    2
    25    57    56    1
    26    59    62    1
    27    59    58    1
    28    63    64    1
    29    63    62    1
    30    64    65    2
    31     7     6   ar
    32     4     3    2
    33    54    58   am
    34    54    53    1
    35     3     2    1
    36    56    53    1
    37    82    81    1
    38    53    52    1
    39     6     8   ar
    40     6     5    1
    41     1     2    1
    42     2     5    1
    43    52    47   am
    44    78    77    1
    45    78    81    1
    46    78    79    1
    47    83    81    1
    48    50    49    1
    49    43    44   ar
    50    43    41   ar
    51    44    42   ar
    52    47    46    1
    53    47    48    2
    54    41    38   ar
    55    79    80    2
    56    46    49    1
    57    46    45    1
    58    49    51    1
    59    42    40   ar
    60    38    40   ar
    61    38    36   ar
    62    40    39   ar
    63   104   103   ar
    64   104   102   ar
    65    36    35    1
    66    36    37   ar
    67    35    32    1
    68    26    25    2
    69    39    37   ar
    70    34    33    2
    71   103   101   ar
    72   102   100   ar
    73    31    32    1
    74    25    24    1
    75    29    28   ar
    76    33    32    1
    77    30    28   ar
    78   112   110   am
    79    28    27    1
    80   101   100   ar
    81   100    99    1
    82    27    24    1
    83    24    23    1
    84   110   111    2
    85   110   109    1
    86    22    20   ar
    87    22    21   ar
    88    20    18   ar
    89    99    96    1
    90    23    11   am
    91    21    19   ar
    92   109   106    1
    93    18    17   ar
    94    18    16   ar
    95    96    95    1
    96    96    97    1
    97    17    15   ar
    98    19    16   ar
    99    16    14   ar
   100    11    12    2
   101    11    10    1
   102    15    14   ar
   103   107   106    1
   104   107   108    2
   105   106   105    1
   106    97    98    2
   107    14    13    1
   108     9    10    1
   109    10    13    1
