@<TRIPOS>MOLECULE
tmp/3wyhA00.pdb
 96 89 0 0 0
SMALL
GASTEIGER

@<TRIPOS>ATOM
      1  N         22.8480    2.9410   25.2550 N.3    73  GLU73      -0.1245
      2  CA        22.8690    3.3860   26.6380 C.3    73  GLU73       0.1567
      3  C         23.8340    4.4920   26.9730 C.2    73  GLU73       0.2260
      4  O         23.5500    5.3120   27.7060 O.2    73  GLU73      -0.2867
      5  CB        23.0610    2.2430   27.5960 C.3    73  GLU73       0.0388
      6  CG        21.9200    1.2430   27.5700 C.3    73  GLU73       0.1160
      7  CD        20.6500    1.7720   28.2240 C.2    73  GLU73       0.3649
      8  OE1       20.7260    2.8320   28.8180 O.co2  73  GLU73      -0.2457
      9  OE2       19.6340    1.1400   28.1000 O.co2  73  GLU73      -0.2457
     10  N         21.8030    8.7870   32.8990 N.3    86  ASP86      -0.1239
     11  CA        20.4570    8.7040   33.4300 C.3    86  ASP86       0.1674
     12  C         20.2390    9.4200   34.7920 C.2    86  ASP86       0.2266
     13  O         19.6570    8.8910   35.6810 O.2    86  ASP86      -0.2867
     14  CB        19.9910    7.2470   33.4830 C.3    86  ASP86       0.1410
     15  CG        18.4800    7.1480   33.5880 C.2    86  ASP86       0.3668
     16  OD1       17.8390    8.0890   33.1230 O.co2  86  ASP86      -0.2456
     17  OD2       17.9610    6.1600   34.1050 O.co2  86  ASP86      -0.2456
     18  N         21.4560    7.8940   37.8190 N.3    89  ASN89      -0.1225
     19  CA        20.9780    6.5820   38.1980 C.3    89  ASN89       0.1785
     20  C         21.6450    5.4290   37.5130 C.2    89  ASN89       0.2597
     21  O         21.7120    4.3660   38.0480 O.2    89  ASN89      -0.2718
     22  CB        19.4900    6.4820   38.0580 C.3    89  ASN89       0.1169
     23  CG        18.7660    7.4300   38.9590 C.2    89  ASN89       0.2627
     24  OD1       19.0810    7.5510   40.0720 O.2    89  ASN89      -0.2716
     25  ND2       17.8230    8.1060   38.4290 N.am   89  ASN89      -0.0877
     26  N         22.1470    5.6890   36.3320 N.am   90  GLY90      -0.1957
     27  CA        22.6620    4.5990   35.5450 C.3    90  GLY90       0.1869
     28  C         24.1810    4.4660   35.6490 C.2    90  GLY90       0.2309
     29  O         24.8540    5.4370   35.5210 O.2    90  GLY90      -0.2863
     30  N         24.6620    0.8720   31.5470 N.3    95  GLN95      -0.1245
     31  CA        23.8050    1.6500   32.3860 C.3    95  GLN95       0.1566
     32  C         22.8420    0.8600   33.2790 C.2    95  GLN95       0.2260
     33  O         21.6850    0.9990   33.1740 O.2    95  GLN95      -0.2867
     34  CB        23.1080    2.7210   31.6210 C.3    95  GLN95       0.0367
     35  CG        24.0530    3.6720   31.0900 C.3    95  GLN95       0.0905
     36  CD        24.3870    4.7330   32.0880 C.2    95  GLN95       0.2608
     37  OE1       23.6500    5.6540   32.2630 O.2    95  GLN95      -0.2717
     38  NE2       25.5260    4.6180   32.6730 N.am   95  GLN95      -0.0878
     39  N         20.8840    0.3620   36.5640 N.3    97  ASP97      -0.1239
     40  CA        20.2310    1.3100   37.4580 C.3    97  ASP97       0.1674
     41  C         20.6690    1.0360   38.8880 C.2    97  ASP97       0.2266
     42  O         20.4370   -0.0090   39.3660 O.2    97  ASP97      -0.2867
     43  CB        18.7150    1.2540   37.3490 C.3    97  ASP97       0.1410
     44  CG        18.0530    2.4850   37.9330 C.2    97  ASP97       0.3668
     45  OD1       18.4340    2.9140   38.9990 O.co2  97  ASP97      -0.2456
     46  OD2       17.1490    2.9820   37.3090 O.co2  97  ASP97      -0.2456
     47  N         19.4300    2.1210   41.5560 N.3    99  ARG99      -0.1245
     48  CA        18.3690    2.2130   42.5060 C.3    99  ARG99       0.1563
     49  C         17.7880    0.8600   42.8410 C.2    99  ARG99       0.2260
     50  O         17.2230    0.6420   43.8560 O.2    99  ARG99      -0.2867
     51  CB        17.3140    3.1340   42.0300 C.3    99  ARG99       0.0307
     52  CG        17.8590    4.5280   41.7350 C.3    99  ARG99       0.0489
     53  CD        16.8360    5.4000   41.0960 C.3    99  ARG99       0.2205
     54  NE        16.5610    5.0270   39.7460 N.pl3  99  ARG99      -0.0865
     55  CZ        15.5890    5.5270   39.0300 C.cat  99  ARG99       0.5346
     56  NH1       14.8310    6.4800   39.4960 N.pl3  99  ARG99       0.1354
     57  NH2       15.4130    5.1290   37.8380 N.pl3  99  ARG99       0.1354
     58  N         14.4140   -4.0620   28.9100 N.3   147  TYR147     -0.1227
     59  CA        15.6500   -3.6200   29.4990 C.3   147  TYR147      0.1736
     60  C         15.5900   -2.1300   29.8200 C.2   147  TYR147      0.2595
     61  O         16.1700   -1.6870   30.7710 O.2   147  TYR147     -0.2718
     62  CB        16.8510   -3.9690   28.6520 C.3   147  TYR147      0.0548
     63  CG        18.1710   -3.6570   29.2860 C.ar  147  TYR147     -0.0200
     64  CD1       18.8910   -4.6140   29.9060 C.ar  147  TYR147     -0.0009
     65  CD2       18.6990   -2.3970   29.2500 C.ar  147  TYR147     -0.0009
     66  CE1       20.0770   -4.3250   30.4870 C.ar  147  TYR147      0.0417
     67  CE2       19.9430   -2.1150   29.8100 C.ar  147  TYR147      0.0417
     68  CZ        20.6280   -3.0610   30.4440 C.ar  147  TYR147      0.1957
     69  OH        21.8450   -2.8370   31.0280 O.3   147  TYR147     -0.2866
     70  N         14.7910   -1.4240   29.0560 N.am  148  ASN148     -0.1974
     71  CA        14.6410    0.0040   29.2430 C.3   148  ASN148      0.1688
     72  C         13.4670    0.3460   30.1520 C.2   148  ASN148      0.2292
     73  O         13.5960    1.1470   31.0540 O.2   148  ASN148     -0.2864
     74  CB        14.4190    0.7270   27.9280 C.3   148  ASN148      0.1181
     75  CG        14.1680    2.2640   28.1060 C.2   148  ASN148      0.2629
     76  OD1       13.1450    2.7800   27.7440 O.2   148  ASN148     -0.2716
     77  ND2       15.1480    2.9460   28.6320 N.am  148  ASN148     -0.0877
     78  N         12.1370    5.1100   26.4180 N.3   165  THR165     -0.1218
     79  CA        12.7550    6.3690   26.1020 C.3   165  THR165      0.1862
     80  C         12.6620    6.5740   24.5760 C.2   165  THR165      0.2287
     81  O         12.9890    5.7290   23.8510 O.2   165  THR165     -0.2866
     82  CB        14.2230    6.4140   26.5910 C.3   165  THR165      0.1770
     83  OG1       14.2600    6.2700   27.9920 O.3   165  THR165     -0.2211
     84  CG2       14.8920    7.6840   26.2070 C.3   165  THR165      0.0375
     85  N         12.9770    2.1310   21.8220 N.3   169  TYR169     -0.1241
     86  CA        14.1770    1.6020   22.3690 C.3   169  TYR169      0.1605
     87  C         14.5900    0.2610   21.7300 C.2   169  TYR169      0.2264
     88  O         15.6690    0.1290   21.2770 O.2   169  TYR169     -0.2867
     89  CB        14.0640    1.4360   23.8600 C.3   169  TYR169      0.0534
     90  CG        15.3070    0.9080   24.5300 C.ar  169  TYR169     -0.0201
     91  CD1       16.2660    1.7590   25.0400 C.ar  169  TYR169     -0.0009
     92  CD2       15.5170   -0.4530   24.6500 C.ar  169  TYR169     -0.0009
     93  CE1       17.3960    1.2910   25.6330 C.ar  169  TYR169      0.0417
     94  CE2       16.6230   -0.9340   25.2380 C.ar  169  TYR169      0.0417
     95  CZ        17.5930   -0.0680   25.7330 C.ar  169  TYR169      0.1957
     96  OH        18.6980   -0.5160   26.3370 O.3   169  TYR169     -0.2866
@<TRIPOS>BOND
     1    88    87    2
     2    87    86    1
     3    85    86    1
     4    86    89    1
     5    81    80    2
     6    89    90    1
     7    90    92   ar
     8    90    91   ar
     9    80    79    1
    10    92    94   ar
    11    91    93   ar
    12    94    95   ar
    13     1     2    1
    14    93    95   ar
    15    95    96    1
    16    79    78    1
    17    79    82    1
    18    84    82    1
    19    82    83    1
    20     2     3    1
    21     2     5    1
    22     3     4    2
    23     6     5    1
    24     6     7    1
    25    76    75    2
    26    74    75    1
    27    74    71    1
    28     9     7   ar
    29    75    77   am
    30     7     8   ar
    31    62    63    1
    32    62    59    1
    33    58    59    1
    34    70    71    1
    35    70    60   am
    36    71    72    1
    37    65    63   ar
    38    65    67   ar
    39    63    64   ar
    40    59    60    1
    41    67    68   ar
    42    60    61    2
    43    64    66   ar
    44    72    73    2
    45    68    66   ar
    46    68    69    1
    47    35    34    1
    48    35    36    1
    49    30    31    1
    50    34    31    1
    51    36    37    2
    52    36    38   am
    53    31    32    1
    54    10    11    1
    55    16    15   ar
    56    33    32    2
    57    11    14    1
    58    11    12    1
    59    14    15    1
    60    15    17   ar
    61    12    13    2
    62    29    28    2
    63    27    28    1
    64    27    26    1
    65    26    20   am
    66    39    40    1
    67    46    44   ar
    68    43    40    1
    69    43    44    1
    70    40    41    1
    71    20    21    2
    72    20    19    1
    73    18    19    1
    74    57    55    1
    75    44    45   ar
    76    22    19    1
    77    22    23    1
    78    25    23   am
    79    41    42    2
    80    23    24    2
    81    55    56    1
    82    55    54    2
    83    54    53    1
    84    53    52    1
    85    47    48    1
    86    52    51    1
    87    51    48    1
    88    48    49    1
    89    49    50    2
