@<TRIPOS>MOLECULE
tmp/3wyhA01.pdb
 101 99 0 0 0
SMALL
GASTEIGER

@<TRIPOS>ATOM
      1  N         24.6620    0.8720   31.5470 N.3    95  GLN95      -0.1231
      2  CA        23.8050    1.6500   32.3860 C.3    95  GLN95       0.1698
      3  C         22.8420    0.8600   33.2790 C.2    95  GLN95       0.2592
      4  O         21.6850    0.9990   33.1740 O.2    95  GLN95      -0.2718
      5  CB        23.1080    2.7210   31.6210 C.3    95  GLN95       0.0381
      6  CG        24.0530    3.6720   31.0900 C.3    95  GLN95       0.0905
      7  CD        24.3870    4.7330   32.0880 C.2    95  GLN95       0.2608
      8  OE1       23.6500    5.6540   32.2630 O.2    95  GLN95      -0.2717
      9  NE2       25.5260    4.6180   32.6730 N.am   95  GLN95      -0.0878
     10  N         23.4300    0.0550   34.1250 N.am   96  VAL96      -0.1966
     11  CA        22.7430   -0.5390   35.2310 C.3    96  VAL96       0.1727
     12  C         22.1640    0.4640   36.2530 C.2    96  VAL96       0.2616
     13  O         22.9150    1.2740   36.7430 O.2    96  VAL96      -0.2715
     14  CB        23.6600   -1.4550   35.9560 C.3    96  VAL96       0.0290
     15  CG1       23.0160   -1.9730   37.1060 C.3    96  VAL96       0.0023
     16  CG2       24.1420   -2.5190   35.0330 C.3    96  VAL96       0.0023
     17  N         20.8840    0.3620   36.5640 N.am   97  ASP97      -0.1971
     18  CA        20.2310    1.3100   37.4580 C.3    97  ASP97       0.1709
     19  C         20.6690    1.0360   38.8880 C.2    97  ASP97       0.2293
     20  O         20.4370   -0.0090   39.3660 O.2    97  ASP97      -0.2864
     21  CB        18.7150    1.2540   37.3490 C.3    97  ASP97       0.1436
     22  CG        18.0530    2.4850   37.9330 C.2    97  ASP97       0.3671
     23  OD1       18.4340    2.9140   38.9990 O.co2  97  ASP97      -0.2456
     24  OD2       17.1490    2.9820   37.3090 O.co2  97  ASP97      -0.2456
     25  N         17.9660   -0.0460   41.9280 N.3   100  SER100     -0.1202
     26  CA        17.4160   -1.3690   42.1010 C.3   100  SER100      0.2020
     27  C         18.4590   -2.4430   42.0430 C.2   100  SER100      0.2618
     28  O         18.1580   -3.5250   42.3670 O.2   100  SER100     -0.2717
     29  CB        16.3680   -1.6440   41.0280 C.3   100  SER100      0.2103
     30  OG        16.8750   -1.3110   39.7870 O.3   100  SER100     -0.2182
     31  N         19.6470   -2.1610   41.5560 N.am  101  HIS101     -0.1975
     32  CA        20.7600   -3.0760   41.5790 C.3   101  HIS101      0.1656
     33  C         21.9390   -2.4360   42.2800 C.2   101  HIS101      0.2291
     34  O         22.0550   -1.2260   42.2740 O.2   101  HIS101     -0.2864
     35  CB        21.1630   -3.5080   40.1720 C.3   101  HIS101      0.0771
     36  CG        20.0180   -3.6560   39.2570 C.ar  101  HIS101      0.0820
     37  ND1       19.4820   -4.8740   38.9190 N.ar  101  HIS101     -0.2267
     38  CD2       19.2830   -2.7270   38.6270 C.ar  101  HIS101      0.1154
     39  CE1       18.4680   -4.6790   38.1180 C.ar  101  HIS101      0.1986
     40  NE2       18.3320   -3.3850   37.9270 N.ar  101  HIS101     -0.2212
     41  N         21.0710   -9.0600   33.5450 N.3   119  ILE119     -0.1245
     42  CA        19.8430   -8.3660   33.7120 C.3   119  ILE119      0.1561
     43  C         19.0470   -8.4730   32.4070 C.2   119  ILE119      0.2260
     44  O         17.9070   -8.7360   32.4380 O.2   119  ILE119     -0.2867
     45  CB        20.1340   -6.9060   34.0710 C.3   119  ILE119      0.0252
     46  CG1       20.6930   -6.7800   35.4910 C.3   119  ILE119      0.0019
     47  CG2       18.9460   -6.1080   33.9790 C.3   119  ILE119      0.0019
     48  CD1       21.1920   -5.3890   35.8170 C.3   119  ILE119      0.0001
     49  N         15.2350   -9.9770   31.7540 N.3   123  MET123     -0.1245
     50  CA        14.1550   -9.3550   31.0370 C.3   123  MET123      0.1570
     51  C         13.6030  -10.2710   29.9240 C.2   123  MET123      0.2261
     52  O         12.4440  -10.3810   29.7640 O.2   123  MET123     -0.2867
     53  CB        14.5750   -8.0140   30.4760 C.3   123  MET123      0.0387
     54  CG        15.0440   -7.0620   31.5390 C.3   123  MET123      0.0595
     55  SD        13.7590   -6.5040   32.6580 S.3   123  MET123     -0.1393
     56  CE        14.0770   -7.5460   34.0400 C.3   123  MET123      0.0692
     57  N         12.1800   -4.3490   27.4330 N.3   146  ALA146     -0.1231
     58  CA        11.9690   -4.3590   28.8460 C.3   146  ALA146      0.1694
     59  C         13.2630   -3.9150   29.5590 C.2   146  ALA146      0.2592
     60  O         13.1980   -3.4670   30.6470 O.2   146  ALA146     -0.2718
     61  CB        11.5610   -5.7240   29.3210 C.3   146  ALA146      0.0304
     62  N         14.4140   -4.0620   28.9100 N.am  147  TYR147     -0.1962
     63  CA        15.6500   -3.6200   29.4990 C.3   147  TYR147      0.1771
     64  C         15.5900   -2.1300   29.8200 C.2   147  TYR147      0.2620
     65  O         16.1700   -1.6870   30.7710 O.2   147  TYR147     -0.2715
     66  CB        16.8510   -3.9690   28.6520 C.3   147  TYR147      0.0574
     67  CG        18.1710   -3.6570   29.2860 C.ar  147  TYR147     -0.0198
     68  CD1       18.8910   -4.6140   29.9060 C.ar  147  TYR147     -0.0009
     69  CD2       18.6990   -2.3970   29.2500 C.ar  147  TYR147     -0.0009
     70  CE1       20.0770   -4.3250   30.4870 C.ar  147  TYR147      0.0417
     71  CE2       19.9430   -2.1150   29.8100 C.ar  147  TYR147      0.0417
     72  CZ        20.6280   -3.0610   30.4440 C.ar  147  TYR147      0.1957
     73  OH        21.8450   -2.8370   31.0280 O.3   147  TYR147     -0.2866
     74  N         14.7910   -1.4240   29.0560 N.am  148  ASN148     -0.1958
     75  CA        14.6410    0.0040   29.2430 C.3   148  ASN148      0.1819
     76  C         13.4670    0.3460   30.1520 C.2   148  ASN148      0.2621
     77  O         13.5960    1.1470   31.0540 O.2   148  ASN148     -0.2715
     78  CB        14.4190    0.7270   27.9280 C.3   148  ASN148      0.1195
     79  CG        14.1680    2.2640   28.1060 C.2   148  ASN148      0.2630
     80  OD1       13.1450    2.7800   27.7440 O.2   148  ASN148     -0.2716
     81  ND2       15.1480    2.9460   28.6320 N.am  148  ASN148     -0.0877
     82  N         12.3170   -0.2310   29.8450 N.am  149  ALA149     -0.1963
     83  CA        11.0670    0.1240   30.4970 C.3   149  ALA149      0.1728
     84  C         10.4420   -0.8640   31.4880 C.2   149  ALA149      0.2617
     85  O          9.4450   -0.5850   32.0790 O.2   149  ALA149     -0.2715
     86  CB        10.0750    0.5690   29.5260 C.3   149  ALA149      0.0334
     87  N         11.0860   -2.0080   31.6590 N.am  150  GLY150     -0.1941
     88  CA        10.5230   -3.0290   32.5110 C.3   150  GLY150      0.1998
     89  C          9.5630   -3.9100   31.7280 C.2   150  GLY150      0.2481
     90  O          8.9660   -3.4690   30.8350 O.2   150  GLY150     -0.2729
     91  N          9.4940   -5.1670   32.1090 N.am  151  PRO151     -0.2715
     92  CA         8.6470   -6.0880   31.3940 C.3   151  PRO151      0.1536
     93  C          7.1190   -5.7150   31.4820 C.2   151  PRO151      0.2599
     94  O          6.3840   -5.9540   30.6170 O.2   151  PRO151     -0.2715
     95  CB         8.9760   -7.4450   32.0560 C.3   151  PRO151      0.0310
     96  CG         9.5310   -7.1520   33.2500 C.3   151  PRO151      0.0237
     97  CD        10.1260   -5.8100   33.2370 C.3   151  PRO151      0.0939
     98  N          6.7240   -5.1240   32.5830 N.am  152  GLY152     -0.1955
     99  CA         5.4190   -4.5300   32.7070 C.3   152  GLY152      0.1869
    100  C          4.9740   -3.6460   31.5320 C.2   152  GLY152      0.2309
    101  O          3.8400   -3.6220   31.1760 O.2   152  GLY152     -0.2863
@<TRIPOS>BOND
     1    57    58    1
     2    80    79    2
     3    78    79    1
     4    78    75    1
     5    79    81   am
     6    66    67    1
     7    66    63    1
     8    58    61    1
     9    58    59    1
    10    62    63    1
    11    62    59   am
    12    74    75    1
    13    74    64   am
    14    75    76    1
    15    69    67   ar
    16    69    71   ar
    17    67    68   ar
    18    63    64    1
    19    86    83    1
    20    59    60    2
    21    52    51    2
    22    71    72   ar
    23    64    65    2
    24    82    76   am
    25    82    83    1
    26    68    70   ar
    27    51    50    1
    28    76    77    2
    29    72    70   ar
    30    72    73    1
    31    53    50    1
    32    53    54    1
    33    83    84    1
    34    94    93    2
    35    90    89    2
    36    50    49    1
    37     6     5    1
    38     6     7    1
    39   101   100    2
    40    92    93    1
    41    92    95    1
    42    92    91    1
    43    93    98   am
    44    84    87   am
    45    84    85    2
    46   100    99    1
    47    54    55    1
    48     1     2    1
    49     5     2    1
    50    87    88    1
    51    89    91   am
    52    89    88    1
    53    95    96    1
    54     7     8    2
    55     7     9   am
    56    91    97    1
    57     2     3    1
    58    43    44    2
    59    43    42    1
    60    98    99    1
    61    55    56    1
    62     4     3    2
    63    97    96    1
    64     3    10   am
    65    41    42    1
    66    42    45    1
    67    47    45    1
    68    45    46    1
    69    10    11    1
    70    16    14    1
    71    11    14    1
    72    11    12    1
    73    46    48    1
    74    14    15    1
    75    12    17   am
    76    12    13    2
    77    17    18    1
    78    24    22   ar
    79    21    18    1
    80    21    22    1
    81    18    19    1
    82    40    39   ar
    83    40    38   ar
    84    22    23   ar
    85    39    37   ar
    86    38    36   ar
    87    19    20    2
    88    37    36   ar
    89    36    35    1
    90    30    29    1
    91    35    32    1
    92    29    26    1
    93    31    32    1
    94    31    27   am
    95    32    33    1
    96    25    26    1
    97    27    26    1
    98    27    28    2
    99    34    33    2
