@<TRIPOS>MOLECULE
tmp/3wyhB00.pdb
 107 104 0 0 0
SMALL
GASTEIGER

@<TRIPOS>ATOM
      1  N         11.6380   -0.0540  -15.7310 N.3    95  GLN95      -0.1231
      2  CA        12.4280    0.4080  -16.8480 C.3    95  GLN95       0.1698
      3  C         13.3320   -0.6870  -17.3800 C.2    95  GLN95       0.2592
      4  O         14.5070   -0.5930  -17.3300 O.2    95  GLN95      -0.2718
      5  CB        13.1850    1.6900  -16.4920 C.3    95  GLN95       0.0381
      6  CG        12.2760    2.8890  -16.3780 C.3    95  GLN95       0.0905
      7  CD        11.8280    3.4000  -17.6820 C.2    95  GLN95       0.2608
      8  OE1       12.5220    4.1050  -18.3230 O.2    95  GLN95      -0.2717
      9  NE2       10.6690    3.0150  -18.0870 N.am   95  GLN95      -0.0878
     10  N         12.7170   -1.7390  -17.8420 N.am   96  VAL96      -0.1966
     11  CA        13.4290   -2.7690  -18.5410 C.3    96  VAL96       0.1727
     12  C         14.0290   -2.1950  -19.8130 C.2    96  VAL96       0.2616
     13  O         13.3490   -1.6340  -20.5400 O.2    96  VAL96      -0.2715
     14  CB        12.5150   -3.9730  -18.8500 C.3    96  VAL96       0.0290
     15  CG1       13.2020   -4.9360  -19.8400 C.3    96  VAL96       0.0023
     16  CG2       12.1390   -4.6570  -17.5670 C.3    96  VAL96       0.0023
     17  N         15.3140   -2.3580  -20.0040 N.am   97  ASP97      -0.1971
     18  CA        16.0090   -1.8010  -21.1460 C.3    97  ASP97       0.1709
     19  C         15.7870   -2.6400  -22.4100 C.2    97  ASP97       0.2293
     20  O         16.2760   -3.7190  -22.4960 O.2    97  ASP97      -0.2864
     21  CB        17.4930   -1.8020  -20.8590 C.3    97  ASP97       0.1436
     22  CG        18.3000   -0.9640  -21.8320 C.2    97  ASP97       0.3671
     23  OD1       17.8380   -0.6750  -22.8880 O.co2  97  ASP97      -0.2456
     24  OD2       19.4280   -0.6620  -21.5200 O.co2  97  ASP97      -0.2456
     25  N         17.2260   -2.5900  -25.1180 N.3    99  ARG99      -0.1231
     26  CA        18.4590   -2.9150  -25.7900 C.3    99  ARG99       0.1694
     27  C         19.0200   -4.2470  -25.3570 C.2    99  ARG99       0.2593
     28  O         19.7930   -4.8080  -26.0480 O.2    99  ARG99      -0.2718
     29  CB        19.4730   -1.7850  -25.6880 C.3    99  ARG99       0.0321
     30  CG        18.8890   -0.5050  -26.1120 C.3    99  ARG99       0.0489
     31  CD        19.7190    0.6580  -25.7660 C.3    99  ARG99       0.2205
     32  NE        19.9540    0.6800  -24.3670 N.pl3  99  ARG99      -0.0865
     33  CZ        20.7540    1.4980  -23.7290 C.cat  99  ARG99       0.5346
     34  NH1       21.4170    2.4170  -24.3740 N.pl3  99  ARG99       0.1354
     35  NH2       20.8500    1.3790  -22.4420 N.pl3  99  ARG99       0.1354
     36  N         18.6160   -4.7030  -24.1930 N.am  100  SER100     -0.1938
     37  CA        19.1330   -5.9450  -23.7020 C.3   100  SER100      0.2055
     38  C         18.1070   -7.0040  -23.3750 C.2   100  SER100      0.2643
     39  O         18.4490   -8.0770  -23.0560 O.2   100  SER100     -0.2714
     40  CB        20.1400   -5.7390  -22.5680 C.3   100  SER100      0.2130
     41  OG        19.5620   -5.0910  -21.5210 O.3   100  SER100     -0.2179
     42  N         16.8470   -6.6260  -23.4490 N.am  101  HIS101     -0.1973
     43  CA        15.6970   -7.4590  -23.1740 C.3   101  HIS101      0.1656
     44  C         14.5140   -7.1040  -24.0860 C.2   101  HIS101      0.2291
     45  O         14.3300   -5.9620  -24.4650 O.2   101  HIS101     -0.2864
     46  CB        15.2750   -7.3610  -21.7160 C.3   101  HIS101      0.0771
     47  CG        16.4000   -7.5290  -20.7470 C.ar  101  HIS101      0.0820
     48  ND1       16.8120   -8.7530  -20.2910 N.ar  101  HIS101     -0.2267
     49  CD2       17.2360   -6.6300  -20.1970 C.ar  101  HIS101      0.1154
     50  CE1       17.8370   -8.6030  -19.4880 C.ar  101  HIS101      0.1986
     51  NE2       18.1040   -7.3180  -19.4050 N.ar  101  HIS101     -0.2212
     52  N         15.3350   -9.7750  -13.7800 N.3   119  ILE119     -0.1245
     53  CA        16.5650   -9.1310  -14.1380 C.3   119  ILE119      0.1561
     54  C         17.3960   -8.6730  -12.9250 C.2   119  ILE119      0.2260
     55  O         18.5550   -8.8760  -12.8790 O.2   119  ILE119     -0.2867
     56  CB        16.3530   -7.9810  -15.1010 C.3   119  ILE119      0.0252
     57  CG1       15.7510   -8.5000  -16.3820 C.3   119  ILE119      0.0019
     58  CG2       17.6050   -7.2950  -15.3560 C.3   119  ILE119      0.0019
     59  CD1       15.1050   -7.4850  -17.1710 C.3   119  ILE119      0.0001
     60  N         19.1090  -11.6170  -11.5810 N.3   122  SER122     -0.1202
     61  CA        20.2910  -12.0110  -12.3490 C.3   122  SER122      0.2020
     62  C         21.5000  -11.1670  -11.9350 C.2   122  SER122      0.2618
     63  O         22.5310  -11.6610  -11.7990 O.2   122  SER122     -0.2717
     64  CB        20.0640  -12.0280  -13.8630 C.3   122  SER122      0.2103
     65  OG        19.8440  -10.7430  -14.3600 O.3   122  SER122     -0.2182
     66  N         21.2960   -9.8880  -11.7500 N.am  123  MET123     -0.1979
     67  CA        22.3340   -9.0230  -11.2930 C.3   123  MET123      0.1605
     68  C         22.8830   -9.3830   -9.8990 C.2   123  MET123      0.2287
     69  O         24.0400   -9.3870   -9.7160 O.2   123  MET123     -0.2864
     70  CB        21.8490   -7.5750  -11.2950 C.3   123  MET123      0.0413
     71  CG        21.4810   -7.0370  -12.6290 C.3   123  MET123      0.0598
     72  SD        22.8100   -7.0140  -13.8730 S.3   123  MET123     -0.1393
     73  CE        22.6820   -8.6410  -14.5520 C.3   123  MET123      0.0692
     74  N         24.3500   -2.8750   -9.9700 N.3   146  ALA146     -0.1231
     75  CA        24.4450   -3.5310  -11.2420 C.3   146  ALA146      0.1694
     76  C         23.2160   -3.3740  -12.1360 C.2   146  ALA146      0.2592
     77  O         23.3020   -3.4040  -13.3130 O.2   146  ALA146     -0.2718
     78  CB        24.7660   -4.9900  -11.0610 C.3   146  ALA146      0.0304
     79  N         22.0500   -3.3180  -11.5350 N.am  147  TYR147     -0.1962
     80  CA        20.8280   -3.1020  -12.2710 C.3   147  TYR147      0.1771
     81  C         20.9100   -1.8210  -13.1090 C.2   147  TYR147      0.2620
     82  O         20.3840   -1.7690  -14.1480 O.2   147  TYR147     -0.2715
     83  CB        19.6420   -3.0140  -11.3060 C.3   147  TYR147      0.0574
     84  CG        18.3110   -2.9930  -11.9710 C.ar  147  TYR147     -0.0198
     85  CD1       17.6640   -4.1430  -12.2780 C.ar  147  TYR147     -0.0009
     86  CD2       17.6920   -1.8180  -12.3040 C.ar  147  TYR147     -0.0009
     87  CE1       16.4470   -4.1400  -12.8630 C.ar  147  TYR147      0.0417
     88  CE2       16.4740   -1.8080  -12.8910 C.ar  147  TYR147      0.0417
     89  CZ        15.8410   -2.9780  -13.1790 C.ar  147  TYR147      0.1957
     90  OH        14.6330   -2.9980  -13.7670 O.3   147  TYR147     -0.2866
     91  N         21.6490   -0.8310  -12.6100 N.am  148  ASN148     -0.1958
     92  CA        21.8620    0.4550  -13.3150 C.3   148  ASN148      0.1819
     93  C         23.0870    0.3380  -14.2690 C.2   148  ASN148      0.2621
     94  O         23.0040    0.6750  -15.4010 O.2   148  ASN148     -0.2715
     95  CB        22.0360    1.6480  -12.3510 C.3   148  ASN148      0.1195
     96  CG        22.4360    2.9510  -13.0410 C.2   148  ASN148      0.2630
     97  OD1       23.5380    3.4280  -12.9020 O.2   148  ASN148     -0.2716
     98  ND2       21.4960    3.5510  -13.7370 N.am  148  ASN148     -0.0877
     99  N         24.2060   -0.1690  -13.7650 N.am  149  ALA149     -0.1963
    100  CA        25.4610   -0.0290  -14.5140 C.3   149  ALA149      0.1728
    101  C         26.1150   -1.2640  -15.0470 C.2   149  ALA149      0.2616
    102  O         27.1080   -1.1700  -15.6890 O.2   149  ALA149     -0.2715
    103  CB        26.4160    0.7200  -13.7870 C.3   149  ALA149      0.0334
    104  N         25.5410   -2.3980  -14.7050 N.am  150  GLY150     -0.1955
    105  CA        26.0480   -3.6950  -15.0820 C.3   150  GLY150      0.1869
    106  C         26.9900   -4.2470  -14.0580 C.2   150  GLY150      0.2309
    107  O         27.5610   -3.4950  -13.3830 O.2   150  GLY150     -0.2863
@<TRIPOS>BOND
     1    30    31    1
     2    30    29    1
     3    28    27    2
     4    26    29    1
     5    26    27    1
     6    26    25    1
     7    31    32    1
     8    27    36   am
     9    45    44    2
    10    34    33    1
    11    32    33    2
    12    36    37    1
    13    44    43    1
    14    33    35    1
    15    37    38    1
    16    37    40    1
    17    42    38   am
    18    42    43    1
    19    38    39    2
    20    43    46    1
    21    23    22   ar
    22    40    41    1
    23    20    19    2
    24    19    18    1
    25    22    24   ar
    26    22    21    1
    27    46    47    1
    28    18    21    1
    29    18    17    1
    30    47    48   ar
    31    47    49   ar
    32    13    12    2
    33    48    50   ar
    34    49    51   ar
    35    17    12   am
    36    15    14    1
    37    12    11    1
    38    50    51   ar
    39    14    11    1
    40    14    16    1
    41    11    10    1
    42     8     7    2
    43     9     7   am
    44    10     3   am
    45     7     6    1
    46     3     4    2
    47     3     2    1
    48    59    57    1
    49     2     5    1
    50     2     1    1
    51     5     6    1
    52    57    56    1
    53   102   101    2
    54    94    93    2
    55    58    56    1
    56    56    53    1
    57   105   104    1
    58   105   106    1
    59   101   104   am
    60   101   100    1
    61    73    72    1
    62   100   103    1
    63   100    99    1
    64    65    64    1
    65    93    99   am
    66    93    92    1
    67    82    81    2
    68    53    52    1
    69    53    54    1
    70   106   107    2
    71    72    71    1
    72    64    61    1
    73    90    89    1
    74    98    96   am
    75    92    91    1
    76    92    95    1
    77    77    76    2
    78    89    88   ar
    79    89    87   ar
    80    81    91   am
    81    81    80    1
    82    96    97    2
    83    96    95    1
    84    54    55    2
    85    88    86   ar
    86    87    85   ar
    87    71    70    1
    88    61    62    1
    89    61    60    1
    90    86    84   ar
    91    85    84   ar
    92    80    79    1
    93    80    83    1
    94    76    79   am
    95    76    75    1
    96    84    83    1
    97    62    63    2
    98    62    66   am
    99    66    67    1
   100    70    67    1
   101    67    68    1
   102    75    78    1
   103    75    74    1
   104    68    69    2
