@<TRIPOS>MOLECULE
tmp/3wyjA00.pdb
 201 194 0 0 0
SMALL
GASTEIGER

@<TRIPOS>ATOM
      1  N         34.4620   36.1230   52.2680 N.3    12  MET12      -0.1230
      2  CA        34.5060   36.4080   53.6890 C.3    12  MET12       0.1702
      3  C         34.4820   37.9150   53.8770 C.2    12  MET12       0.2592
      4  O         35.2920   38.6390   53.2960 O.2    12  MET12      -0.2718
      5  CB        35.7720   35.7980   54.2960 C.3    12  MET12       0.0401
      6  CG        35.9650   34.3270   53.9380 C.3    12  MET12       0.0596
      7  SD        37.5290   33.6630   54.5430 S.3    12  MET12      -0.1393
      8  CE        38.6670   34.6370   53.5840 C.3    12  MET12       0.0692
      9  N         33.5340   38.3910   54.6730 N.am   13  ASP13      -0.1960
     10  CA        33.4070   39.8210   54.9160 C.3    13  ASP13       0.1840
     11  C         32.7320   40.1250   56.2460 C.2    13  ASP13       0.2623
     12  O         31.9250   39.3330   56.7500 O.2    13  ASP13      -0.2715
     13  CB        32.6260   40.4640   53.7640 C.3    13  ASP13       0.1450
     14  CG        32.4900   41.9670   53.9130 C.2    13  ASP13       0.3671
     15  OD1       33.4090   42.5990   54.4810 O.co2  13  ASP13      -0.2456
     16  OD2       31.4690   42.5180   53.4470 O.co2  13  ASP13      -0.2456
     17  N         33.0850   41.2730   56.8190 N.am   14  GLY14      -0.1940
     18  CA        32.4880   41.6880   58.0750 C.3    14  GLY14       0.2014
     19  C         33.4040   41.7350   59.2840 C.2    14  GLY14       0.2639
     20  O         32.9500   42.0540   60.3790 O.2    14  GLY14      -0.2714
     21  N         34.6850   41.4370   59.0990 N.am   15  ASN15      -0.1958
     22  CA        35.6170   41.4390   60.2190 C.3    15  ASN15       0.1819
     23  C         35.7740   42.8190   60.8530 C.2    15  ASN15       0.2622
     24  O         35.8120   42.9390   62.0740 O.2    15  ASN15      -0.2715
     25  CB        36.9860   40.9140   59.7750 C.3    15  ASN15       0.1195
     26  CG        36.9230   39.4810   59.2700 C.2    15  ASN15       0.2630
     27  OD1       36.6430   38.5530   60.0260 O.2    15  ASN15      -0.2716
     28  ND2       37.1720   39.3010   57.9810 N.am   15  ASN15      -0.0877
     29  N         35.8640   43.8520   60.0210 N.am   16  GLY16      -0.1940
     30  CA        36.0280   45.2000   60.5360 C.3    16  GLY16       0.2014
     31  C         34.7910   45.6640   61.2720 C.2    16  GLY16       0.2638
     32  O         34.8770   46.2680   62.3410 O.2    16  GLY16      -0.2714
     33  N         33.6280   45.3730   60.6990 N.am   17  ARG17      -0.1977
     34  CA        32.3690   45.7620   61.3190 C.3    17  ARG17       0.1597
     35  C         32.2320   45.0460   62.6540 C.2    17  ARG17       0.2287
     36  O         31.7980   45.6340   63.6430 O.2    17  ARG17      -0.2864
     37  CB        31.2010   45.3850   60.4180 C.3    17  ARG17       0.0334
     38  CG        30.0690   46.3990   60.4090 C.3    17  ARG17       0.0492
     39  CD        28.9930   45.9500   59.4450 C.3    17  ARG17       0.2205
     40  NE        29.5930   45.3850   58.2410 N.pl3  17  ARG17      -0.0865
     41  CZ        28.9540   44.5890   57.3920 C.cat  17  ARG17       0.5346
     42  NH1       27.6850   44.2680   57.6170 N.pl3  17  ARG17       0.1354
     43  NH2       29.5900   44.1010   56.3310 N.pl3  17  ARG17       0.1354
     44  N         40.9850   47.0460   64.2110 N.3    26  ARG26      -0.1231
     45  CA        41.0900   46.1280   63.0760 C.3    26  ARG26       0.1694
     46  C         41.7880   44.8120   63.4220 C.2    26  ARG26       0.2591
     47  O         41.2770   43.7330   63.1330 O.2    26  ARG26      -0.2718
     48  CB        41.8590   46.8150   61.9440 C.3    26  ARG26       0.0321
     49  CG        43.3050   47.1280   62.3220 C.3    26  ARG26       0.0489
     50  CD        43.9270   48.2200   61.4690 C.3    26  ARG26       0.2205
     51  NE        44.0780   47.8440   60.0690 N.pl3  26  ARG26      -0.0865
     52  CZ        44.7290   48.5810   59.1760 C.cat  26  ARG26       0.5346
     53  NH1       45.2860   49.7290   59.5420 N.pl3  26  ARG26       0.1354
     54  NH2       44.8250   48.1740   57.9180 N.pl3  26  ARG26       0.1354
     55  N         42.9660   44.9130   64.0280 N.am   27  ALA27      -0.1980
     56  CA        43.7440   43.7410   64.4050 C.3    27  ALA27       0.1597
     57  C         42.8770   42.7080   65.1090 C.2    27  ALA27       0.2287
     58  O         43.0650   41.5060   64.9260 O.2    27  ALA27      -0.2864
     59  CB        44.9110   44.1490   65.3120 C.3    27  ALA27       0.0319
     60  N         40.6540   41.0220   62.4350 N.3    30  HIS30      -0.1241
     61  CA        41.4920   40.1770   61.5900 C.3    30  HIS30       0.1621
     62  C         41.8620   38.8960   62.3240 C.2    30  HIS30       0.2264
     63  O         41.8720   37.8100   61.7460 O.2    30  HIS30      -0.2867
     64  CB        42.7570   40.9380   61.1860 C.3    30  HIS30       0.0745
     65  CG        42.4960   42.0670   60.2400 C.ar   30  HIS30       0.0817
     66  ND1       43.3870   43.1000   60.0400 N.ar   30  HIS30      -0.2268
     67  CD2       41.4370   42.3240   59.4380 C.ar   30  HIS30       0.1154
     68  CE1       42.8860   43.9460   59.1580 C.ar   30  HIS30       0.1986
     69  NE2       41.7030   43.4980   58.7760 N.ar   30  HIS30      -0.2212
     70  N         38.8620   36.8490   62.4070 N.3    33  GLY33      -0.1210
     71  CA        38.6280   36.3220   61.0730 C.3    33  GLY33       0.1956
     72  C         39.4790   35.1120   60.7340 C.2    33  GLY33       0.2611
     73  O         38.9760   34.1390   60.1750 O.2    33  GLY33      -0.2717
     74  N         40.7660   35.1680   61.0660 N.am   34  ALA34      -0.1979
     75  CA        41.6810   34.0570   60.7960 C.3    34  ALA34       0.1597
     76  C         41.1980   32.8070   61.5210 C.2    34  ALA34       0.2287
     77  O         41.2890   31.6960   61.0020 O.2    34  ALA34      -0.2864
     78  CB        43.1060   34.4130   61.2530 C.3    34  ALA34       0.0319
     79  N         38.5020   31.3600   59.6460 N.3    37  VAL37      -0.1245
     80  CA        39.0290   30.7280   58.4430 C.3    37  VAL37       0.1561
     81  C         39.4460   29.2870   58.7560 C.2    37  VAL37       0.2260
     82  O         39.1450   28.3700   57.9900 O.2    37  VAL37      -0.2867
     83  CB        40.2590   31.4920   57.8890 C.3    37  VAL37       0.0252
     84  CG1       40.9570   30.6530   56.7930 C.3    37  VAL37       0.0019
     85  CG2       39.8230   32.8490   57.3180 C.3    37  VAL37       0.0019
     86  N         38.4020   30.4240   49.1190 N.3    54  LEU54      -0.1245
     87  CA        38.1840   31.5770   49.9860 C.3    54  LEU54       0.1561
     88  C         38.6540   32.9050   49.4020 C.2    54  LEU54       0.2260
     89  O         39.7380   33.0000   48.8350 O.2    54  LEU54      -0.2867
     90  CB        38.8690   31.3340   51.3310 C.3    54  LEU54       0.0270
     91  CG        38.4900   30.0180   52.0220 C.3    54  LEU54       0.0019
     92  CD1       39.3310   29.8590   53.2860 C.3    54  LEU54       0.0001
     93  CD2       36.9900   29.9970   52.3570 C.3    54  LEU54       0.0001
     94  N         38.9670   36.9640   50.5710 N.3    56  ALA56      -0.1231
     95  CA        38.8710   37.9740   51.6150 C.3    56  ALA56       0.1694
     96  C         38.4050   39.2870   50.9960 C.2    56  ALA56       0.2592
     97  O         39.1400   39.9140   50.2380 O.2    56  ALA56      -0.2718
     98  CB        40.2260   38.1620   52.2910 C.3    56  ALA56       0.0304
     99  N         37.1780   39.6980   51.3010 N.am   57  PHE57      -0.1962
    100  CA        36.6730   40.9520   50.7580 C.3    57  PHE57       0.1771
    101  C         37.1160   42.1370   51.6020 C.2    57  PHE57       0.2620
    102  O         37.0190   42.1090   52.8320 O.2    57  PHE57      -0.2715
    103  CB        35.1520   40.9710   50.6970 C.3    57  PHE57       0.0574
    104  CG        34.6000   42.2540   50.1400 C.ar   57  PHE57      -0.0200
    105  CD1       34.4960   42.4430   48.7640 C.ar   57  PHE57      -0.0042
    106  CD2       34.2200   43.2900   50.9910 C.ar   57  PHE57      -0.0042
    107  CE1       34.0200   43.6460   48.2440 C.ar   57  PHE57      -0.0003
    108  CE2       33.7430   44.4980   50.4790 C.ar   57  PHE57      -0.0003
    109  CZ        33.6420   44.6750   49.1030 C.ar   57  PHE57      -0.0000
    110  N         37.5760   43.1860   50.9260 N.am   58  SER58      -0.1936
    111  CA        38.0280   44.3970   51.5930 C.3    58  SER58       0.2055
    112  C         37.6030   45.6090   50.7700 C.2    58  SER58       0.2643
    113  O         37.7730   45.6310   49.5490 O.2    58  SER58      -0.2714
    114  CB        39.5530   44.3710   51.7450 C.3    58  SER58       0.2130
    115  OG        40.0090   45.4720   52.5020 O.3    58  SER58      -0.2179
    116  N         37.0390   46.6080   51.4430 N.am   59  SER59      -0.1949
    117  CA        36.5910   47.8290   50.7820 C.3    59  SER59       0.1924
    118  C         37.7680   48.5450   50.1280 C.2    59  SER59       0.2314
    119  O         37.7940   48.7290   48.9110 O.2    59  SER59      -0.2863
    120  CB        35.9260   48.7650   51.7950 C.3    59  SER59       0.2116
    121  OG        34.7880   48.1580   52.3820 O.3    59  SER59      -0.2180
    122  N         50.5260   43.7300   51.9170 N.3    67  LEU67      -0.1231
    123  CA        49.5570   42.6940   52.2610 C.3    67  LEU67       0.1693
    124  C         50.0240   41.3110   51.8270 C.2    67  LEU67       0.2591
    125  O         49.9390   40.3510   52.5930 O.2    67  LEU67      -0.2718
    126  CB        48.2010   42.9990   51.6210 C.3    67  LEU67       0.0284
    127  CG        47.3730   44.1010   52.2820 C.3    67  LEU67       0.0019
    128  CD1       46.1220   44.3610   51.4610 C.3    67  LEU67       0.0001
    129  CD2       47.0070   43.6830   53.6990 C.3    67  LEU67       0.0001
    130  N         50.5170   41.2090   50.5980 N.am   68  MET68      -0.1979
    131  CA        50.9880   39.9280   50.0960 C.3    68  MET68       0.1605
    132  C         52.1970   39.4340   50.8820 C.2    68  MET68       0.2287
    133  O         52.4880   38.2390   50.8930 O.2    68  MET68      -0.2864
    134  CB        51.3130   40.0320   48.6080 C.3    68  MET68       0.0413
    135  CG        50.0830   40.2730   47.7430 C.3    68  MET68       0.0598
    136  SD        48.8010   38.9930   47.9350 S.3    68  MET68      -0.1393
    137  CE        47.5060   39.8970   48.8040 C.3    68  MET68       0.0692
    138  N         52.4330   39.8510   54.1280 N.3    70  LEU70      -0.1231
    139  CA        51.7410   39.3070   55.2870 C.3    70  LEU70       0.1693
    140  C         51.1350   37.9740   54.8880 C.2    70  LEU70       0.2592
    141  O         51.2300   36.9830   55.6160 O.2    70  LEU70      -0.2718
    142  CB        50.6240   40.2560   55.7160 C.3    70  LEU70       0.0284
    143  CG        49.6960   39.7680   56.8270 C.3    70  LEU70       0.0019
    144  CD1       50.4150   39.8220   58.1710 C.3    70  LEU70       0.0001
    145  CD2       48.4550   40.6390   56.8470 C.3    70  LEU70       0.0001
    146  N         50.5070   37.9720   53.7180 N.am   71  PHE71      -0.1976
    147  CA        49.8670   36.7850   53.1790 C.3    71  PHE71       0.1639
    148  C         50.8200   35.5970   53.1750 C.2    71  PHE71       0.2290
    149  O         50.5870   34.5980   53.8570 O.2    71  PHE71      -0.2864
    150  CB        49.3880   37.0510   51.7520 C.3    71  PHE71       0.0560
    151  CG        48.6900   35.8820   51.1280 C.ar   71  PHE71      -0.0200
    152  CD1       47.4010   35.5360   51.5210 C.ar   71  PHE71      -0.0042
    153  CD2       49.3380   35.0930   50.1840 C.ar   71  PHE71      -0.0042
    154  CE1       46.7680   34.4200   50.9850 C.ar   71  PHE71      -0.0003
    155  CE2       48.7140   33.9740   49.6420 C.ar   71  PHE71      -0.0003
    156  CZ        47.4270   33.6360   50.0450 C.ar   71  PHE71      -0.0000
    157  N         52.1820   34.4680   56.5070 N.3    74  ALA74      -0.1245
    158  CA        51.1600   33.7550   57.2600 C.3    74  ALA74       0.1562
    159  C         50.9770   32.3650   56.6610 C.2    74  ALA74       0.2260
    160  O         50.7140   31.3930   57.3720 O.2    74  ALA74      -0.2867
    161  CB        49.8470   34.5230   57.2110 C.3    74  ALA74       0.0290
    162  N         42.9770   29.6390   47.9110 N.3   123  ILE123     -0.1231
    163  CA        42.9600   30.9470   48.5550 C.3   123  ILE123      0.1692
    164  C         43.2170   32.0030   47.4990 C.2   123  ILE123      0.2592
    165  O         44.2010   31.9250   46.7590 O.2   123  ILE123     -0.2718
    166  CB        44.0320   31.0640   49.6650 C.3   123  ILE123      0.0266
    167  CG1       43.7480   30.0460   50.7690 C.3   123  ILE123      0.0019
    168  CG2       44.0210   32.4700   50.2600 C.3   123  ILE123      0.0020
    169  CD1       44.7430   30.0870   51.9030 C.3   123  ILE123      0.0001
    170  N         42.3180   32.9810   47.4260 N.am  124  ALA124     -0.1966
    171  CA        42.4350   34.0560   46.4580 C.3   124  ALA124      0.1728
    172  C         43.3440   35.1440   46.9910 C.2   124  ALA124      0.2616
    173  O         43.2200   35.5690   48.1390 O.2   124  ALA124     -0.2715
    174  CB        41.0600   34.6340   46.1460 C.3   124  ALA124      0.0334
    175  N         44.2730   35.5820   46.1530 N.am  125  ALA125     -0.1963
    176  CA        45.2010   36.6350   46.5240 C.3   125  ALA125      0.1728
    177  C         45.3600   37.4910   45.2810 C.2   125  ALA125      0.2616
    178  O         45.7990   37.0030   44.2340 O.2   125  ALA125     -0.2715
    179  CB        46.5400   36.0410   46.9440 C.3   125  ALA125      0.0334
    180  N         44.9880   38.7610   45.3940 N.am  126  ASN126     -0.1972
    181  CA        45.0680   39.6640   44.2610 C.3   126  ASN126      0.1688
    182  C         44.3420   38.9610   43.1180 C.2   126  ASN126      0.2292
    183  O         44.8740   38.8050   42.0200 O.2   126  ASN126     -0.2864
    184  CB        46.5320   39.9170   43.8870 C.3   126  ASN126      0.1181
    185  CG        46.6910   41.0520   42.9050 C.2   126  ASN126      0.2629
    186  OD1       46.1470   42.1360   43.1070 O.2   126  ASN126     -0.2716
    187  ND2       47.4460   40.8170   41.8370 N.am  126  ASN126     -0.0877
    188  N         31.7430   37.6050   59.2180 N.3   203  TRP203     -0.1241
    189  CA        32.7160   36.5160   59.1440 C.3   203  TRP203      0.1605
    190  C         33.2280   35.9180   60.4620 C.2   203  TRP203      0.2264
    191  O         33.2930   34.6980   60.5950 O.2   203  TRP203     -0.2867
    192  CB        33.9100   36.9150   58.2720 C.3   203  TRP203      0.0550
    193  CG        34.8310   35.7610   58.0350 C.ar  203  TRP203      0.0003
    194  CD1       36.1530   35.6850   58.3660 C.ar  203  TRP203      0.0946
    195  CD2       34.4790   34.4830   57.4830 C.ar  203  TRP203      0.0152
    196  NE1       36.6460   34.4370   58.0630 N.ar  203  TRP203     -0.2442
    197  CE2       35.6410   33.6780   57.5210 C.ar  203  TRP203      0.0810
    198  CE3       33.2890   33.9380   56.9620 C.ar  203  TRP203      0.0012
    199  CZ2       35.6550   32.3480   57.0600 C.ar  203  TRP203      0.0191
    200  CZ3       33.3000   32.6100   56.5020 C.ar  203  TRP203      0.0001
    201  CH2       34.4790   31.8330   56.5570 C.ar  203  TRP203      0.0015
@<TRIPOS>BOND
     1   187   185   am
     2   183   182    2
     3   185   186    2
     4   185   184    1
     5   182   181    1
     6   184   181    1
     7   178   177    2
     8   181   180    1
     9   177   180   am
    10   177   176    1
    11   174   171    1
    12   175   176    1
    13   175   172   am
    14   171   172    1
    15   171   170    1
    16   176   179    1
    17   165   164    2
    18   172   173    2
    19   170   164   am
    20   164   163    1
    21   135   136    1
    22   135   134    1
    23   162   163    1
    24   136   137    1
    25   107   105   ar
    26   107   109   ar
    27   163   166    1
    28   134   131    1
    29   105   104   ar
    30    89    88    2
    31   119   118    2
    32   109   108   ar
    33    86    87    1
    34    88    87    1
    35   113   112    2
    36   155   156   ar
    37   155   153   ar
    38   166   168    1
    39   166   167    1
    40    87    90    1
    41   156   154   ar
    42   131   130    1
    43   131   132    1
    44   118   117    1
    45   104   103    1
    46   104   106   ar
    47   153   151   ar
    48    97    96    2
    49   108   106   ar
    50    94    95    1
    51   130   124   am
    52   103   100    1
    53   100    99    1
    54   100   101    1
    55   167   169    1
    56   112   116   am
    57   112   111    1
    58   117   116    1
    59   117   120    1
    60   132   133    2
    61   110   111    1
    62   110   101   am
    63   154   152   ar
    64    96    99   am
    65    96    95    1
    66   151   152   ar
    67   151   150    1
    68    90    91    1
    69   128   127    1
    70   111   114    1
    71   101   102    2
    72    95    98    1
    73   126   123    1
    74   126   127    1
    75   114   115    1
    76   150   147    1
    77   120   121    1
    78   124   123    1
    79   124   125    2
    80   122   123    1
    81    91    93    1
    82    91    92    1
    83     1     2    1
    84   127   129    1
    85   148   147    1
    86   148   149    2
    87   147   146    1
    88     4     3    2
    89    16    14   ar
    90     8     7    1
    91     2     3    1
    92     2     5    1
    93   146   140   am
    94    13    14    1
    95    13    10    1
    96     3     9   am
    97    14    15   ar
    98     6     5    1
    99     6     7    1
   100   138   139    1
   101     9    10    1
   102   140   139    1
   103   140   141    2
   104    10    11    1
   105   139   142    1
   106   142   143    1
   107    11    12    2
   108    11    17   am
   109    43    41    1
   110   200   201   ar
   111   200   198   ar
   112   157   158    1
   113   201   199   ar
   114   159   158    1
   115   159   160    2
   116    84    83    1
   117    17    18    1
   118   143   145    1
   119   143   144    1
   120   198   195   ar
   121   199   197   ar
   122   161   158    1
   123    85    83    1
   124    41    42    1
   125    41    40    2
   126   195   197   ar
   127   195   193   ar
   128   197   196   ar
   129    83    80    1
   130    54    52    1
   131    28    26   am
   132    82    81    2
   133   193   192    1
   134   193   194   ar
   135   196   194   ar
   136    18    19    1
   137    40    39    1
   138   192   189    1
   139    80    81    1
   140    80    79    1
   141    69    68   ar
   142    69    67   ar
   143    21    19   am
   144    21    22    1
   145   189   188    1
   146   189   190    1
   147    68    66   ar
   148    52    53    1
   149    52    51    2
   150    26    25    1
   151    26    27    2
   152    19    20    2
   153    67    65   ar
   154    39    38    1
   155    25    22    1
   156    29    30    1
   157    29    23   am
   158    66    65   ar
   159    51    50    1
   160    73    72    2
   161    22    23    1
   162    65    64    1
   163    38    37    1
   164    37    34    1
   165   190   191    2
   166    30    31    1
   167    33    31   am
   168    33    34    1
   169    72    74   am
   170    72    71    1
   171    75    74    1
   172    75    78    1
   173    75    76    1
   174    23    24    2
   175    77    76    2
   176    71    70    1
   177    64    61    1
   178    31    32    2
   179    34    35    1
   180    50    49    1
   181    61    62    1
   182    61    60    1
   183    63    62    2
   184    48    49    1
   185    48    45    1
   186    35    36    2
   187    45    46    1
   188    45    44    1
   189    47    46    2
   190    46    55   am
   191    55    56    1
   192    56    57    1
   193    56    59    1
   194    58    57    2
