@<TRIPOS>MOLECULE
tmp/3wykA00.pdb
 153 146 0 0 0
SMALL
GASTEIGER

@<TRIPOS>ATOM
      1  N          4.8140    7.5650  -15.1130 N.3    70  TYR70      -0.1227
      2  CA         5.8040    6.5530  -14.6850 C.3    70  TYR70       0.1736
      3  C          7.2790    6.9840  -14.6520 C.2    70  TYR70       0.2595
      4  O          7.9450    6.7560  -13.6610 O.2    70  TYR70      -0.2718
      5  CB         5.6620    5.2460  -15.4830 C.3    70  TYR70       0.0548
      6  CG         6.6990    4.2110  -15.1220 C.ar   70  TYR70      -0.0200
      7  CD1        6.6820    3.5800  -13.8750 C.ar   70  TYR70      -0.0009
      8  CD2        7.7100    3.8700  -16.0210 C.ar   70  TYR70      -0.0009
      9  CE1        7.6410    2.6300  -13.5410 C.ar   70  TYR70       0.0417
     10  CE2        8.6750    2.9200  -15.7010 C.ar   70  TYR70       0.0417
     11  CZ         8.6350    2.3010  -14.4630 C.ar   70  TYR70       0.1957
     12  OH         9.5860    1.3590  -14.1450 O.3    70  TYR70      -0.2866
     13  N          7.7850    7.5810  -15.7290 N.am   71  HIS71      -0.1975
     14  CA         9.1950    7.9840  -15.7920 C.3    71  HIS71       0.1656
     15  C          9.4820    9.2800  -15.0230 C.2    71  HIS71       0.2291
     16  O          9.9690   10.2680  -15.5780 O.2    71  HIS71      -0.2864
     17  CB         9.6700    8.0660  -17.2420 C.3    71  HIS71       0.0771
     18  CG         9.8330    6.7240  -17.8870 C.ar   71  HIS71       0.0820
     19  ND1        8.9810    6.2570  -18.8640 N.ar   71  HIS71      -0.2267
     20  CD2       10.7330    5.7370  -17.6700 C.ar   71  HIS71       0.1154
     21  CE1        9.3570    5.0440  -19.2260 C.ar   71  HIS71       0.1986
     22  NE2       10.4220    4.7070  -18.5190 N.ar   71  HIS71      -0.2212
     23  N         16.5130   -0.3580  -23.3650 N.3   181  LEU181     -0.1245
     24  CA        16.0960   -1.7600  -23.3710 C.3   181  LEU181      0.1561
     25  C         16.4420   -2.4730  -24.6840 C.2   181  LEU181      0.2260
     26  O         16.6570   -3.6760  -24.7010 O.2   181  LEU181     -0.2867
     27  CB        14.6090   -1.9110  -23.0200 C.3   181  LEU181      0.0270
     28  CG        14.1450   -3.3240  -22.6300 C.3   181  LEU181      0.0019
     29  CD1       14.6270   -3.7790  -21.2510 C.3   181  LEU181      0.0001
     30  CD2       12.6290   -3.4090  -22.7140 C.3   181  LEU181      0.0001
     31  N         18.8660   -6.8460  -24.7400 N.3   185  PHE185     -0.1241
     32  CA        18.7900   -8.1770  -25.3480 C.3   185  PHE185      0.1605
     33  C         20.1350   -8.7180  -25.8160 C.2   185  PHE185      0.2264
     34  O         20.4760   -9.8620  -25.5290 O.2   185  PHE185     -0.2867
     35  CB        17.7640   -8.1880  -26.4880 C.3   185  PHE185      0.0534
     36  CG        16.3770   -7.8260  -26.0420 C.ar  185  PHE185     -0.0203
     37  CD1       15.8560   -6.5630  -26.3040 C.ar  185  PHE185     -0.0042
     38  CD2       15.6010   -8.7420  -25.3230 C.ar  185  PHE185     -0.0042
     39  CE1       14.5770   -6.2240  -25.8820 C.ar  185  PHE185     -0.0003
     40  CE2       14.3230   -8.4050  -24.8940 C.ar  185  PHE185     -0.0003
     41  CZ        13.8100   -7.1420  -25.1740 C.ar  185  PHE185     -0.0000
     42  N         16.2290   -1.0480  -13.2620 N.3   220  ASP220     -0.1225
     43  CA        15.2720   -0.3000  -14.0480 C.3   220  ASP220      0.1805
     44  C         13.9070   -0.9680  -14.0870 C.2   220  ASP220      0.2597
     45  O         12.8860   -0.2790  -14.0630 O.2   220  ASP220     -0.2718
     46  CB        15.7950   -0.0850  -15.4660 C.3   220  ASP220      0.1424
     47  CG        15.1120    1.0700  -16.1690 C.2   220  ASP220      0.3668
     48  OD1       14.4370    1.8950  -15.5090 O.co2 220  ASP220     -0.2456
     49  OD2       15.2440    1.1550  -17.4010 O.co2 220  ASP220     -0.2456
     50  N         13.8800   -2.2970  -14.1220 N.am  221  LEU221     -0.1979
     51  CA        12.6170   -3.0320  -14.2050 C.3   221  LEU221      0.1596
     52  C         12.1200   -3.5170  -12.8520 C.2   221  LEU221      0.2287
     53  O         11.1470   -4.2760  -12.8000 O.2   221  LEU221     -0.2864
     54  CB        12.7490   -4.2350  -15.1410 C.3   221  LEU221      0.0297
     55  CG        13.4120   -4.1020  -16.5160 C.3   221  LEU221      0.0022
     56  CD1       13.6440   -5.4860  -17.0940 C.3   221  LEU221      0.0001
     57  CD2       12.6010   -3.2480  -17.4800 C.3   221  LEU221      0.0001
     58  N         10.3440   -2.8280  -10.4900 N.3   223  SER223     -0.1202
     59  CA         8.9630   -2.7180  -10.0360 C.3   223  SER223      0.2020
     60  C          8.2020   -4.0370  -10.2460 C.2   223  SER223      0.2618
     61  O          7.1340   -4.2430   -9.6650 O.2   223  SER223     -0.2717
     62  CB         8.2550   -1.5620  -10.7360 C.3   223  SER223      0.2103
     63  OG         7.2950   -2.0510  -11.6540 O.3   223  SER223     -0.2182
     64  N          8.7580   -4.9300  -11.0640 N.am  224  VAL224     -0.1979
     65  CA         8.1920   -6.2680  -11.2270 C.3   224  VAL224      0.1595
     66  C          8.6280   -7.1900  -10.0850 C.2   224  VAL224      0.2287
     67  O          8.2280   -8.3630  -10.0340 O.2   224  VAL224     -0.2864
     68  CB         8.5740   -6.9220  -12.5760 C.3   224  VAL224      0.0276
     69  CG1        8.2220   -6.0190  -13.7420 C.3   224  VAL224      0.0022
     70  CG2       10.0470   -7.3090  -12.6110 C.3   224  VAL224      0.0022
     71  N          2.0890   -1.0120  -12.4160 N.3   235  ALA235     -0.1245
     72  CA         1.6900   -1.3720  -13.7770 C.3   235  ALA235      0.1562
     73  C          0.7210   -0.3440  -14.3800 C.2   235  ALA235      0.2260
     74  O          0.8190   -0.0030  -15.5630 O.2   235  ALA235     -0.2867
     75  CB         1.0790   -2.7680  -13.8100 C.3   235  ALA235      0.0290
     76  N          2.6900    2.6380  -15.6660 N.3   238  ILE238     -0.1231
     77  CA         3.4110    2.2580  -16.8800 C.3   238  ILE238      0.1692
     78  C          2.5160    2.3350  -18.1220 C.2   238  ILE238      0.2592
     79  O          2.9070    2.9040  -19.1520 O.2   238  ILE238     -0.2718
     80  CB         4.0360    0.8490  -16.7250 C.3   238  ILE238      0.0266
     81  CG1        5.1330    0.8900  -15.6540 C.3   238  ILE238      0.0019
     82  CG2        4.5820    0.3370  -18.0510 C.3   238  ILE238      0.0020
     83  CD1        5.6240   -0.4620  -15.1920 C.3   238  ILE238      0.0001
     84  N          1.3170    1.7700  -18.0080 N.am  239  TYR239     -0.1976
     85  CA         0.3900    1.6990  -19.1260 C.3   239  TYR239      0.1639
     86  C         -0.3210    3.0190  -19.3810 C.2   239  TYR239      0.2290
     87  O         -0.6300    3.3410  -20.5240 O.2   239  TYR239     -0.2864
     88  CB        -0.6090    0.5470  -18.9460 C.3   239  TYR239      0.0560
     89  CG        -0.0430   -0.7910  -19.3720 C.ar  239  TYR239     -0.0198
     90  CD1        0.5270   -1.6610  -18.4390 C.ar  239  TYR239     -0.0009
     91  CD2       -0.0580   -1.1820  -20.7140 C.ar  239  TYR239     -0.0009
     92  CE1        1.0600   -2.8860  -18.8280 C.ar  239  TYR239      0.0417
     93  CE2        0.4700   -2.4080  -21.1160 C.ar  239  TYR239      0.0417
     94  CZ         1.0270   -3.2570  -20.1680 C.ar  239  TYR239      0.1957
     95  OH         1.5470   -4.4750  -20.5550 O.3   239  TYR239     -0.2866
     96  N          2.1290    4.4730  -21.5490 N.3   242  PHE242     -0.1241
     97  CA         2.0720    3.8380  -22.8720 C.3   242  PHE242      0.1605
     98  C          0.8670    4.3690  -23.6470 C.2   242  PHE242      0.2264
     99  O          0.9640    4.6800  -24.8370 O.2   242  PHE242     -0.2867
    100  CB         1.9790    2.3040  -22.7770 C.3   242  PHE242      0.0534
    101  CG         3.2630    1.6190  -22.3790 C.ar  242  PHE242     -0.0203
    102  CD1        4.5040    2.1760  -22.6680 C.ar  242  PHE242     -0.0042
    103  CD2        3.2270    0.3770  -21.7450 C.ar  242  PHE242     -0.0042
    104  CE1        5.6780    1.5290  -22.2970 C.ar  242  PHE242     -0.0003
    105  CE2        4.3930   -0.2770  -21.3820 C.ar  242  PHE242     -0.0003
    106  CZ         5.6190    0.2990  -21.6560 C.ar  242  PHE242     -0.0000
    107  N          0.8430    0.5060  -31.5420 N.3   257  ILE257     -0.1245
    108  CA         0.8710   -0.9330  -31.3010 C.3   257  ILE257      0.1561
    109  C          0.0390   -1.2250  -30.0440 C.2   257  ILE257      0.2260
    110  O         -0.1410   -0.3330  -29.2090 O.2   257  ILE257     -0.2867
    111  CB         2.3110   -1.4990  -31.2010 C.3   257  ILE257      0.0252
    112  CG1        2.8180   -1.5150  -29.7540 C.3   257  ILE257      0.0019
    113  CG2        3.2560   -0.7500  -32.1360 C.3   257  ILE257      0.0019
    114  CD1        3.5200   -2.8060  -29.3800 C.3   257  ILE257      0.0001
    115  N          0.2820   -2.5550  -27.1410 N.3   259  MET259     -0.1245
    116  CA         0.8140   -2.1510  -25.8430 C.3   259  MET259      0.1570
    117  C          0.4460   -0.7010  -25.5360 C.2   259  MET259      0.2261
    118  O         -0.0200   -0.3880  -24.4430 O.2   259  MET259     -0.2867
    119  CB         2.3290   -2.3340  -25.8140 C.3   259  MET259      0.0387
    120  CG         2.9450   -2.1350  -24.4410 C.3   259  MET259      0.0595
    121  SD         4.6990   -2.5430  -24.3780 S.3   259  MET259     -0.1393
    122  CE         5.4650   -1.1110  -25.1360 C.3   259  MET259      0.0692
    123  N         -0.3550   -9.2670  -21.6640 N.3   271  GLY271     -0.1210
    124  CA         0.8200   -8.4650  -21.9990 C.3   271  GLY271      0.1956
    125  C          1.8760   -8.4790  -20.9130 C.2   271  GLY271      0.2611
    126  O          3.0690   -8.3870  -21.2000 O.2   271  GLY271     -0.2717
    127  N          1.4410   -8.5960  -19.6630 N.am  272  GLN272     -0.1979
    128  CA         2.3700   -8.7370  -18.5430 C.3   272  GLN272      0.1601
    129  C          3.0290  -10.1230  -18.5130 C.2   272  GLN272      0.2287
    130  O          4.2490  -10.2220  -18.4110 O.2   272  GLN272     -0.2864
    131  CB         1.6890   -8.4070  -17.2080 C.3   272  GLN272      0.0394
    132  CG         1.3430   -6.9320  -17.0580 C.3   272  GLN272      0.0908
    133  CD         2.5700   -6.0580  -16.8710 C.2   272  GLN272      0.2608
    134  OE1        3.0940   -5.9360  -15.7660 O.2   272  GLN272     -0.2717
    135  NE2        3.0340   -5.4460  -17.9520 N.am  272  GLN272     -0.0878
    136  N          5.7110  -10.2700  -21.1100 N.3   275  PHE275     -0.1241
    137  CA         6.8850   -9.4560  -20.7870 C.3   275  PHE275      0.1605
    138  C          7.7630  -10.1330  -19.7290 C.2   275  PHE275      0.2264
    139  O          8.9900  -10.2150  -19.8750 O.2   275  PHE275     -0.2867
    140  CB         6.4530   -8.0520  -20.3260 C.3   275  PHE275      0.0534
    141  CG         7.5970   -7.1560  -19.9210 C.ar  275  PHE275     -0.0203
    142  CD1        8.3160   -6.4460  -20.8770 C.ar  275  PHE275     -0.0042
    143  CD2        7.9450   -7.0090  -18.5850 C.ar  275  PHE275     -0.0042
    144  CE1        9.3620   -5.6170  -20.5130 C.ar  275  PHE275     -0.0003
    145  CE2        8.9900   -6.1800  -18.2160 C.ar  275  PHE275     -0.0003
    146  CZ         9.6970   -5.4790  -19.1830 C.ar  275  PHE275     -0.0000
    147  N         11.2640  -11.0390  -21.1490 N.3   279  VAL279     -0.1245
    148  CA        12.1850   -9.9750  -20.7190 C.3   279  VAL279      0.1561
    149  C         12.6110  -10.0390  -19.2430 C.2   279  VAL279      0.2260
    150  O         13.8010  -10.1190  -18.9530 O.2   279  VAL279     -0.2867
    151  CB        11.6250   -8.5580  -21.0130 C.3   279  VAL279      0.0252
    152  CG1       12.6930   -7.5070  -20.7720 C.3   279  VAL279      0.0019
    153  CG2       11.0950   -8.4590  -22.4350 C.3   279  VAL279      0.0019
@<TRIPOS>BOND
     1   113   111    1
     2   107   108    1
     3   108   111    1
     4   108   109    1
     5   111   112    1
     6   109   110    2
     7   112   114    1
     8   115   116    1
     9    35    36    1
    10    35    32    1
    11    37    36   ar
    12    37    39   ar
    13    36    38   ar
    14    39    41   ar
    15   116   119    1
    16   116   117    1
    17    33    34    2
    18    33    32    1
    19   119   120    1
    20   117   118    2
    21    32    31    1
    22    38    40   ar
    23    41    40   ar
    24   122   121    1
    25    99    98    2
    26    26    25    2
    27    25    24    1
    28   120   121    1
    29    98    97    1
    30    24    23    1
    31    24    27    1
    32    27    28    1
    33    97   100    1
    34    97    96    1
    35   100   101    1
    36    30    28    1
    37   102   101   ar
    38   102   104   ar
    39    28    29    1
    40   153   151    1
    41   101   103   ar
    42   104   106   ar
    43   124   123    1
    44   124   125    1
    45   103   105   ar
    46   106   105   ar
    47   126   125    2
    48   147   148    1
    49    93    91   ar
    50    93    94   ar
    51   136   137    1
    52   151   152    1
    53   151   148    1
    54   125   127   am
    55   142   144   ar
    56   142   141   ar
    57   137   140    1
    58   137   138    1
    59   148   149    1
    60    91    89   ar
    61    95    94    1
    62    87    86    2
    63   144   146   ar
    64   140   141    1
    65    94    92   ar
    66   141   143   ar
    67   139   138    2
    68   127   128    1
    69    86    85    1
    70    89    88    1
    71    89    90   ar
    72   149   150    2
    73    21    19   ar
    74    21    22   ar
    75   146   145   ar
    76    79    78    2
    77    85    88    1
    78    85    84    1
    79    19    18   ar
    80    92    90   ar
    81   143   145   ar
    82   128   129    1
    83   128   131    1
    84    22    20   ar
    85   129   130    2
    86    78    84   am
    87    78    77    1
    88    82    80    1
    89   135   133   am
    90    18    20   ar
    91    18    17    1
    92    57    55    1
    93    49    47   ar
    94    17    14    1
    95   131   132    1
    96    56    55    1
    97   132   133    1
    98    77    80    1
    99    77    76    1
   100   133   134    2
   101    80    81    1
   102    55    54    1
   103    47    48   ar
   104    47    46    1
   105     8    10   ar
   106     8     6   ar
   107    14    13    1
   108    14    15    1
   109    13     3   am
   110    10    11   ar
   111    81    83    1
   112    16    15    2
   113    74    73    2
   114     5     6    1
   115     5     2    1
   116    46    43    1
   117    54    51    1
   118     6     7   ar
   119     1     2    1
   120     2     3    1
   121     3     4    2
   122    11    12    1
   123    11     9   ar
   124    73    72    1
   125    51    50    1
   126    51    52    1
   127    50    44   am
   128    44    45    2
   129    44    43    1
   130    43    42    1
   131     7     9   ar
   132    75    72    1
   133    72    71    1
   134    69    68    1
   135    52    53    2
   136    70    68    1
   137    68    65    1
   138    63    62    1
   139    65    64    1
   140    65    66    1
   141    64    60   am
   142    62    59    1
   143    58    59    1
   144    60    59    1
   145    60    61    2
   146    66    67    2
