@<TRIPOS>MOLECULE
tmp/3wymA00.pdb
 174 168 0 0 0
SMALL
GASTEIGER

@<TRIPOS>ATOM
      1  N          4.9580    7.8550  -15.0310 N.3    70  TYR70      -0.1227
      2  CA         5.8990    6.8020  -14.6140 C.3    70  TYR70       0.1736
      3  C          7.3680    7.2200  -14.5110 C.2    70  TYR70       0.2595
      4  O          7.9990    6.9570  -13.4830 O.2    70  TYR70      -0.2718
      5  CB         5.7770    5.5390  -15.4920 C.3    70  TYR70       0.0548
      6  CG         6.7610    4.4580  -15.0610 C.ar   70  TYR70      -0.0200
      7  CD1        6.6490    3.8440  -13.8120 C.ar   70  TYR70      -0.0009
      8  CD2        7.8130    4.0790  -15.8950 C.ar   70  TYR70      -0.0009
      9  CE1        7.5670    2.8720  -13.4110 C.ar   70  TYR70       0.0417
     10  CE2        8.7290    3.1140  -15.5120 C.ar   70  TYR70       0.0417
     11  CZ         8.6110    2.5210  -14.2680 C.ar   70  TYR70       0.1957
     12  OH         9.5120    1.5500  -13.9170 O.3    70  TYR70      -0.2866
     13  N          7.9090    7.8550  -15.5610 N.am   71  HIS71      -0.1975
     14  CA         9.3230    8.2490  -15.5880 C.3    71  HIS71       0.1656
     15  C          9.5950    9.5450  -14.8130 C.2    71  HIS71       0.2291
     16  O         10.0540   10.5490  -15.3600 O.2    71  HIS71      -0.2864
     17  CB         9.8330    8.3290  -17.0310 C.3    71  HIS71       0.0771
     18  CG         9.9920    6.9890  -17.6820 C.ar   71  HIS71       0.0820
     19  ND1        9.1410    6.5270  -18.6630 N.ar   71  HIS71      -0.2267
     20  CD2       10.9010    6.0050  -17.4780 C.ar   71  HIS71       0.1154
     21  CE1        9.5220    5.3180  -19.0370 C.ar   71  HIS71       0.1986
     22  NE2       10.5870    4.9780  -18.3320 N.ar   71  HIS71      -0.2212
     23  N          8.7910    7.2450  -25.8930 N.3   117  SER117     -0.1202
     24  CA         9.8180    6.2810  -26.2880 C.3   117  SER117      0.2020
     25  C         10.7900    6.8760  -27.3170 C.2   117  SER117      0.2618
     26  O         10.4580    7.8480  -28.0150 O.2   117  SER117     -0.2717
     27  CB         9.1490    5.0450  -26.8960 C.3   117  SER117      0.2103
     28  OG         8.6070    5.3480  -28.1800 O.3   117  SER117     -0.2182
     29  N         11.9740    6.2800  -27.4260 N.am  118  ASN118     -0.1974
     30  CA        12.8930    6.5860  -28.5240 C.3   118  ASN118      0.1688
     31  C         12.2550    6.3880  -29.8990 C.2   118  ASN118      0.2292
     32  O         12.4830    7.1700  -30.8290 O.2   118  ASN118     -0.2864
     33  CB        14.1420    5.7150  -28.4210 C.3   118  ASN118      0.1181
     34  CG        14.9770    6.0370  -27.2010 C.2   118  ASN118      0.2629
     35  OD1       14.8520    7.1110  -26.6000 O.2   118  ASN118     -0.2716
     36  ND2       15.8420    5.1090  -26.8320 N.am  118  ASN118     -0.0877
     37  N         20.6090    1.4420  -19.9540 N.3   179  THR179     -0.1203
     38  CA        19.1840    1.4100  -19.6270 C.3   179  THR179      0.1994
     39  C         18.2760    1.5280  -20.8540 C.2   179  THR179      0.2618
     40  O         17.0620    1.4690  -20.7130 O.2   179  THR179     -0.2717
     41  CB        18.7810    2.4710  -18.5710 C.3   179  THR179      0.1784
     42  OG1       18.9070    3.7940  -19.1140 O.3   179  THR179     -0.2211
     43  CG2       19.6340    2.3460  -17.3250 C.3   179  THR179      0.0376
     44  N         18.8500    1.7060  -22.0460 N.am  180  ASP180     -0.1959
     45  CA        18.0700    1.5700  -23.2890 C.3   180  ASP180      0.1840
     46  C         17.7820    0.0800  -23.4650 C.2   180  ASP180      0.2622
     47  O         18.6950   -0.7060  -23.7230 O.2   180  ASP180     -0.2715
     48  CB        18.8420    2.1390  -24.4970 C.3   180  ASP180      0.1450
     49  CG        18.1250    1.9230  -25.8430 C.2   180  ASP180      0.3671
     50  OD1       16.9690    1.4000  -25.9060 O.co2 180  ASP180     -0.2456
     51  OD2       18.7410    2.2940  -26.8690 O.co2 180  ASP180     -0.2456
     52  N         16.5200   -0.3090  -23.3050 N.am  181  LEU181     -0.1963
     53  CA        16.1630   -1.7280  -23.3100 C.3   181  LEU181      0.1728
     54  C         16.4650   -2.4050  -24.6540 C.2   181  LEU181      0.2616
     55  O         16.7150   -3.6090  -24.6930 O.2   181  LEU181     -0.2715
     56  CB        14.7060   -1.9550  -22.8840 C.3   181  LEU181      0.0311
     57  CG        14.3790   -3.4090  -22.4940 C.3   181  LEU181      0.0022
     58  CD1       14.7920   -3.7010  -21.0460 C.3   181  LEU181      0.0001
     59  CD2       12.9000   -3.6980  -22.7020 C.3   181  LEU181      0.0001
     60  N         16.4810   -1.6330  -25.7390 N.am  182  ALA182     -0.1977
     61  CA        16.9430   -2.1500  -27.0350 C.3   182  ALA182      0.1597
     62  C         18.3170   -2.8310  -26.9320 C.2   182  ALA182      0.2287
     63  O         18.5510   -3.8750  -27.5600 O.2   182  ALA182     -0.2864
     64  CB        16.9630   -1.0490  -28.0880 C.3   182  ALA182      0.0319
     65  N         18.9530   -6.8190  -24.7750 N.3   185  PHE185     -0.1241
     66  CA        18.7940   -8.1580  -25.3530 C.3   185  PHE185      0.1605
     67  C         20.1280   -8.7710  -25.7790 C.2   185  PHE185      0.2264
     68  O         20.4260   -9.9030  -25.4180 O.2   185  PHE185     -0.2867
     69  CB        17.7700   -8.1510  -26.4980 C.3   185  PHE185      0.0534
     70  CG        16.4010   -7.7490  -26.0560 C.ar  185  PHE185     -0.0203
     71  CD1       15.9440   -6.4580  -26.2690 C.ar  185  PHE185     -0.0042
     72  CD2       15.5810   -8.6520  -25.3830 C.ar  185  PHE185     -0.0042
     73  CE1       14.6870   -6.0750  -25.8410 C.ar  185  PHE185     -0.0003
     74  CE2       14.3230   -8.2770  -24.9510 C.ar  185  PHE185     -0.0003
     75  CZ        13.8710   -6.9830  -25.1820 C.ar  185  PHE185     -0.0000
     76  N         16.3940   -0.9150  -13.2380 N.3   220  ASP220     -0.1225
     77  CA        15.4100   -0.1690  -14.0000 C.3   220  ASP220      0.1805
     78  C         14.0390   -0.8610  -13.9880 C.2   220  ASP220      0.2597
     79  O         13.0140   -0.2140  -13.8350 O.2   220  ASP220     -0.2718
     80  CB        15.9040    0.0130  -15.4370 C.3   220  ASP220      0.1424
     81  CG        15.2460    1.1740  -16.1300 C.2   220  ASP220      0.3668
     82  OD1       14.4980    1.9420  -15.4850 O.co2 220  ASP220     -0.2456
     83  OD2       15.4720    1.3030  -17.3460 O.co2 220  ASP220     -0.2456
     84  N         14.0410   -2.1870  -14.0900 N.am  221  LEU221     -0.1979
     85  CA        12.8210   -2.9700  -14.1800 C.3   221  LEU221      0.1596
     86  C         12.2810   -3.4130  -12.8270 C.2   221  LEU221      0.2287
     87  O         11.2940   -4.1290  -12.7780 O.2   221  LEU221     -0.2864
     88  CB        13.0570   -4.2120  -15.0690 C.3   221  LEU221      0.0297
     89  CG        13.5140   -4.0110  -16.5230 C.3   221  LEU221      0.0022
     90  CD1       13.5700   -5.3500  -17.2400 C.3   221  LEU221      0.0001
     91  CD2       12.5900   -3.0470  -17.2690 C.3   221  LEU221      0.0001
     92  N         10.3750   -2.6640  -10.4760 N.3   223  SER223     -0.1202
     93  CA         8.9550   -2.6230  -10.0530 C.3   223  SER223      0.2020
     94  C          8.2730   -3.9840  -10.1510 C.2   223  SER223      0.2618
     95  O          7.3020   -4.2430   -9.4340 O.2   223  SER223     -0.2717
     96  CB         8.1430   -1.6100  -10.8600 C.3   223  SER223      0.2103
     97  OG         7.9490   -2.0720  -12.1920 O.3   223  SER223     -0.2182
     98  N          8.7940   -4.8480  -11.0290 N.am  224  VAL224     -0.1979
     99  CA         8.2600   -6.1950  -11.2100 C.3   224  VAL224      0.1595
    100  C          8.7630   -7.1400  -10.1130 C.2   224  VAL224      0.2287
    101  O          8.4690   -8.3470  -10.1420 O.2   224  VAL224     -0.2864
    102  CB         8.6050   -6.7800  -12.6090 C.3   224  VAL224      0.0276
    103  CG1        8.1790   -5.8220  -13.7230 C.3   224  VAL224      0.0022
    104  CG2       10.0940   -7.1380  -12.7200 C.3   224  VAL224      0.0022
    105  N          2.8440    2.7820  -15.6530 N.3   238  ILE238     -0.1231
    106  CA         3.5430    2.4330  -16.8840 C.3   238  ILE238      0.1692
    107  C          2.6070    2.4850  -18.1020 C.2   238  ILE238      0.2592
    108  O          2.9280    3.1190  -19.1060 O.2   238  ILE238     -0.2718
    109  CB         4.2420    1.0570  -16.7610 C.3   238  ILE238      0.0266
    110  CG1        5.3850    1.1370  -15.7230 C.3   238  ILE238      0.0019
    111  CG2        4.7680    0.5970  -18.1160 C.3   238  ILE238      0.0020
    112  CD1        5.8970   -0.2010  -15.2350 C.3   238  ILE238      0.0001
    113  N          1.4570    1.8210  -18.0120 N.am  239  TYR239     -0.1976
    114  CA         0.4850    1.8670  -19.1040 C.3   239  TYR239      0.1639
    115  C         -0.1280    3.2490  -19.3450 C.2   239  TYR239      0.2290
    116  O         -0.4460    3.5770  -20.4830 O.2   239  TYR239     -0.2864
    117  CB        -0.5970    0.7950  -18.9410 C.3   239  TYR239      0.0560
    118  CG        -0.0990   -0.5730  -19.3460 C.ar  239  TYR239     -0.0198
    119  CD1        0.3880   -1.4690  -18.3890 C.ar  239  TYR239     -0.0009
    120  CD2       -0.0860   -0.9650  -20.6860 C.ar  239  TYR239     -0.0009
    121  CE1        0.8700   -2.7210  -18.7520 C.ar  239  TYR239      0.0417
    122  CE2        0.3920   -2.2190  -21.0640 C.ar  239  TYR239      0.0417
    123  CZ         0.8630   -3.0910  -20.0870 C.ar  239  TYR239      0.1957
    124  OH         1.3270   -4.3350  -20.4380 O.3   239  TYR239     -0.2866
    125  N          2.4020    4.6400  -21.6610 N.3   242  PHE242     -0.1241
    126  CA         2.3330    3.9760  -22.9640 C.3   242  PHE242      0.1605
    127  C          1.1190    4.4850  -23.7440 C.2   242  PHE242      0.2264
    128  O          1.2340    4.8200  -24.9300 O.2   242  PHE242     -0.2867
    129  CB         2.2190    2.4440  -22.8430 C.3   242  PHE242      0.0534
    130  CG         3.4800    1.7390  -22.3680 C.ar  242  PHE242     -0.0203
    131  CD1        4.7260    2.3640  -22.3900 C.ar  242  PHE242     -0.0042
    132  CD2        3.4100    0.4170  -21.9280 C.ar  242  PHE242     -0.0042
    133  CE1        5.8690    1.6890  -21.9500 C.ar  242  PHE242     -0.0003
    134  CE2        4.5460   -0.2550  -21.4940 C.ar  242  PHE242     -0.0003
    135  CZ         5.7740    0.3800  -21.5050 C.ar  242  PHE242     -0.0000
    136  N          0.9940   -2.2620  -27.5620 N.3   259  MET259     -0.1245
    137  CA         1.4570   -1.8650  -26.2300 C.3   259  MET259      0.1570
    138  C          1.0980   -0.4060  -25.9150 C.2   259  MET259      0.2261
    139  O          0.8690   -0.0440  -24.7600 O.2   259  MET259     -0.2867
    140  CB         2.9660   -2.0810  -26.1180 C.3   259  MET259      0.0387
    141  CG         3.5260   -1.8940  -24.7160 C.3   259  MET259      0.0595
    142  SD         5.2840   -2.2770  -24.6820 S.3   259  MET259     -0.1393
    143  CE         6.0270   -0.7800  -25.3390 C.3   259  MET259      0.0692
    144  N         -0.1590   -9.1360  -21.7610 N.3   271  GLY271     -0.1210
    145  CA         1.0410   -8.3830  -22.1470 C.3   271  GLY271      0.1956
    146  C          2.1030   -8.4150  -21.0510 C.2   271  GLY271      0.2611
    147  O          3.2910   -8.4790  -21.3360 O.2   271  GLY271     -0.2717
    148  N          1.6640   -8.3520  -19.7960 N.am  272  GLN272     -0.1979
    149  CA         2.5730   -8.4590  -18.6550 C.3   272  GLN272      0.1601
    150  C          3.2270   -9.8410  -18.5970 C.2   272  GLN272      0.2287
    151  O          4.4340   -9.9480  -18.4270 O.2   272  GLN272     -0.2864
    152  CB         1.8370   -8.1480  -17.3450 C.3   272  GLN272      0.0394
    153  CG         1.5530   -6.6640  -17.1430 C.3   272  GLN272      0.0908
    154  CD         2.8260   -5.8440  -17.0260 C.2   272  GLN272      0.2608
    155  OE1        3.4530   -5.7900  -15.9590 O.2   272  GLN272     -0.2717
    156  NE2        3.2230   -5.2070  -18.1270 N.am  272  GLN272     -0.0878
    157  N          5.7950  -10.0490  -21.2290 N.3   275  PHE275     -0.1241
    158  CA         6.9550   -9.2340  -20.8830 C.3   275  PHE275      0.1605
    159  C          7.8150   -9.9280  -19.8310 C.2   275  PHE275      0.2264
    160  O          9.0350   -9.9500  -19.9580 O.2   275  PHE275     -0.2867
    161  CB         6.5360   -7.8470  -20.3740 C.3   275  PHE275      0.0534
    162  CG         7.7040   -6.9850  -19.9550 C.ar  275  PHE275     -0.0203
    163  CD1        8.4960   -6.3430  -20.9120 C.ar  275  PHE275     -0.0042
    164  CD2        8.0330   -6.8370  -18.6090 C.ar  275  PHE275     -0.0042
    165  CE1        9.5730   -5.5470  -20.5320 C.ar  275  PHE275     -0.0003
    166  CE2        9.1180   -6.0520  -18.2210 C.ar  275  PHE275     -0.0003
    167  CZ         9.8860   -5.4040  -19.1860 C.ar  275  PHE275     -0.0000
    168  N         11.3880  -10.8800  -21.0550 N.3   279  VAL279     -0.1245
    169  CA        12.3420   -9.8600  -20.6160 C.3   279  VAL279      0.1561
    170  C         12.7860   -9.9940  -19.1500 C.2   279  VAL279      0.2260
    171  O         13.9750  -10.2010  -18.8800 O.2   279  VAL279     -0.2867
    172  CB        11.7880   -8.4280  -20.8570 C.3   279  VAL279      0.0252
    173  CG1       12.8120   -7.3820  -20.4630 C.3   279  VAL279      0.0019
    174  CG2       11.3670   -8.2400  -22.3120 C.3   279  VAL279      0.0019
@<TRIPOS>BOND
     1    32    31    2
     2    31    30    1
     3    30    33    1
     4    30    29    1
     5    33    34    1
     6    28    27    1
     7    64    61    1
     8    26    25    2
     9   136   137    1
    10    63    62    2
    11    29    25   am
    12    25    24    1
    13    34    36   am
    14    34    35    2
    15    61    62    1
    16    61    60    1
    17    27    24    1
    18    51    49   ar
    19    69    70    1
    20    69    66    1
    21    24    23    1
    22    71    70   ar
    23    71    73   ar
    24   137   140    1
    25   137   138    1
    26   140   141    1
    27    70    72   ar
    28   138   139    2
    29    50    49   ar
    30    49    48    1
    31    73    75   ar
    32    67    68    2
    33    67    66    1
    34    60    54   am
    35    72    74   ar
    36    66    65    1
    37   143   142    1
    38    75    74   ar
    39   128   127    2
    40   141   142    1
    41    55    54    2
    42    54    53    1
    43    48    45    1
    44   127   126    1
    45    47    46    2
    46    46    52   am
    47    46    45    1
    48    53    52    1
    49    53    56    1
    50    45    44    1
    51   126   129    1
    52   126   125    1
    53    56    57    1
    54   129   130    1
    55    59    57    1
    56    57    58    1
    57   131   130   ar
    58   131   133   ar
    59   130   132   ar
    60   174   172    1
    61   145   144    1
    62   145   146    1
    63    44    39   am
    64   133   135   ar
    65   132   134   ar
    66   135   134   ar
    67   147   146    2
    68   157   158    1
    69   122   120   ar
    70   122   123   ar
    71   168   169    1
    72   146   148   am
    73   163   165   ar
    74   163   162   ar
    75   158   161    1
    76   158   159    1
    77   172   169    1
    78   172   173    1
    79    39    40    2
    80    39    38    1
    81   120   118   ar
    82   169   170    1
    83   165   167   ar
    84   116   115    2
    85   124   123    1
    86   161   162    1
    87   123   121   ar
    88   160   159    2
    89   162   164   ar
    90    37    38    1
    91   148   149    1
    92    38    41    1
    93   118   117    1
    94   118   119   ar
    95   115   114    1
    96   167   166   ar
    97   170   171    2
    98    42    41    1
    99   108   107    2
   100   114   117    1
   101   114   113    1
   102    21    19   ar
   103    21    22   ar
   104   121   119   ar
   105    19    18   ar
   106   149   150    1
   107   149   152    1
   108   164   166   ar
   109   150   151    2
   110    41    43    1
   111    22    20   ar
   112   156   154   am
   113   111   109    1
   114   107   113   am
   115   107   106    1
   116    18    20   ar
   117    18    17    1
   118    83    81   ar
   119   152   153    1
   120    91    89    1
   121    90    89    1
   122   153   154    1
   123    17    14    1
   124   154   155    2
   125   106   109    1
   126   106   105    1
   127   109   110    1
   128    89    88    1
   129    81    82   ar
   130    81    80    1
   131     8    10   ar
   132     8     6   ar
   133   110   112    1
   134    14    13    1
   135    14    15    1
   136    13     3   am
   137    10    11   ar
   138     5     6    1
   139     5     2    1
   140    80    77    1
   141    16    15    2
   142    88    85    1
   143     6     7   ar
   144     1     2    1
   145     2     3    1
   146     3     4    2
   147    11    12    1
   148    11     9   ar
   149    85    84    1
   150    85    86    1
   151    84    78   am
   152    77    78    1
   153    77    76    1
   154    78    79    2
   155     7     9   ar
   156   103   102    1
   157    86    87    2
   158   104   102    1
   159   102    99    1
   160    97    96    1
   161    99    98    1
   162    99   100    1
   163    98    94   am
   164    96    93    1
   165    92    93    1
   166    94    93    1
   167    94    95    2
   168   101   100    2
