@<TRIPOS>MOLECULE
tmp/3wywB00.pdb
 138 135 0 0 0
SMALL
GASTEIGER

@<TRIPOS>ATOM
      1  N         16.4470   -6.1860    3.4040 N.3    11  SER11      -0.1217
      2  CA        15.5610   -5.8520    4.5520 C.3    11  SER11       0.1889
      3  C         16.3980   -5.3060    5.6930 C.2    11  SER11       0.2288
      4  O         17.2890   -5.9970    6.1900 O.2    11  SER11      -0.2866
      5  CB        14.8560   -7.1480    5.0040 C.3    11  SER11       0.2089
      6  OG        14.2680   -7.0610    6.2860 O.3    11  SER11      -0.2183
      7  N         15.4360   -4.7740    8.8830 N.3    13  PRO13      -0.2116
      8  CA        15.2920   -5.6580   10.0580 C.3    13  PRO13       0.1372
      9  C         16.1500   -6.9030    9.9350 C.2    13  PRO13       0.2244
     10  O         16.7440   -7.3390   10.8980 O.2    13  PRO13      -0.2868
     11  CB        13.8180   -5.9710   10.1040 C.3    13  PRO13       0.0268
     12  CG        13.1520   -4.9100    9.2720 C.3    13  PRO13       0.0207
     13  CD        14.1370   -4.3170    8.3450 C.3    13  PRO13       0.0892
     14  N         10.5060  -12.6540   -0.5550 N.3    35  LEU35      -0.1245
     15  CA         9.1720  -12.1690   -0.2690 C.3    35  LEU35       0.1561
     16  C          8.3880  -11.9120   -1.5430 C.2    35  LEU35       0.2260
     17  O          7.2040  -12.1710   -1.5830 O.2    35  LEU35      -0.2867
     18  CB         9.2480  -10.8720    0.5630 C.3    35  LEU35       0.0270
     19  CG        10.0520  -11.1320    1.8590 C.3    35  LEU35       0.0019
     20  CD1       10.3750   -9.8280    2.5670 C.3    35  LEU35       0.0001
     21  CD2        9.3130  -12.0760    2.7470 C.3    35  LEU35       0.0001
     22  N          7.5280  -16.4460    2.2590 N.3    40  HIS40      -0.1226
     23  CA         7.1440  -16.2630    3.6590 C.3    40  HIS40       0.1752
     24  C          5.7060  -16.6560    3.8720 C.2    40  HIS40       0.2595
     25  O          5.1770  -16.6080    5.0130 O.2    40  HIS40      -0.2718
     26  CB         7.3340  -14.7990    4.0510 C.3    40  HIS40       0.0759
     27  CG         6.5650  -13.8440    3.1950 C.ar   40  HIS40       0.0818
     28  ND1        6.6430  -13.8160    1.8170 N.ar   40  HIS40      -0.2268
     29  CD2        5.6920  -12.8760    3.5340 C.ar   40  HIS40       0.1154
     30  CE1        5.8480  -12.8750    1.3470 C.ar   40  HIS40       0.1986
     31  NE2        5.2740  -12.2740    2.3690 N.ar   40  HIS40      -0.2212
     32  N          5.0360  -17.1400    2.8050 N.am   41  LEU41      -0.1980
     33  CA         3.6440  -17.4230    2.9380 C.3    41  LEU41       0.1596
     34  C          3.3320  -18.8870    2.6250 C.2    41  LEU41       0.2287
     35  O          2.1890  -19.2620    2.4760 O.2    41  LEU41      -0.2864
     36  CB         2.8400  -16.4810    2.0350 C.3    41  LEU41       0.0297
     37  CG         2.9490  -14.9570    2.3010 C.3    41  LEU41       0.0022
     38  CD1        2.2860  -14.1390    1.2310 C.3    41  LEU41       0.0001
     39  CD2        2.3640  -14.6880    3.6480 C.3    41  LEU41       0.0001
     40  N          3.2140  -14.8260   11.9940 N.3    51  GLN51      -0.1231
     41  CA         3.2250  -13.5070   11.4140 C.3    51  GLN51       0.1698
     42  C          3.8690  -13.4330   10.0740 C.2    51  GLN51       0.2592
     43  O          3.9060  -12.3720    9.4750 O.2    51  GLN51      -0.2718
     44  CB         3.8760  -12.4820   12.3480 C.3    51  GLN51       0.0381
     45  CG         3.0520  -12.1490   13.5870 C.3    51  GLN51       0.0905
     46  CD         3.8570  -11.3390   14.5940 C.2    51  GLN51       0.2608
     47  OE1        4.3660  -11.8960   15.5210 O.2    51  GLN51      -0.2717
     48  NE2        4.0280  -10.1070   14.3370 N.am   51  GLN51      -0.0878
     49  N          4.4020  -14.5380    9.5990 N.am   52  HIS52      -0.1962
     50  CA         4.8640  -14.6810    8.1740 C.3    52  HIS52       0.1787
     51  C          5.7830  -13.5220    7.7660 C.2    52  HIS52       0.2620
     52  O          5.5760  -12.8450    6.7620 O.2    52  HIS52      -0.2715
     53  CB         3.7120  -14.9070    7.1890 C.3    52  HIS52       0.0785
     54  CG         2.5870  -13.9450    7.2930 C.ar   52  HIS52       0.0821
     55  ND1        2.6510  -12.6880    6.7610 N.ar   52  HIS52      -0.2267
     56  CD2        1.3280  -14.0680    7.7980 C.ar   52  HIS52       0.1154
     57  CE1        1.5040  -12.0560    6.9440 C.ar   52  HIS52       0.1986
     58  NE2        0.6860  -12.8720    7.5710 N.ar   52  HIS52      -0.2212
     59  N          6.7790  -13.2560    8.6120 N.am   53  ASN53      -0.1958
     60  CA         7.6990  -12.1700    8.3220 C.3    53  ASN53       0.1819
     61  C          9.1560  -12.5310    8.5710 C.2    53  ASN53       0.2621
     62  O          9.4610  -13.5140    9.2310 O.2    53  ASN53      -0.2715
     63  CB         7.2610  -10.8560    9.0020 C.3    53  ASN53       0.1195
     64  CG         7.2280  -10.9240   10.5210 C.2    53  ASN53       0.2630
     65  OD1        7.5390  -11.9450   11.1390 O.2    53  ASN53      -0.2716
     66  ND2        6.8390   -9.7920   11.1520 N.am   53  ASN53      -0.0877
     67  N         10.0510  -11.7470    7.9870 N.am   54  VAL54      -0.1964
     68  CA        11.5150  -11.9100    8.1980 C.3    54  VAL54       0.1712
     69  C         12.0200  -10.6310    8.8880 C.2    54  VAL54       0.2458
     70  O         11.4160   -9.5810    8.7440 O.2    54  VAL54      -0.2730
     71  CB        12.2920  -12.1440    6.8930 C.3    54  VAL54       0.0289
     72  CG1       11.8880  -13.5240    6.3030 C.3    54  VAL54       0.0023
     73  CG2       12.0210  -11.0090    5.9260 C.3    54  VAL54       0.0023
     74  N         13.0570  -10.7520    9.7240 N.am   55  PRO55      -0.2727
     75  CA        13.7350  -12.0230   10.0100 C.3    55  PRO55       0.1402
     76  C         13.0020  -12.9480   10.9710 C.2    55  PRO55       0.2269
     77  O         12.2940  -12.5150   11.9330 O.2    55  PRO55      -0.2865
     78  CB        15.0290  -11.5720   10.6730 C.3    55  PRO55       0.0296
     79  CG        14.6140  -10.3100   11.3900 C.3    55  PRO55       0.0237
     80  CD        13.6980   -9.6360   10.4570 C.3    55  PRO55       0.0939
     81  N         10.9190  -10.4780   15.3280 N.3    66  GLU66      -0.1231
     82  CA        11.3460   -9.1810   15.8790 C.3    66  GLU66       0.1699
     83  C         12.8870   -9.0900   15.9270 C.2    66  GLU66       0.2593
     84  O         13.5320   -9.6320   16.8300 O.2    66  GLU66      -0.2718
     85  CB        10.7010   -8.8510   17.2270 C.3    66  GLU66       0.0402
     86  CG         9.2320   -8.5580   17.1450 C.3    66  GLU66       0.1161
     87  CD         8.8830   -7.3820   16.2700 C.2    66  GLU66       0.3649
     88  OE1        9.7660   -6.5870   15.9770 O.co2  66  GLU66      -0.2457
     89  OE2        7.7060   -7.2920   15.9220 O.co2  66  GLU66      -0.2457
     90  N         13.4220   -8.4110   14.9350 N.am   67  SER67      -0.1938
     91  CA        14.8870   -8.2370   14.7740 C.3    67  SER67       0.2055
     92  C         15.5660   -7.8130   16.0440 C.2    67  SER67       0.2642
     93  O         16.6480   -8.3000   16.3520 O.2    67  SER67      -0.2714
     94  CB        15.1870   -7.2780   13.6430 C.3    67  SER67       0.2130
     95  OG        14.6840   -5.9940   13.8660 O.3    67  SER67      -0.2179
     96  N         15.0190   -6.8130   16.7320 N.am   68  ARG68      -0.1977
     97  CA        15.7420   -6.2420   17.8510 C.3    68  ARG68       0.1597
     98  C         15.7050   -7.1470   19.0700 C.2    68  ARG68       0.2287
     99  O         16.5730   -7.0870   19.9050 O.2    68  ARG68      -0.2864
    100  CB        15.2420   -4.8030   18.1180 C.3    68  ARG68       0.0334
    101  CG        15.4910   -3.9330   16.9430 C.3    68  ARG68       0.0492
    102  CD        14.6890   -2.6370   17.0040 C.3    68  ARG68       0.2205
    103  NE        14.7300   -1.9200   15.7490 N.pl3  68  ARG68      -0.0865
    104  CZ        14.0190   -2.1530   14.6560 C.cat  68  ARG68       0.5346
    105  NH1       13.1030   -3.1110   14.6330 N.pl3  68  ARG68       0.1354
    106  NH2       14.2470   -1.4240   13.5730 N.pl3  68  ARG68       0.1354
    107  N         13.1970    1.5180   16.0680 N.3   103  MET103     -0.1245
    108  CA        11.9980    0.9270   15.5550 C.3   103  MET103      0.1570
    109  C         10.8960    1.9380   15.3570 C.2   103  MET103      0.2261
    110  O         10.3470    2.0480   14.2700 O.2   103  MET103     -0.2867
    111  CB        11.4730   -0.1990   16.4720 C.3   103  MET103      0.0387
    112  CG         9.9750   -0.5410   16.1630 C.3   103  MET103      0.0595
    113  SD         9.1720   -1.8300   17.2270 S.3   103  MET103     -0.1393
    114  CE         9.8570   -3.0620   16.1330 C.3   103  MET103      0.0692
    115  N         13.2230    4.2060   11.9430 N.3   107  TYR107     -0.1241
    116  CA        12.8410    3.3120   10.8680 C.3   107  TYR107      0.1605
    117  C         11.3400    3.4600   10.5270 C.2   107  TYR107      0.2264
    118  O         10.9110    3.4130    9.3280 O.2   107  TYR107     -0.2867
    119  CB        13.2020    1.8810   11.1960 C.3   107  TYR107      0.0534
    120  CG        12.9080    0.9150   10.0630 C.ar  107  TYR107     -0.0201
    121  CD1       13.6550    0.9170    8.9200 C.ar  107  TYR107     -0.0009
    122  CD2       11.9160   -0.0400   10.2280 C.ar  107  TYR107     -0.0009
    123  CE1       13.3820   -0.0140    7.8740 C.ar  107  TYR107      0.0417
    124  CE2       11.6180   -0.9610    9.2140 C.ar  107  TYR107      0.0417
    125  CZ        12.3530   -0.9200    8.0390 C.ar  107  TYR107      0.1957
    126  OH        12.0450   -1.8760    7.0820 O.3   107  TYR107     -0.2866
    127  N          7.9380    3.3970    1.8690 N.3   115  TYR115     -0.1241
    128  CA         7.3780    2.1100    1.3890 C.3   115  TYR115      0.1605
    129  C          6.1020    2.2390    0.5200 C.2   115  TYR115      0.2264
    130  O          5.9700    1.5910   -0.4800 O.2   115  TYR115     -0.2867
    131  CB         7.1570    1.1350    2.5570 C.3   115  TYR115      0.0534
    132  CG         8.4740    0.5780    3.1010 C.ar  115  TYR115     -0.0201
    133  CD1        9.5950    0.4580    2.2930 C.ar  115  TYR115     -0.0009
    134  CD2        8.5770    0.1590    4.3780 C.ar  115  TYR115     -0.0009
    135  CE1       10.7840   -0.0780    2.7880 C.ar  115  TYR115      0.0417
    136  CE2        9.7450   -0.3800    4.8630 C.ar  115  TYR115      0.0417
    137  CZ        10.8440   -0.4680    4.0890 C.ar  115  TYR115      0.1957
    138  OH        12.0060   -1.0040    4.6040 O.3   115  TYR115     -0.2866
@<TRIPOS>BOND
     1    17    16    2
     2    16    15    1
     3    14    15    1
     4   130   129    2
     5    15    18    1
     6   129   128    1
     7    18    19    1
     8    38    37    1
     9    30    28   ar
    10    30    31   ar
    11   128   127    1
    12   128   131    1
    13    28    27   ar
    14    19    20    1
    15    19    21    1
    16    36    37    1
    17    36    33    1
    18    22    23    1
    19   133   135   ar
    20   133   132   ar
    21    37    39    1
    22    31    29   ar
    23    35    34    2
    24   131   132    1
    25    34    33    1
    26   135   137   ar
    27    32    33    1
    28    32    24   am
    29   132   134   ar
    30    27    29   ar
    31    27    26    1
    32     1     2    1
    33    23    24    1
    34    23    26    1
    35    24    25    2
    36   137   138    1
    37   137   136   ar
    38   134   136   ar
    39     2     5    1
    40     2     3    1
    41     5     6    1
    42     3     4    2
    43    73    71    1
    44    72    71    1
    45    55    57   ar
    46    55    54   ar
    47    52    51    2
    48    71    68    1
    49    57    58   ar
    50   126   125    1
    51    53    54    1
    52    53    50    1
    53    54    56   ar
    54    58    56   ar
    55    51    50    1
    56    51    59   am
    57   123   125   ar
    58   123   121   ar
    59    67    68    1
    60    67    61   am
    61   125   124   ar
    62    50    49    1
    63    68    69    1
    64    60    61    1
    65    60    59    1
    66    60    63    1
    67    13     7    1
    68    13    12    1
    69    61    62    2
    70    70    69    2
    71     7     8    1
    72    69    74   am
    73   121   120   ar
    74    63    64    1
    75   124   122   ar
    76    12    11    1
    77   118   117    2
    78    43    42    2
    79    49    42   am
    80    74    75    1
    81    74    80    1
    82     9     8    1
    83     9    10    2
    84    75    78    1
    85    75    76    1
    86     8    11    1
    87   120   122   ar
    88   120   119    1
    89    42    41    1
    90    80    79    1
    91    64    65    2
    92    64    66   am
    93   117   116    1
    94    78    79    1
    95   116   119    1
    96   116   115    1
    97    76    77    2
    98    41    40    1
    99    41    44    1
   100    44    45    1
   101   106   104    1
   102    45    46    1
   103    94    95    1
   104    94    91    1
   105   110   109    2
   106    48    46   am
   107    46    47    2
   108   105   104    1
   109   104   103    2
   110    91    90    1
   111    91    92    1
   112    90    83   am
   113    81    82    1
   114   109   108    1
   115   108   107    1
   116   108   111    1
   117   103   102    1
   118    82    83    1
   119    82    85    1
   120    89    87   ar
   121    83    84    2
   122    88    87   ar
   123    92    93    2
   124    92    96   am
   125   114   113    1
   126   112   111    1
   127   112   113    1
   128    87    86    1
   129    96    97    1
   130   101   102    1
   131   101   100    1
   132    86    85    1
   133    97   100    1
   134    97    98    1
   135    98    99    2
