@<TRIPOS>MOLECULE
tmp/3wyxA00.pdb
 178 164 0 0 0
SMALL
GASTEIGER

@<TRIPOS>ATOM
      1  N        -41.7000  -18.1910   -0.8680 N.3    14  LYS14      -0.1245
      2  CA       -41.7040  -16.8120   -1.3010 C.3    14  LYS14       0.1561
      3  C        -41.9560  -16.7600   -2.8180 C.2    14  LYS14       0.2260
      4  O        -42.2880  -17.7680   -3.4430 O.2    14  LYS14      -0.2867
      5  CB       -40.3740  -16.1370   -0.9200 C.3    14  LYS14       0.0271
      6  CG       -39.1310  -16.8370   -1.4770 C.3    14  LYS14       0.0035
      7  CD       -37.9950  -15.8490   -1.7280 C.3    14  LYS14       0.0206
      8  CE       -36.6650  -16.5580   -1.9620 C.3    14  LYS14       0.1093
      9  NZ       -36.0140  -17.0040   -0.6880 N.3    14  LYS14      -0.1314
     10  N        -40.2060  -15.3800   -6.4310 N.3    16  ILE16      -0.1231
     11  CA       -38.9360  -15.0210   -7.0520 C.3    16  ILE16       0.1692
     12  C        -39.1600  -13.9670   -8.1370 C.2    16  ILE16       0.2592
     13  O        -38.3020  -13.1000   -8.3530 O.2    16  ILE16      -0.2718
     14  CB       -38.2630  -16.2690   -7.6840 C.3    16  ILE16       0.0266
     15  CG1      -38.0600  -17.3790   -6.6390 C.3    16  ILE16       0.0019
     16  CG2      -36.9310  -15.8980   -8.3320 C.3    16  ILE16       0.0020
     17  CD1      -37.7550  -18.7480   -7.2250 C.3    16  ILE16       0.0001
     18  N        -40.3060  -14.0510   -8.8200 N.am   17  GLY17      -0.1957
     19  CA       -40.5710  -13.2320  -10.0110 C.3    17  GLY17       0.1869
     20  C        -42.0470  -13.0890  -10.3480 C.2    17  GLY17       0.2309
     21  O        -42.8880  -13.7810   -9.7760 O.2    17  GLY17      -0.2863
     22  N        -43.3640  -16.6450  -10.5780 N.3    24  VAL24      -0.1245
     23  CA       -42.3950  -17.6900  -10.1980 C.3    24  VAL24       0.1561
     24  C        -42.1980  -17.7630   -8.6690 C.2    24  VAL24       0.2260
     25  O        -41.9680  -16.7510   -8.0130 O.2    24  VAL24      -0.2867
     26  CB       -41.0190  -17.4890  -10.8760 C.3    24  VAL24       0.0252
     27  CG1      -40.0720  -18.6360  -10.5240 C.3    24  VAL24       0.0019
     28  CG2      -41.1670  -17.3870  -12.3860 C.3    24  VAL24       0.0019
     29  N        -40.5480  -19.9180   -5.0710 N.3    26  GLN26      -0.1245
     30  CA       -39.7060  -20.9050   -4.4240 C.3    26  GLN26       0.1566
     31  C        -40.6440  -21.7620   -3.5850 C.2    26  GLN26       0.2260
     32  O        -41.4090  -21.2310   -2.7870 O.2    26  GLN26      -0.2867
     33  CB       -38.6680  -20.2130   -3.5560 C.3    26  GLN26       0.0367
     34  CG       -37.6500  -21.1440   -2.9200 C.3    26  GLN26       0.0905
     35  CD       -36.7470  -20.4180   -1.9450 C.2    26  GLN26       0.2608
     36  OE1      -35.5260  -20.4810   -2.0570 O.2    26  GLN26      -0.2717
     37  NE2      -37.3460  -19.7010   -0.9930 N.am   26  GLN26      -0.0878
     38  N        -36.5460  -28.3640   -2.3240 N.3    34  ILE34      -0.1245
     39  CA       -36.7590  -27.0330   -2.8880 C.3    34  ILE34       0.1561
     40  C        -36.9490  -27.1130   -4.4040 C.2    34  ILE34       0.2260
     41  O        -36.2580  -27.8710   -5.0780 O.2    34  ILE34      -0.2867
     42  CB       -35.5830  -26.0970   -2.5060 C.3    34  ILE34       0.0252
     43  CG1      -35.9840  -24.6430   -2.6000 C.3    34  ILE34       0.0019
     44  CG2      -34.3440  -26.3450   -3.3720 C.3    34  ILE34       0.0019
     45  CD1      -34.9320  -23.7330   -2.0140 C.3    34  ILE34       0.0001
     46  N        -38.7620  -24.6710   -8.0600 N.3    36  ALA36      -0.1245
     47  CA       -39.3230  -23.4220   -8.5640 C.3    36  ALA36       0.1562
     48  C        -40.5330  -23.7280   -9.4310 C.2    36  ALA36       0.2260
     49  O        -40.4510  -24.5450  -10.3440 O.2    36  ALA36      -0.2867
     50  CB       -38.2810  -22.6380   -9.3520 C.3    36  ALA36       0.0290
     51  N        -43.2640  -22.1350  -11.9950 N.3    38  LYS38      -0.1245
     52  CA       -43.7630  -21.0620  -12.8290 C.3    38  LYS38       0.1561
     53  C        -45.2570  -21.2570  -12.9860 C.2    38  LYS38       0.2260
     54  O        -45.6960  -22.2580  -13.5310 O.2    38  LYS38      -0.2867
     55  CB       -43.0930  -21.0570  -14.1950 C.3    38  LYS38       0.0271
     56  CG       -43.1190  -19.6770  -14.8290 C.3    38  LYS38       0.0035
     57  CD       -43.3370  -19.6990  -16.3290 C.3    38  LYS38       0.0206
     58  CE       -42.0430  -19.7220  -17.1320 C.3    38  LYS38       0.1093
     59  NZ       -42.2530  -19.1370  -18.4990 N.3    38  LYS38      -0.1314
     60  N        -32.3810  -25.6980  -18.1400 N.3    71  ILE71      -0.1245
     61  CA       -33.0480  -25.9160  -16.8730 C.3    71  ILE71       0.1561
     62  C        -33.9090  -27.1860  -16.9130 C.2    71  ILE71       0.2260
     63  O        -34.4230  -27.5690  -17.9500 O.2    71  ILE71      -0.2867
     64  CB       -33.9000  -24.6930  -16.4770 C.3    71  ILE71       0.0252
     65  CG1      -34.3430  -24.8040  -15.0130 C.3    71  ILE71       0.0019
     66  CG2      -35.0680  -24.5210  -17.4510 C.3    71  ILE71       0.0019
     67  CD1      -34.9170  -23.5350  -14.4410 C.3    71  ILE71       0.0001
     68  N        -39.8380  -26.7850  -11.7770 N.3    87  MET87      -0.1230
     69  CA       -38.4870  -26.7160  -12.3240 C.3    87  MET87       0.1702
     70  C        -37.4270  -26.6940  -11.2120 C.2    87  MET87       0.2592
     71  O        -37.7480  -26.6410  -10.0250 O.2    87  MET87      -0.2718
     72  CB       -38.3490  -25.4460  -13.1770 C.3    87  MET87       0.0401
     73  CG       -39.4860  -25.2280  -14.1720 C.3    87  MET87       0.0596
     74  SD       -39.6040  -23.5360  -14.7830 S.3    87  MET87      -0.1393
     75  CE       -38.2930  -23.5070  -15.9880 C.3    87  MET87       0.0692
     76  N        -36.1610  -26.7240  -11.6150 N.am   88  GLU88      -0.1966
     77  CA       -35.0500  -26.4880  -10.7090 C.3    88  GLU88       0.1733
     78  C        -35.1950  -25.1150  -10.0960 C.2    88  GLU88       0.2616
     79  O        -35.5660  -24.1570  -10.7780 O.2    88  GLU88      -0.2715
     80  CB       -33.7170  -26.4920  -11.4520 C.3    88  GLU88       0.0429
     81  CG       -33.1400  -27.8530  -11.7820 C.3    88  GLU88       0.1163
     82  CD       -31.8210  -27.7260  -12.5260 C.2    88  GLU88       0.3649
     83  OE1      -31.8140  -27.8430  -13.7710 O.co2  88  GLU88      -0.2457
     84  OE2      -30.7890  -27.4840  -11.8670 O.co2  88  GLU88      -0.2457
     85  N        -34.8720  -25.0140   -8.8140 N.am   89  CYS89      -0.1954
     86  CA       -34.8900  -23.7320   -8.1430 C.3    89  CYS89       0.1843
     87  C        -33.5720  -23.0210   -8.3700 C.2    89  CYS89       0.2626
     88  O        -33.5560  -21.8060   -8.5890 O.2    89  CYS89      -0.2714
     89  CB       -35.1440  -23.9060   -6.6510 C.3    89  CYS89       0.0997
     90  SG       -35.5450  -22.3360   -5.8720 S.3    89  CYS89      -0.0797
     91  N        -32.4690  -23.7670   -8.3250 N.am   90  GLY90      -0.1940
     92  CA       -31.1400  -23.1610   -8.4830 C.3    90  GLY90       0.2014
     93  C        -30.7610  -22.2320   -7.3320 C.2    90  GLY90       0.2639
     94  O        -31.3200  -22.3380   -6.2370 O.2    90  GLY90      -0.2714
     95  N        -29.8060  -21.3310   -7.5720 N.am   91  ASN91      -0.1958
     96  CA       -29.3250  -20.4050   -6.5380 C.3    91  ASN91       0.1819
     97  C        -29.6890  -18.9680   -6.8630 C.2    91  ASN91       0.2621
     98  O        -30.1800  -18.2360   -6.0110 O.2    91  ASN91      -0.2715
     99  CB       -27.8040  -20.4800   -6.3760 C.3    91  ASN91       0.1195
    100  CG       -27.2970  -21.8810   -6.1150 C.2    91  ASN91       0.2630
    101  OD1      -28.0610  -22.8350   -5.9900 O.2    91  ASN91      -0.2716
    102  ND2      -25.9810  -22.0090   -6.0520 N.am   91  ASN91      -0.0877
    103  N        -29.4310  -18.5520   -8.0940 N.am   92  ILE92      -0.1963
    104  CA       -29.7080  -17.1810   -8.4780 C.3    92  ILE92       0.1727
    105  C        -29.5540  -16.9760   -9.9770 C.2    92  ILE92       0.2616
    106  O        -28.7320  -17.6280  -10.6070 O.2    92  ILE92      -0.2715
    107  CB       -28.7430  -16.2240   -7.7660 C.3    92  ILE92       0.0290
    108  CG1      -29.1150  -14.7720   -8.0570 C.3    92  ILE92       0.0022
    109  CG2      -27.3130  -16.4910   -8.2070 C.3    92  ILE92       0.0023
    110  CD1      -28.4150  -13.7980   -7.1450 C.3    92  ILE92       0.0001
    111  N        -30.3280  -16.0450  -10.5310 N.am   93  ASP93      -0.1971
    112  CA       -30.2210  -15.6840  -11.9470 C.3    93  ASP93       0.1709
    113  C        -28.9230  -14.9300  -12.2480 C.2    93  ASP93       0.2293
    114  O        -28.3610  -14.2890  -11.3790 O.2    93  ASP93      -0.2864
    115  CB       -31.4440  -14.8760  -12.4100 C.3    93  ASP93       0.1436
    116  CG       -31.4910  -13.4870  -11.8200 C.2    93  ASP93       0.3671
    117  OD1      -31.7150  -13.3760  -10.5960 O.co2  93  ASP93      -0.2456
    118  OD2      -31.3280  -12.5030  -12.5750 O.co2  93  ASP93      -0.2456
    119  N        -28.8570  -10.8590  -11.6270 N.3    96  SER96      -0.1217
    120  CA       -28.7200  -10.4060  -10.2490 C.3    96  SER96       0.1889
    121  C        -27.3210  -10.6850   -9.6870 C.2    96  SER96       0.2288
    122  O        -26.7510   -9.8510   -8.9840 O.2    96  SER96      -0.2866
    123  CB       -29.7970  -11.0470   -9.3710 C.3    96  SER96       0.2089
    124  OG       -31.0980  -10.7230   -9.8450 O.3    96  SER96      -0.2183
    125  N        -24.5670   -8.0360   -7.8170 N.3   100  LYS100     -0.1245
    126  CA       -24.0560   -8.3150   -6.4620 C.3   100  LYS100      0.1561
    127  C        -22.5900   -8.7740   -6.4250 C.2   100  LYS100      0.2260
    128  O        -22.1140   -9.2370   -5.3840 O.2   100  LYS100     -0.2867
    129  CB       -24.9290   -9.3700   -5.7660 C.3   100  LYS100      0.0271
    130  CG       -26.4090   -8.9260   -5.7400 C.3   100  LYS100      0.0035
    131  CD       -27.2090   -9.8690   -4.8460 C.3   100  LYS100      0.0206
    132  CE       -28.6140   -9.2710   -4.5990 C.3   100  LYS100      0.1093
    133  NZ       -29.2890   -9.2160   -5.9390 N.3   100  LYS100     -0.1314
    134  N        -30.6110  -12.4600  -17.2840 N.3   136  ALA136     -0.1245
    135  CA       -31.7760  -12.9520  -16.5530 C.3   136  ALA136      0.1562
    136  C        -32.3350  -14.2540  -17.1130 C.2   136  ALA136      0.2260
    137  O        -33.1290  -14.9160  -16.4380 O.2   136  ALA136     -0.2867
    138  CB       -32.8660  -11.8870  -16.5240 C.3   136  ALA136      0.0290
    139  N        -29.5870  -19.3150  -15.2070 N.3   139  LEU139     -0.1245
    140  CA       -29.7160  -19.6700  -13.8070 C.3   139  LEU139      0.1561
    141  C        -28.4510  -20.3790  -13.3260 C.2   139  LEU139      0.2260
    142  O        -27.9950  -21.3350  -13.9510 O.2   139  LEU139     -0.2867
    143  CB       -30.9270  -20.6010  -13.6220 C.3   139  LEU139      0.0270
    144  CG       -31.2610  -21.0500  -12.1920 C.3   139  LEU139      0.0019
    145  CD1      -31.6660  -19.8480  -11.3460 C.3   139  LEU139      0.0001
    146  CD2      -32.3470  -22.1160  -12.1810 C.3   139  LEU139      0.0001
    147  N        -32.9070  -20.8670  -18.9260 N.3   148  ILE148     -0.1245
    148  CA       -34.2080  -20.9460  -18.2740 C.3   148  ILE148      0.1561
    149  C        -35.3100  -21.0280  -19.3220 C.2   148  ILE148      0.2260
    150  O        -36.1900  -21.8800  -19.2200 O.2   148  ILE148     -0.2867
    151  CB       -34.4600  -19.7120  -17.3710 C.3   148  ILE148      0.0252
    152  CG1      -33.3580  -19.5820  -16.3140 C.3   148  ILE148      0.0019
    153  CG2      -35.8150  -19.8090  -16.6840 C.3   148  ILE148      0.0019
    154  CD1      -33.3500  -18.2600  -15.5890 C.3   148  ILE148      0.0001
    155  N        -39.6650  -11.9410  -18.2320 N.3   156  MET156     -0.1230
    156  CA       -39.9940  -11.8010  -16.7990 C.3   156  MET156      0.1702
    157  C        -38.8680  -11.1450  -15.9850 C.2   156  MET156      0.2592
    158  O        -37.6870  -11.3550  -16.2770 O.2   156  MET156     -0.2718
    159  CB       -40.2950  -13.1920  -16.2180 C.3   156  MET156      0.0401
    160  CG       -41.4270  -13.2580  -15.1970 C.3   156  MET156      0.0596
    161  SD       -41.9700  -14.9690  -14.9600 S.3   156  MET156     -0.1393
    162  CE       -43.3190  -14.7630  -13.8340 C.3   156  MET156      0.0692
    163  N        -39.2490  -10.3820  -14.9510 N.am  157  GLN157     -0.1966
    164  CA       -38.3080   -9.5940  -14.1160 C.3   157  GLN157      0.1718
    165  C        -38.5150   -9.9020  -12.6260 C.2   157  GLN157      0.2458
    166  O        -39.6150  -10.2730  -12.2310 O.2   157  GLN157     -0.2730
    167  CB       -38.5110   -8.0940  -14.3670 C.3   157  GLN157      0.0407
    168  CG       -38.2530   -7.7130  -15.8120 C.3   157  GLN157      0.0908
    169  CD       -36.7950   -7.7360  -16.2010 C.2   157  GLN157      0.2608
    170  OE1      -35.8870   -7.9360  -15.3990 O.2   157  GLN157     -0.2717
    171  NE2      -36.5720   -7.5170  -17.4990 N.am  157  GLN157     -0.0878
    172  N        -37.4680   -9.7360  -11.7900 N.am  158  PRO158     -0.2727
    173  CA       -37.5750  -10.1800  -10.3890 C.3   158  PRO158      0.1402
    174  C        -38.3600   -9.2190   -9.4960 C.2   158  PRO158      0.2269
    175  O        -39.0140   -9.6570   -8.5450 O.2   158  PRO158     -0.2865
    176  CB       -36.1130  -10.2600   -9.9370 C.3   158  PRO158      0.0296
    177  CG       -35.4130   -9.2300  -10.7570 C.3   158  PRO158      0.0237
    178  CD       -36.1610   -9.1070  -12.0650 C.3   158  PRO158      0.0939
@<TRIPOS>BOND
     1   149   150    2
     2   149   148    1
     3   147   148    1
     4    59    58    1
     5   148   151    1
     6   155   156    1
     7    60    61    1
     8    63    62    2
     9   171   169   am
    10    66    64    1
    11   151   153    1
    12   151   152    1
    13   134   135    1
    14    58    57    1
    15   136   135    1
    16   136   137    2
    17    62    61    1
    18    61    64    1
    19   156   159    1
    20   156   157    1
    21   135   138    1
    22    64    65    1
    23    57    56    1
    24   152   154    1
    25   158   157    2
    26   159   160    1
    27   169   168    1
    28   169   170    2
    29    75    74    1
    30   157   163   am
    31   168   167    1
    32   139   140    1
    33   160   161    1
    34    65    67    1
    35   161   162    1
    36   163   164    1
    37    56    55    1
    38    74    73    1
    39   167   164    1
    40    55    52    1
    41    73    72    1
    42   164   165    1
    43   142   141    2
    44   140   143    1
    45   140   141    1
    46    83    82   ar
    47   143   144    1
    48    54    53    2
    49    72    69    1
    50    53    52    1
    51    52    51    1
    52   165   166    2
    53   165   172   am
    54   118   116   ar
    55    82    84   ar
    56    82    81    1
    57   115   112    1
    58   115   116    1
    59    28    26    1
    60    69    68    1
    61    69    70    1
    62   113   112    1
    63   113   114    2
    64   144   146    1
    65   144   145    1
    66   178   172    1
    67   178   177    1
    68   112   111    1
    69   116   117   ar
    70   172   173    1
    71    81    80    1
    72   119   120    1
    73    76    70   am
    74    76    77    1
    75    80    77    1
    76    70    71    2
    77    26    27    1
    78    26    23    1
    79    79    78    2
    80   177   176    1
    81    77    78    1
    82   106   105    2
    83    22    23    1
    84   111   105   am
    85   173   176    1
    86   173   174    1
    87    20    19    1
    88    20    21    2
    89    49    48    2
    90   120   121    1
    91   120   123    1
    92    23    24    1
    93    78    85   am
    94    19    18    1
    95   105   104    1
    96   124   123    1
    97   121   122    2
    98   174   175    2
    99    48    47    1
   100    50    47    1
   101    18    12   am
   102    85    86    1
   103    24    25    2
   104    88    87    2
   105    47    46    1
   106    92    91    1
   107    92    93    1
   108   104   103    1
   109   104   107    1
   110    87    91   am
   111    87    86    1
   112    13    12    2
   113    16    14    1
   114   109   107    1
   115    86    89    1
   116    12    11    1
   117   103    97   am
   118   108   107    1
   119   108   110    1
   120   125   126    1
   121    14    11    1
   122    14    15    1
   123    95    93   am
   124    95    96    1
   125    93    94    2
   126    17    15    1
   127    11    10    1
   128    97    96    1
   129    97    98    2
   130    89    90    1
   131    96    99    1
   132   126   127    1
   133   126   129    1
   134   127   128    2
   135    99   100    1
   136   100   102   am
   137   100   101    2
   138   133   132    1
   139   129   130    1
   140   130   131    1
   141    41    40    2
   142    29    30    1
   143   131   132    1
   144    30    31    1
   145    30    33    1
   146    40    39    1
   147    31    32    2
   148    33    34    1
   149     4     3    2
   150    44    42    1
   151    34    35    1
   152    39    42    1
   153    39    38    1
   154     3     2    1
   155    43    42    1
   156    43    45    1
   157    36    35    2
   158     8     7    1
   159     8     9    1
   160    35    37   am
   161     7     6    1
   162     6     5    1
   163     2     5    1
   164     2     1    1
