@<TRIPOS>MOLECULE
tmp/3wyyA00.pdb
 178 167 0 0 0
SMALL
GASTEIGER

@<TRIPOS>ATOM
      1  N        -41.5640  -18.4570   -0.9640 N.3    14  LYS14      -0.1231
      2  CA       -41.6370  -17.0700   -1.4070 C.3    14  LYS14       0.1693
      3  C        -41.9450  -16.9960   -2.8950 C.2    14  LYS14       0.2592
      4  O        -41.9230  -18.0120   -3.5990 O.2    14  LYS14      -0.2718
      5  CB       -40.3380  -16.3130   -1.0840 C.3    14  LYS14       0.0285
      6  CG       -39.1000  -16.8450   -1.7840 C.3    14  LYS14       0.0035
      7  CD       -37.8670  -16.0200   -1.4260 C.3    14  LYS14       0.0206
      8  CE       -36.5820  -16.7090   -1.8930 C.3    14  LYS14       0.1093
      9  NZ       -36.6260  -17.1300   -3.3440 N.3    14  LYS14      -0.1314
     10  N        -42.2470  -15.7890   -3.3610 N.am   15  GLN15      -0.1966
     11  CA       -42.3740  -15.5330   -4.7810 C.3    15  GLN15       0.1733
     12  C        -41.0550  -14.9770   -5.2770 C.2    15  GLN15       0.2616
     13  O        -40.4170  -14.1790   -4.5950 O.2    15  GLN15      -0.2715
     14  CB       -43.5020  -14.5460   -5.0570 C.3    15  GLN15       0.0408
     15  CG       -43.6550  -14.1880   -6.5260 C.3    15  GLN15       0.0908
     16  CD       -44.8940  -13.3710   -6.8090 C.2    15  GLN15       0.2608
     17  OE1      -45.8640  -13.4060   -6.0510 O.2    15  GLN15      -0.2717
     18  NE2      -44.8720  -12.6340   -7.9120 N.am   15  GLN15      -0.0878
     19  N        -40.6510  -15.4100   -6.4640 N.am   16  ILE16      -0.1963
     20  CA       -39.3840  -14.9880   -7.0420 C.3    16  ILE16       0.1727
     21  C        -39.5740  -13.9070   -8.1090 C.2    16  ILE16       0.2616
     22  O        -38.7930  -12.9540   -8.1790 O.2    16  ILE16      -0.2715
     23  CB       -38.5990  -16.1770   -7.6340 C.3    16  ILE16       0.0290
     24  CG1      -38.6200  -17.3790   -6.6790 C.3    16  ILE16       0.0022
     25  CG2      -37.1720  -15.7510   -7.9310 C.3    16  ILE16       0.0023
     26  CD1      -38.0440  -18.6550   -7.2620 C.3    16  ILE16       0.0001
     27  N        -40.6080  -14.0590   -8.9330 N.am   17  GLY17      -0.1955
     28  CA       -40.8450  -13.1320  -10.0350 C.3    17  GLY17       0.1869
     29  C        -42.2810  -13.0840  -10.5110 C.2    17  GLY17       0.2309
     30  O        -43.0780  -13.9730  -10.2020 O.2    17  GLY17      -0.2863
     31  N        -43.3060  -16.8770  -10.7780 N.3    24  VAL24      -0.1245
     32  CA       -42.3730  -17.9630  -10.4720 C.3    24  VAL24       0.1561
     33  C        -42.2410  -18.0660   -8.9580 C.2    24  VAL24       0.2260
     34  O        -41.8330  -17.1120   -8.2990 O.2    24  VAL24      -0.2867
     35  CB       -40.9780  -17.7610  -11.1220 C.3    24  VAL24       0.0252
     36  CG1      -40.0630  -18.9400  -10.8170 C.3    24  VAL24       0.0019
     37  CG2      -41.0940  -17.5840  -12.6250 C.3    24  VAL24       0.0019
     38  N        -40.9020  -20.2450   -5.3680 N.3    26  GLN26      -0.1245
     39  CA       -39.9850  -21.1970   -4.7640 C.3    26  GLN26       0.1566
     40  C        -40.8040  -22.0610   -3.8060 C.2    26  GLN26       0.2260
     41  O        -41.3850  -21.5540   -2.8440 O.2    26  GLN26      -0.2867
     42  CB       -38.8810  -20.4460   -4.0220 C.3    26  GLN26       0.0367
     43  CG       -37.8450  -21.3200   -3.3400 C.3    26  GLN26       0.0905
     44  CD       -36.7730  -20.4930   -2.6610 C.2    26  GLN26       0.2608
     45  OE1      -37.0050  -19.8870   -1.6120 O.2    26  GLN26      -0.2717
     46  NE2      -35.5900  -20.4570   -3.2630 N.am   26  GLN26      -0.0878
     47  N        -38.8970  -24.8820   -8.1440 N.3    36  ALA36      -0.1245
     48  CA       -39.5110  -23.6630   -8.6370 C.3    36  ALA36       0.1562
     49  C        -40.7230  -24.0120   -9.4920 C.2    36  ALA36       0.2260
     50  O        -40.6350  -24.8400  -10.4010 O.2    36  ALA36      -0.2867
     51  CB       -38.5110  -22.8420   -9.4290 C.3    36  ALA36       0.0290
     52  N        -43.4180  -22.4730  -12.1200 N.3    38  LYS38      -0.1245
     53  CA       -43.8620  -21.3910  -12.9900 C.3    38  LYS38       0.1561
     54  C        -45.3740  -21.4850  -13.1290 C.2    38  LYS38       0.2260
     55  O        -45.9000  -22.4760  -13.6350 O.2    38  LYS38      -0.2867
     56  CB       -43.1740  -21.4400  -14.3600 C.3    38  LYS38       0.0271
     57  CG       -43.3830  -20.1860  -15.1940 C.3    38  LYS38       0.0035
     58  CD       -42.5100  -20.1670  -16.4400 C.3    38  LYS38       0.0206
     59  CE       -42.7620  -18.8940  -17.2420 C.3    38  LYS38       0.1093
     60  NZ       -42.0280  -18.8270  -18.5380 N.3    38  LYS38      -0.1314
     61  N        -32.4820  -25.8640  -18.4650 N.3    71  ILE71      -0.1245
     62  CA       -33.2250  -25.9680  -17.2070 C.3    71  ILE71       0.1561
     63  C        -34.0950  -27.2230  -17.1760 C.2    71  ILE71       0.2260
     64  O        -34.6670  -27.6160  -18.1940 O.2    71  ILE71      -0.2867
     65  CB       -34.0790  -24.6990  -16.9440 C.3    71  ILE71       0.0252
     66  CG1      -34.6230  -24.6700  -15.5140 C.3    71  ILE71       0.0019
     67  CG2      -35.2170  -24.5800  -17.9470 C.3    71  ILE71       0.0019
     68  CD1      -33.5650  -24.4680  -14.4550 C.3    71  ILE71       0.0001
     69  N        -40.0050  -26.9650  -11.8580 N.3    87  MET87      -0.1230
     70  CA       -38.6420  -26.8530  -12.3810 C.3    87  MET87       0.1702
     71  C        -37.6290  -26.7720  -11.2480 C.2    87  MET87       0.2592
     72  O        -38.0000  -26.7110  -10.0720 O.2    87  MET87      -0.2718
     73  CB       -38.5010  -25.6040  -13.2590 C.3    87  MET87       0.0401
     74  CG       -39.5920  -25.4350  -14.2970 C.3    87  MET87       0.0596
     75  SD       -39.7020  -23.7430  -14.8830 S.3    87  MET87      -0.1393
     76  CE       -38.3510  -23.6790  -16.0560 C.3    87  MET87       0.0692
     77  N        -36.3520  -26.7650  -11.6180 N.am   88  GLU88      -0.1966
     78  CA       -35.2630  -26.5040  -10.6910 C.3    88  GLU88       0.1733
     79  C        -35.3910  -25.1190  -10.0770 C.2    88  GLU88       0.2616
     80  O        -35.8540  -24.1830  -10.7290 O.2    88  GLU88      -0.2715
     81  CB       -33.9390  -26.5590  -11.4290 C.3    88  GLU88       0.0429
     82  CG       -33.4180  -27.9490  -11.7010 C.3    88  GLU88       0.1163
     83  CD       -32.1090  -27.9040  -12.4520 C.2    88  GLU88       0.3649
     84  OE1      -32.1400  -27.6080  -13.6670 O.co2  88  GLU88      -0.2457
     85  OE2      -31.0570  -28.1530  -11.8220 O.co2  88  GLU88      -0.2457
     86  N        -34.9650  -24.9890   -8.8260 N.am   89  CYS89      -0.1954
     87  CA       -34.9450  -23.6880   -8.1810 C.3    89  CYS89       0.1843
     88  C        -33.6370  -22.9720   -8.4880 C.2    89  CYS89       0.2626
     89  O        -33.6430  -21.8350   -8.9650 O.2    89  CYS89      -0.2714
     90  CB       -35.1460  -23.8180   -6.6710 C.3    89  CYS89       0.0997
     91  SG       -35.2820  -22.2230   -5.8320 S.3    89  CYS89      -0.0797
     92  N        -32.5210  -23.6480   -8.2180 N.am   90  GLY90      -0.1940
     93  CA       -31.1940  -23.0570   -8.3800 C.3    90  GLY90       0.2014
     94  C        -30.8700  -22.0160   -7.3180 C.2    90  GLY90       0.2639
     95  O        -31.6670  -21.7720   -6.4080 O.2    90  GLY90      -0.2714
     96  N        -29.6990  -21.3950   -7.4480 N.am   91  ASN91      -0.1958
     97  CA       -29.2120  -20.4220   -6.4670 C.3    91  ASN91       0.1819
     98  C        -29.6170  -18.9860   -6.7850 C.2    91  ASN91       0.2621
     99  O        -30.1930  -18.2950   -5.9410 O.2    91  ASN91      -0.2715
    100  CB       -27.6880  -20.5120   -6.3200 C.3    91  ASN91       0.1195
    101  CG       -27.2240  -21.8660   -5.8140 C.2    91  ASN91       0.2630
    102  OD1      -26.8640  -22.0120   -4.6450 O.2    91  ASN91      -0.2716
    103  ND2      -27.2290  -22.8650   -6.6920 N.am   91  ASN91      -0.0877
    104  N        -29.3100  -18.5470   -8.0010 N.am   92  ILE92      -0.1963
    105  CA       -29.5510  -17.1680   -8.4250 C.3    92  ILE92       0.1727
    106  C        -29.5680  -17.0900   -9.9520 C.2    92  ILE92       0.2616
    107  O        -28.8990  -17.8760  -10.6250 O.2    92  ILE92      -0.2715
    108  CB       -28.4890  -16.1970   -7.8260 C.3    92  ILE92       0.0290
    109  CG1      -28.9160  -14.7290   -7.9960 C.3    92  ILE92       0.0022
    110  CG2      -27.0930  -16.4700   -8.3910 C.3    92  ILE92       0.0023
    111  CD1      -28.1450  -13.7440   -7.1400 C.3    92  ILE92       0.0001
    112  N        -30.3450  -16.1610  -10.4980 N.am   93  ASP93      -0.1971
    113  CA       -30.2860  -15.8910  -11.9280 C.3    93  ASP93       0.1709
    114  C        -29.0040  -15.1360  -12.2440 C.2    93  ASP93       0.2293
    115  O        -28.4530  -14.4570  -11.3800 O.2    93  ASP93      -0.2864
    116  CB       -31.5110  -15.1040  -12.4020 C.3    93  ASP93       0.1436
    117  CG       -31.6910  -13.7960  -11.6620 C.2    93  ASP93       0.3671
    118  OD1      -31.5840  -12.7290  -12.3090 O.co2  93  ASP93      -0.2456
    119  OD2      -31.9410  -13.8410  -10.4370 O.co2  93  ASP93      -0.2456
    120  N        -28.9940  -11.2540  -11.7760 N.3    96  SER96      -0.1217
    121  CA       -28.8930  -10.8370  -10.3820 C.3    96  SER96       0.1889
    122  C        -27.5330  -11.1980   -9.7800 C.2    96  SER96       0.2288
    123  O        -27.2290  -10.8280   -8.6460 O.2    96  SER96      -0.2866
    124  CB       -30.0310  -11.4450   -9.5560 C.3    96  SER96       0.2089
    125  OG       -31.2950  -11.0140  -10.0370 O.3    96  SER96      -0.2183
    126  N        -30.7020  -12.6380  -17.5220 N.3   136  ALA136     -0.1245
    127  CA       -31.9170  -13.0750  -16.8400 C.3   136  ALA136      0.1562
    128  C        -32.3750  -14.4560  -17.3140 C.2   136  ALA136      0.2260
    129  O        -33.0890  -15.1620  -16.5910 O.2   136  ALA136     -0.2867
    130  CB       -33.0220  -12.0510  -17.0460 C.3   136  ALA136      0.0290
    131  N        -29.9060  -19.5000  -15.2450 N.3   139  LEU139     -0.1245
    132  CA       -29.9340  -19.8140  -13.8270 C.3   139  LEU139      0.1561
    133  C        -28.6300  -20.4940  -13.4210 C.2   139  LEU139      0.2260
    134  O        -28.0550  -21.2510  -14.2000 O.2   139  LEU139     -0.2867
    135  CB       -31.1270  -20.7280  -13.5130 C.3   139  LEU139      0.0270
    136  CG       -31.3530  -21.2140  -12.0730 C.3   139  LEU139      0.0019
    137  CD1      -31.7330  -20.0660  -11.1540 C.3   139  LEU139      0.0001
    138  CD2      -32.4100  -22.3000  -12.0180 C.3   139  LEU139      0.0001
    139  N        -33.0190  -20.9980  -19.0540 N.3   148  ILE148     -0.1231
    140  CA       -34.3580  -21.0270  -18.4700 C.3   148  ILE148      0.1692
    141  C        -35.4730  -21.0860  -19.5200 C.2   148  ILE148      0.2592
    142  O        -36.4420  -21.8250  -19.3530 O.2   148  ILE148     -0.2718
    143  CB       -34.5880  -19.8160  -17.5330 C.3   148  ILE148      0.0266
    144  CG1      -33.5280  -19.7750  -16.4320 C.3   148  ILE148      0.0019
    145  CG2      -35.9780  -19.8610  -16.9110 C.3   148  ILE148      0.0020
    146  CD1      -33.4550  -18.4510  -15.7090 C.3   148  ILE148      0.0001
    147  N        -35.3420  -20.3040  -20.5890 N.am  149  ASP149     -0.1974
    148  CA       -36.3730  -20.2400  -21.6250 C.3   149  ASP149      0.1709
    149  C        -35.8030  -19.9180  -23.0060 C.2   149  ASP149      0.2293
    150  O        -34.6220  -19.5890  -23.1290 O.2   149  ASP149     -0.2864
    151  CB       -37.4620  -19.2380  -21.2330 C.3   149  ASP149      0.1436
    152  CG       -36.9090  -17.8640  -20.9200 C.2   149  ASP149      0.3671
    153  OD1      -36.7310  -17.0660  -21.8650 O.co2 149  ASP149     -0.2456
    154  OD2      -36.6690  -17.5790  -19.7280 O.co2 149  ASP149     -0.2456
    155  N        -40.1790  -12.0040  -17.8180 N.3   156  MET156     -0.1230
    156  CA       -40.6210  -11.5890  -16.4840 C.3   156  MET156      0.1702
    157  C        -39.5310  -10.8250  -15.7330 C.2   156  MET156      0.2592
    158  O        -38.3500  -10.9420  -16.0610 O.2   156  MET156     -0.2718
    159  CB       -41.0390  -12.8110  -15.6630 C.3   156  MET156      0.0401
    160  CG       -42.2210  -13.5880  -16.2220 C.3   156  MET156      0.0596
    161  SD       -42.4820  -15.1800  -15.4090 S.3   156  MET156     -0.1393
    162  CE       -42.9520  -14.6630  -13.7630 C.3   156  MET156      0.0692
    163  N        -39.9390  -10.0570  -14.7220 N.am  157  GLN157     -0.1966
    164  CA       -39.0120   -9.3180  -13.8520 C.3   157  GLN157      0.1718
    165  C        -39.2460   -9.6500  -12.3700 C.2   157  GLN157      0.2458
    166  O        -40.3810   -9.9230  -11.9730 O.2   157  GLN157     -0.2730
    167  CB       -39.1430   -7.8080  -14.0870 C.3   157  GLN157      0.0407
    168  CG       -38.7390   -7.3070  -15.4720 C.3   157  GLN157      0.0908
    169  CD       -37.3160   -7.6590  -15.8190 C.2   157  GLN157      0.2608
    170  OE1      -36.4060   -7.3600  -15.0200 O.2   157  GLN157     -0.2717
    171  NE2      -37.1040   -8.3710  -16.8800 N.am  157  GLN157     -0.0878
    172  N        -38.1760   -9.6360  -11.5460 N.am  158  PRO158     -0.2727
    173  CA       -38.3480   -9.9190  -10.1210 C.3   158  PRO158      0.1402
    174  C        -38.6920   -8.6620   -9.3200 C.2   158  PRO158      0.2269
    175  O        -39.0060   -8.7500   -8.1310 O.2   158  PRO158     -0.2865
    176  CB       -36.9770  -10.4600   -9.7080 C.3   158  PRO158      0.0296
    177  CG       -36.0120   -9.8100  -10.6440 C.3   158  PRO158      0.0237
    178  CD       -36.7580   -9.4060  -11.8910 C.3   158  PRO158      0.0939
@<TRIPOS>BOND
     1   150   149    2
     2   149   148    1
     3   153   152   ar
     4   148   151    1
     5   148   147    1
     6   151   152    1
     7   152   154   ar
     8   147   141   am
     9   141   142    2
    10   141   140    1
    11   139   140    1
    12    60    59    1
    13   140   143    1
    14    61    62    1
    15    64    63    2
    16    67    65    1
    17   155   156    1
    18   143   145    1
    19   143   144    1
    20   126   127    1
    21   128   127    1
    22   128   129    2
    23    59    58    1
    24    62    63    1
    25    62    65    1
    26   130   127    1
    27    65    66    1
    28   171   169   am
    29   156   157    1
    30   156   159    1
    31    58    57    1
    32   144   146    1
    33   160   159    1
    34   160   161    1
    35   158   157    2
    36    76    75    1
    37   169   168    1
    38   169   170    2
    39   157   163   am
    40    66    68    1
    41   168   167    1
    42   161   162    1
    43   131   132    1
    44    57    56    1
    45    75    74    1
    46   163   164    1
    47    56    53    1
    48    74    73    1
    49   134   133    2
    50   167   164    1
    51   164   165    1
    52   132   135    1
    53   132   133    1
    54    84    83   ar
    55    55    54    2
    56   135   136    1
    57    73    70    1
    58    54    53    1
    59    53    52    1
    60    37    35    1
    61    83    85   ar
    62    83    82    1
    63   116   113    1
    64   116   117    1
    65    70    69    1
    66    70    71    1
    67   165   166    2
    68   165   172   am
    69   118   117   ar
    70   114   113    1
    71   114   115    2
    72   136   138    1
    73   136   137    1
    74   113   112    1
    75   178   172    1
    76   178   177    1
    77   120   121    1
    78    82    81    1
    79   117   119   ar
    80    77    71   am
    81    77    78    1
    82   172   173    1
    83    81    78    1
    84    71    72    2
    85    35    36    1
    86    35    32    1
    87    31    32    1
    88    80    79    2
    89    78    79    1
    90   177   176    1
    91   107   106    2
    92    29    30    2
    93    29    28    1
    94   112   106   am
    95    32    33    1
    96    50    49    2
    97   121   122    1
    98   121   124    1
    99   173   176    1
   100   173   174    1
   101    79    86   am
   102   125   124    1
   103    28    27    1
   104   106   105    1
   105   122   123    2
   106    49    48    1
   107    51    48    1
   108   174   175    2
   109    89    88    2
   110    33    34    2
   111    27    21   am
   112    86    87    1
   113    48    47    1
   114    88    92   am
   115    88    87    1
   116   105   104    1
   117   105   108    1
   118   110   108    1
   119    93    92    1
   120    93    94    1
   121    87    90    1
   122    22    21    2
   123    21    20    1
   124   104    98   am
   125   109   108    1
   126   109   111    1
   127    25    23    1
   128    18    16   am
   129    23    20    1
   130    23    24    1
   131    96    94   am
   132    96    97    1
   133    94    95    2
   134    26    24    1
   135    20    19    1
   136    16    15    1
   137    16    17    2
   138    98    97    1
   139    98    99    2
   140   103   101   am
   141    90    91    1
   142    15    14    1
   143    97   100    1
   144    19    12   am
   145   100   101    1
   146   101   102    2
   147    38    39    1
   148    12    11    1
   149    12    13    2
   150    14    11    1
   151    11    10    1
   152    39    42    1
   153    39    40    1
   154    42    43    1
   155    40    41    2
   156     4     3    2
   157    10     3   am
   158     9     8    1
   159    43    44    1
   160    46    44   am
   161     3     2    1
   162    44    45    2
   163     8     7    1
   164     6     7    1
   165     6     5    1
   166     2     5    1
   167     2     1    1
