@<TRIPOS>MOLECULE
tmp/3wz4G02.pdb
 91 86 0 0 0
SMALL
GASTEIGER

@<TRIPOS>ATOM
      1  N         46.2730   71.1090   22.7640 N.3    19  ALA19      -0.1231
      2  CA        45.2540   72.1490   22.8520 C.3    19  ALA19       0.1694
      3  C         44.1840   71.9790   21.7810 C.2    19  ALA19       0.2591
      4  O         43.0030   72.2510   22.0220 O.2    19  ALA19      -0.2718
      5  CB        45.8950   73.5290   22.7500 C.3    19  ALA19       0.0304
      6  N         44.6000   71.5300   20.6010 N.am   20  ALA20      -0.1980
      7  CA        43.6810   71.3470   19.4830 C.3    20  ALA20       0.1597
      8  C         42.6490   70.2650   19.7840 C.2    20  ALA20       0.2287
      9  O         41.5240   70.3210   19.2980 O.2    20  ALA20      -0.2864
     10  CB        44.4510   71.0160   18.1950 C.3    20  ALA20       0.0319
     11  N         41.5540   69.5290   22.8970 N.3    22  THR22      -0.1203
     12  CA        41.0750   69.7680   24.2510 C.3    22  THR22       0.1994
     13  C         39.9020   70.7460   24.2250 C.2    22  THR22       0.2617
     14  O         40.0990   71.9600   24.2380 O.2    22  THR22      -0.2717
     15  CB        42.1920   70.3280   25.1550 C.3    22  THR22       0.1784
     16  OG1       43.3360   69.4630   25.1040 O.3    22  THR22      -0.2211
     17  CG2       41.7070   70.4380   26.5950 C.3    22  THR22       0.0376
     18  N         38.6850   70.2110   24.1770 N.am   23  TYR23      -0.1975
     19  CA        37.4830   71.0380   24.1160 C.3    23  TYR23       0.1639
     20  C         36.2280   70.1930   24.3100 C.2    23  TYR23       0.2290
     21  O         36.3040   68.9690   24.3780 O.2    23  TYR23      -0.2864
     22  CB        37.4110   71.7780   22.7800 C.3    23  TYR23       0.0560
     23  CG        37.1640   70.8770   21.5850 C.ar   23  TYR23      -0.0198
     24  CD1       38.1950   70.1320   21.0240 C.ar   23  TYR23      -0.0009
     25  CD2       35.9030   70.7820   21.0140 C.ar   23  TYR23      -0.0009
     26  CE1       37.9730   69.3130   19.9310 C.ar   23  TYR23       0.0417
     27  CE2       35.6710   69.9680   19.9220 C.ar   23  TYR23       0.0417
     28  CZ        36.7080   69.2370   19.3850 C.ar   23  TYR23       0.1957
     29  OH        36.4740   68.4290   18.2990 O.3    23  TYR23      -0.2866
     30  N         33.4330   74.8530   23.0060 N.3    28  TYR28      -0.1241
     31  CA        34.1930   74.7150   21.7640 C.3    28  TYR28       0.1605
     32  C         34.5680   76.0490   21.1120 C.2    28  TYR28       0.2264
     33  O         35.6690   76.1920   20.5910 O.2    28  TYR28      -0.2867
     34  CB        33.4580   73.8120   20.7600 C.3    28  TYR28       0.0534
     35  CG        32.1260   74.3550   20.2950 C.ar   28  TYR28      -0.0201
     36  CD1       30.9670   74.1360   21.0320 C.ar   28  TYR28      -0.0009
     37  CD2       32.0250   75.0880   19.1180 C.ar   28  TYR28      -0.0009
     38  CE1       29.7450   74.6350   20.6120 C.ar   28  TYR28       0.0417
     39  CE2       30.8060   75.5890   18.6880 C.ar   28  TYR28       0.0417
     40  CZ        29.6720   75.3600   19.4380 C.ar   28  TYR28       0.1957
     41  OH        28.4620   75.8590   19.0110 O.3    28  TYR28      -0.2866
     42  N         37.3120   77.8350   23.2610 N.3    31  GLU31      -0.1231
     43  CA        38.5370   77.0570   23.1040 C.3    31  GLU31       0.1699
     44  C         39.1050   77.1810   21.6980 C.2    31  GLU31       0.2592
     45  O         40.3110   77.3290   21.5230 O.2    31  GLU31      -0.2718
     46  CB        38.2880   75.5860   23.4390 C.3    31  GLU31       0.0402
     47  CG        37.9960   75.3330   24.9030 C.3    31  GLU31       0.1161
     48  CD        39.2050   75.5640   25.7900 C.2    31  GLU31       0.3649
     49  OE1       40.2310   74.8840   25.5850 O.co2  31  GLU31      -0.2457
     50  OE2       39.1310   76.4270   26.6920 O.co2  31  GLU31      -0.2457
     51  N         38.2320   77.1090   20.6980 N.am   32  LEU32      -0.1980
     52  CA        38.6420   77.3130   19.3140 C.3    32  LEU32       0.1596
     53  C         39.4020   78.6170   19.1720 C.2    32  LEU32       0.2287
     54  O         40.5250   78.6500   18.6680 O.2    32  LEU32      -0.2864
     55  CB        37.4170   77.3620   18.3940 C.3    32  LEU32       0.0297
     56  CG        37.5320   78.2930   17.1760 C.3    32  LEU32       0.0022
     57  CD1       38.4780   77.7120   16.1340 C.3    32  LEU32       0.0001
     58  CD2       36.1650   78.5780   16.5610 C.3    32  LEU32       0.0001
     59  N         42.9980   79.2940   20.5780 N.3    35  SER35      -0.1217
     60  CA        44.1430   78.6220   19.9770 C.3    35  SER35       0.1889
     61  C         44.6770   79.3280   18.7330 C.2    35  SER35       0.2288
     62  O         45.7180   78.9420   18.2010 O.2    35  SER35      -0.2866
     63  CB        43.7880   77.1770   19.6320 C.3    35  SER35       0.2089
     64  OG        42.8090   77.1380   18.6110 O.3    35  SER35      -0.2183
     65  N         43.8180   75.5300    9.2810 N.3    47  PHE47      -0.1241
     66  CA        43.2540   74.8800   10.4620 C.3    47  PHE47       0.1605
     67  C         41.7310   74.9650   10.4640 C.2    47  PHE47       0.2264
     68  O         41.0480   73.9670   10.6930 O.2    47  PHE47      -0.2867
     69  CB        43.8240   75.4890   11.7450 C.3    47  PHE47       0.0534
     70  CG        43.3780   74.7890   13.0010 C.ar   47  PHE47      -0.0203
     71  CD1       43.9050   73.5530   13.3460 C.ar   47  PHE47      -0.0042
     72  CD2       42.4380   75.3680   13.8370 C.ar   47  PHE47      -0.0042
     73  CE1       43.5020   72.9060   14.5020 C.ar   47  PHE47      -0.0003
     74  CE2       42.0320   74.7270   14.9970 C.ar   47  PHE47      -0.0003
     75  CZ        42.5660   73.4910   15.3280 C.ar   47  PHE47      -0.0000
     76  N         39.0550   71.9070   10.1520 N.3    51  LEU51      -0.1245
     77  CA        37.9850   71.7490   11.1310 C.3    51  LEU51       0.1561
     78  C         36.6330   71.6400   10.4340 C.2    51  LEU51       0.2260
     79  O         35.8180   70.7820   10.7680 O.2    51  LEU51      -0.2867
     80  CB        37.9810   72.9190   12.1190 C.3    51  LEU51       0.0270
     81  CG        36.7260   73.1070   12.9740 C.3    51  LEU51       0.0019
     82  CD1       37.0920   73.5980   14.3640 C.3    51  LEU51       0.0001
     83  CD2       35.7320   74.0570   12.3080 C.3    51  LEU51       0.0001
     84  N         33.4430   68.3010   15.2620 N.3    57  LEU57      -0.1245
     85  CA        32.6910   69.2600   16.0640 C.3    57  LEU57       0.1561
     86  C         31.1950   68.9830   15.9900 C.2    57  LEU57       0.2260
     87  O         30.4900   69.0830   16.9940 O.2    57  LEU57      -0.2867
     88  CB        32.9870   70.6950   15.6300 C.3    57  LEU57       0.0270
     89  CG        32.3110   71.7770   16.4770 C.3    57  LEU57       0.0019
     90  CD1       32.6520   71.6160   17.9620 C.3    57  LEU57       0.0001
     91  CD2       32.6860   73.1680   15.9750 C.3    57  LEU57       0.0001
@<TRIPOS>BOND
     1    65    66    1
     2    76    77    1
     3    78    79    2
     4    78    77    1
     5    66    67    1
     6    66    69    1
     7    67    68    2
     8    77    80    1
     9    69    70    1
    10    80    81    1
    11    83    81    1
    12    81    82    1
    13    70    71   ar
    14    70    72   ar
    15    71    73   ar
    16    72    74   ar
    17    73    75   ar
    18    74    75   ar
    19    84    85    1
    20    88    85    1
    21    88    89    1
    22    91    89    1
    23    86    85    1
    24    86    87    2
    25    57    56    1
    26    89    90    1
    27    58    56    1
    28    56    55    1
    29    10     7    1
    30    62    61    2
    31    29    28    1
    32    55    52    1
    33    64    63    1
    34    54    53    2
    35    39    37   ar
    36    39    40   ar
    37    61    60    1
    38    41    40    1
    39    37    35   ar
    40    53    52    1
    41     9     8    2
    42    52    51    1
    43    28    27   ar
    44    28    26   ar
    45    40    38   ar
    46     7     8    1
    47     7     6    1
    48    63    60    1
    49    27    25   ar
    50    26    24   ar
    51    60    59    1
    52    35    34    1
    53    35    36   ar
    54    33    32    2
    55     6     3   am
    56    38    36   ar
    57    51    44   am
    58    34    31    1
    59    25    23   ar
    60    24    23   ar
    61    32    31    1
    62    45    44    2
    63    23    22    1
    64    44    43    1
    65    31    30    1
    66     3     4    2
    67     3     2    1
    68     5     2    1
    69     1     2    1
    70    22    19    1
    71    11    12    1
    72    43    42    1
    73    43    46    1
    74    46    47    1
    75    19    18    1
    76    19    20    1
    77    18    13   am
    78    13    14    2
    79    13    12    1
    80    12    15    1
    81    20    21    2
    82    47    48    1
    83    16    15    1
    84    15    17    1
    85    49    48   ar
    86    48    50   ar
