@<TRIPOS>MOLECULE
tmp/3wz4G01.pdb
 96 92 0 0 0
SMALL
GASTEIGER

@<TRIPOS>ATOM
      1  N         44.6000   71.5300   20.6010 N.3    20  ALA20      -0.1231
      2  CA        43.6810   71.3470   19.4830 C.3    20  ALA20       0.1694
      3  C         42.6490   70.2650   19.7840 C.2    20  ALA20       0.2592
      4  O         41.5240   70.3210   19.2980 O.2    20  ALA20      -0.2718
      5  CB        44.4510   71.0160   18.1950 C.3    20  ALA20       0.0304
      6  N         43.0290   69.2910   20.6020 N.am   21  PHE21      -0.1976
      7  CA        42.1250   68.2010   20.9540 C.3    21  PHE21       0.1639
      8  C         41.6590   68.3000   22.4010 C.2    21  PHE21       0.2290
      9  O         41.4040   67.2850   23.0540 O.2    21  PHE21      -0.2864
     10  CB        42.7860   66.8470   20.6940 C.3    21  PHE21       0.0560
     11  CG        42.9550   66.5310   19.2370 C.ar   21  PHE21      -0.0200
     12  CD1       41.9670   65.8500   18.5440 C.ar   21  PHE21      -0.0042
     13  CD2       44.1000   66.9200   18.5570 C.ar   21  PHE21      -0.0042
     14  CE1       42.1170   65.5580   17.2000 C.ar   21  PHE21      -0.0003
     15  CE2       44.2580   66.6300   17.2150 C.ar   21  PHE21      -0.0003
     16  CZ        43.2640   65.9480   16.5330 C.ar   21  PHE21      -0.0000
     17  N         38.6850   70.2110   24.1770 N.3    23  TYR23      -0.1241
     18  CA        37.4830   71.0380   24.1160 C.3    23  TYR23       0.1605
     19  C         36.2280   70.1930   24.3100 C.2    23  TYR23       0.2264
     20  O         36.3040   68.9690   24.3780 O.2    23  TYR23      -0.2867
     21  CB        37.4110   71.7780   22.7800 C.3    23  TYR23       0.0534
     22  CG        37.1640   70.8770   21.5850 C.ar   23  TYR23      -0.0201
     23  CD1       38.1950   70.1320   21.0240 C.ar   23  TYR23      -0.0009
     24  CD2       35.9030   70.7820   21.0140 C.ar   23  TYR23      -0.0009
     25  CE1       37.9730   69.3130   19.9310 C.ar   23  TYR23       0.0417
     26  CE2       35.6710   69.9680   19.9220 C.ar   23  TYR23       0.0417
     27  CZ        36.7080   69.2370   19.3850 C.ar   23  TYR23       0.1957
     28  OH        36.4740   68.4290   18.2990 O.3    23  TYR23      -0.2866
     29  N         43.8180   75.5300    9.2810 N.3    47  PHE47      -0.1241
     30  CA        43.2540   74.8800   10.4620 C.3    47  PHE47       0.1605
     31  C         41.7310   74.9650   10.4640 C.2    47  PHE47       0.2264
     32  O         41.0480   73.9670   10.6930 O.2    47  PHE47      -0.2867
     33  CB        43.8240   75.4890   11.7450 C.3    47  PHE47       0.0534
     34  CG        43.3780   74.7890   13.0010 C.ar   47  PHE47      -0.0203
     35  CD1       43.9050   73.5530   13.3460 C.ar   47  PHE47      -0.0042
     36  CD2       42.4380   75.3680   13.8370 C.ar   47  PHE47      -0.0042
     37  CE1       43.5020   72.9060   14.5020 C.ar   47  PHE47      -0.0003
     38  CE2       42.0320   74.7270   14.9970 C.ar   47  PHE47      -0.0003
     39  CZ        42.5660   73.4910   15.3280 C.ar   47  PHE47      -0.0000
     40  N         40.3370   72.7210    7.7960 N.3    50  ALA50      -0.1231
     41  CA        40.3710   71.3180    8.1990 C.3    50  ALA50       0.1694
     42  C         39.2680   71.0010    9.2030 C.2    50  ALA50       0.2591
     43  O         38.6250   69.9550    9.1210 O.2    50  ALA50      -0.2718
     44  CB        41.7390   70.9520    8.7670 C.3    50  ALA50       0.0304
     45  N         39.0550   71.9070   10.1520 N.am   51  LEU51      -0.1980
     46  CA        37.9850   71.7490   11.1310 C.3    51  LEU51       0.1596
     47  C         36.6330   71.6400   10.4340 C.2    51  LEU51       0.2287
     48  O         35.8180   70.7820   10.7680 O.2    51  LEU51      -0.2864
     49  CB        37.9810   72.9190   12.1190 C.3    51  LEU51       0.0297
     50  CG        36.7260   73.1070   12.9740 C.3    51  LEU51       0.0022
     51  CD1       37.0920   73.5980   14.3640 C.3    51  LEU51       0.0001
     52  CD2       35.7320   74.0570   12.3080 C.3    51  LEU51       0.0001
     53  N         36.2920   68.1260    8.5770 N.3    54  SER54      -0.1217
     54  CA        36.0270   67.0070    9.4690 C.3    54  SER54       0.1889
     55  C         34.6140   67.1490   10.0100 C.2    54  SER54       0.2288
     56  O         34.0050   68.2140    9.9050 O.2    54  SER54      -0.2866
     57  CB        37.0270   66.9760   10.6260 C.3    54  SER54       0.2089
     58  OG        36.6050   67.8250   11.6800 O.3    54  SER54      -0.2183
     59  N         34.0210   66.2400   13.2360 N.3    56  ASN56      -0.1240
     60  CA        34.2730   66.0940   14.6670 C.3    56  ASN56       0.1653
     61  C         33.4090   67.0020   15.5400 C.2    56  ASN56       0.2266
     62  O         32.7240   66.5310   16.4510 O.2    56  ASN56      -0.2867
     63  CB        35.7560   66.3200   14.9650 C.3    56  ASN56       0.1155
     64  CG        36.6370   65.2160   14.4030 C.2    56  ASN56       0.2627
     65  OD1       36.1450   64.2630   13.7980 O.2    56  ASN56      -0.2716
     66  ND2       37.9440   65.3440   14.5970 N.am   56  ASN56      -0.0877
     67  N         37.3350   60.7490   23.2020 N.3    98  TYR98      -0.1241
     68  CA        36.0130   61.3620   23.0960 C.3    98  TYR98       0.1605
     69  C         35.0720   60.6340   24.0480 C.2    98  TYR98       0.2264
     70  O         34.9030   59.4200   23.9470 O.2    98  TYR98      -0.2867
     71  CB        35.4740   61.2520   21.6670 C.3    98  TYR98       0.0534
     72  CG        36.2950   61.9830   20.6290 C.ar   98  TYR98      -0.0201
     73  CD1       37.3910   61.3770   20.0250 C.ar   98  TYR98      -0.0009
     74  CD2       35.9670   63.2750   20.2440 C.ar   98  TYR98      -0.0009
     75  CE1       38.1400   62.0470   19.0700 C.ar   98  TYR98       0.0417
     76  CE2       36.7080   63.9510   19.2930 C.ar   98  TYR98       0.0417
     77  CZ        37.7910   63.3360   18.7090 C.ar   98  TYR98       0.1957
     78  OH        38.5240   64.0170   17.7630 O.3    98  TYR98      -0.2866
     79  N         48.8450   72.1690    9.7900 N.3   131  PHE131     -0.1241
     80  CA        48.4490   71.2780   10.8730 C.3   131  PHE131      0.1605
     81  C         47.7350   70.0810   10.2600 C.2   131  PHE131      0.2264
     82  O         46.5940   70.1980    9.8140 O.2   131  PHE131     -0.2867
     83  CB        47.5090   72.0220   11.8230 C.3   131  PHE131      0.0534
     84  CG        47.2130   71.2880   13.1020 C.ar  131  PHE131     -0.0203
     85  CD1       46.2130   70.3290   13.1550 C.ar  131  PHE131     -0.0042
     86  CD2       47.9170   71.5790   14.2590 C.ar  131  PHE131     -0.0042
     87  CE1       45.9330   69.6640   14.3380 C.ar  131  PHE131     -0.0003
     88  CE2       47.6410   70.9200   15.4430 C.ar  131  PHE131     -0.0003
     89  CZ        46.6480   69.9580   15.4810 C.ar  131  PHE131     -0.0000
     90  N         46.5780   65.9130   10.4810 N.3   133  VAL133     -0.1245
     91  CA        46.2780   64.8090   11.3880 C.3   133  VAL133      0.1561
     92  C         45.9840   63.5140   10.6320 C.2   133  VAL133      0.2260
     93  O         45.1910   63.4960    9.6880 O.2   133  VAL133     -0.2867
     94  CB        45.0840   65.1390   12.3040 C.3   133  VAL133      0.0252
     95  CG1       44.8170   63.9850   13.2670 C.3   133  VAL133      0.0019
     96  CG2       45.3420   66.4280   13.0670 C.3   133  VAL133      0.0019
@<TRIPOS>BOND
     1    40    41    1
     2    41    44    1
     3    41    42    1
     4    53    54    1
     5    43    42    2
     6    42    45   am
     7    29    30    1
     8    54    55    1
     9    54    57    1
    10    93    92    2
    11    79    80    1
    12    82    81    2
    13    56    55    2
    14    45    46    1
    15    81    80    1
    16    47    48    2
    17    47    46    1
    18    30    31    1
    19    30    33    1
    20    31    32    2
    21    90    91    1
    22    57    58    1
    23    92    91    1
    24    80    83    1
    25    46    49    1
    26    91    94    1
    27    33    34    1
    28    83    84    1
    29    49    50    1
    30    94    96    1
    31    94    95    1
    32    52    50    1
    33    50    51    1
    34    34    35   ar
    35    34    36   ar
    36    84    85   ar
    37    84    86   ar
    38    85    87   ar
    39    59    60    1
    40    35    37   ar
    41    65    64    2
    42    36    38   ar
    43    86    88   ar
    44    87    89   ar
    45    64    66   am
    46    64    63    1
    47    37    39   ar
    48    60    63    1
    49    60    61    1
    50    38    39   ar
    51    88    89   ar
    52    61    62    2
    53    16    14   ar
    54    16    15   ar
    55    14    12   ar
    56    15    13   ar
    57    78    77    1
    58     5     2    1
    59    28    27    1
    60    12    11   ar
    61    13    11   ar
    62    77    75   ar
    63    77    76   ar
    64    75    73   ar
    65    11    10    1
    66    76    74   ar
    67     4     3    2
    68    27    26   ar
    69    27    25   ar
    70     2     3    1
    71     2     1    1
    72     3     6   am
    73    26    24   ar
    74    25    23   ar
    75    73    72   ar
    76    74    72   ar
    77     6     7    1
    78    72    71    1
    79    10     7    1
    80     7     8    1
    81    24    22   ar
    82    23    22   ar
    83    22    21    1
    84    71    68    1
    85     8     9    2
    86    21    18    1
    87    68    67    1
    88    68    69    1
    89    70    69    2
    90    18    17    1
    91    18    19    1
    92    19    20    2
