@<TRIPOS>MOLECULE
tmp/3wz6A05.pdb
 168 156 0 0 0
SMALL
GASTEIGER

@<TRIPOS>ATOM
      1  N         46.8860   -6.5310   11.2880 N.3    33  ASP33      -0.1239
      2  CA        47.0030   -5.5700   10.2030 C.3    33  ASP33       0.1674
      3  C         48.3400   -4.8530   10.3690 C.2    33  ASP33       0.2266
      4  O         48.4950   -3.9960   11.2480 O.2    33  ASP33      -0.2867
      5  CB        45.8210   -4.5980   10.3200 C.3    33  ASP33       0.1410
      6  CG        45.7280   -3.6060    9.1880 C.2    33  ASP33       0.3668
      7  OD1       46.6710   -3.4820    8.3950 O.co2  33  ASP33      -0.2456
      8  OD2       44.6670   -2.9350    9.1150 O.co2  33  ASP33      -0.2456
      9  N         50.8550   -2.1960    9.8850 N.3    35  ASP35      -0.1239
     10  CA        50.4910   -0.8040    9.6480 C.3    35  ASP35       0.1674
     11  C         51.7080    0.1130    9.7120 C.2    35  ASP35       0.2266
     12  O         52.1440    0.4860   10.8020 O.2    35  ASP35      -0.2867
     13  CB        49.4670   -0.3930   10.7090 C.3    35  ASP35       0.1410
     14  CG        48.9630    1.0140   10.5260 C.2    35  ASP35       0.3668
     15  OD1       49.2620    1.6300    9.4850 O.co2  35  ASP35      -0.2456
     16  OD2       48.2290    1.4910   11.4210 O.co2  35  ASP35      -0.2456
     17  N         51.7820    3.0660    9.1060 N.3    37  GLY37      -0.1210
     18  CA        51.3380    4.3700    9.5640 C.3    37  GLY37       0.1956
     19  C         51.0640    4.5130   11.0560 C.2    37  GLY37       0.2612
     20  O         50.5360    5.5370   11.4910 O.2    37  GLY37      -0.2717
     21  N         51.4170    3.5120   11.8540 N.am   38  SER38      -0.1952
     22  CA        51.2570    3.6380   13.3020 C.3    38  SER38       0.1924
     23  C         52.2900    2.7690   13.9940 C.2    38  SER38       0.2314
     24  O         53.0020    2.0190   13.3400 O.2    38  SER38      -0.2863
     25  CB        49.8430    3.2600   13.7420 C.3    38  SER38       0.2116
     26  OG        49.6150    1.8780   13.5780 O.3    38  SER38      -0.2180
     27  N         42.2440    6.8420   15.2730 N.3    79  TYR79      -0.1227
     28  CA        42.6490    6.9510   13.8780 C.3    79  TYR79       0.1736
     29  C         41.7300    7.9250   13.1320 C.2    79  TYR79       0.2596
     30  O         40.7420    8.4120   13.6890 O.2    79  TYR79      -0.2718
     31  CB        42.6430    5.5740   13.2080 C.3    79  TYR79       0.0548
     32  CG        43.4520    4.5170   13.9440 C.ar   79  TYR79      -0.0200
     33  CD1       42.8460    3.6600   14.8570 C.ar   79  TYR79      -0.0009
     34  CD2       44.8170    4.3730   13.7210 C.ar   79  TYR79      -0.0009
     35  CE1       43.5770    2.6870   15.5280 C.ar   79  TYR79       0.0417
     36  CE2       45.5560    3.4030   14.3860 C.ar   79  TYR79       0.0417
     37  CZ        44.9300    2.5630   15.2880 C.ar   79  TYR79       0.1957
     38  OH        45.6580    1.6010   15.9550 O.3    79  TYR79      -0.2866
     39  N         42.0640    8.1970   11.8740 N.am   80  GLY80      -0.1942
     40  CA        41.3890    9.2200   11.0900 C.3    80  GLY80       0.2014
     41  C         39.9100    8.9910   10.8300 C.2    80  GLY80       0.2638
     42  O         39.1900    9.9280   10.4840 O.2    80  GLY80      -0.2714
     43  N         39.4490    7.7540   10.9900 N.am   81  ASP81      -0.1971
     44  CA        38.0380    7.4400   10.7730 C.3    81  ASP81       0.1709
     45  C         37.2230    7.6470   12.0450 C.2    81  ASP81       0.2293
     46  O         36.0320    7.3360   12.0870 O.2    81  ASP81      -0.2864
     47  CB        37.8770    6.0010   10.2800 C.3    81  ASP81       0.1436
     48  CG        38.4530    4.9860   11.2470 C.2    81  ASP81       0.3671
     49  OD1       39.2650    5.3850   12.1060 O.co2  81  ASP81      -0.2456
     50  OD2       38.0990    3.7910   11.1420 O.co2  81  ASP81      -0.2456
     51  N         37.8960    6.0900   14.7010 N.3    83  SER83      -0.1217
     52  CA        37.9410    4.8270   15.4180 C.3    83  SER83       0.1889
     53  C         39.0530    4.8500   16.4580 C.2    83  SER83       0.2288
     54  O         40.0110    5.6060   16.3330 O.2    83  SER83      -0.2866
     55  CB        38.1240    3.6500   14.4560 C.3    83  SER83       0.2089
     56  OG        39.4500    3.5730   13.9560 O.3    83  SER83      -0.2183
     57  N         36.0990   -1.5380   14.6950 N.3   116  PHE116     -0.1241
     58  CA        36.9340   -2.7110   14.9310 C.3   116  PHE116      0.1605
     59  C         36.0810   -3.9250   15.2800 C.2   116  PHE116      0.2264
     60  O         36.2880   -5.0100   14.7460 O.2   116  PHE116     -0.2867
     61  CB        37.9600   -2.4270   16.0270 C.3   116  PHE116      0.0534
     62  CG        39.0450   -1.4950   15.5930 C.ar  116  PHE116     -0.0203
     63  CD1       39.9830   -1.9010   14.6610 C.ar  116  PHE116     -0.0042
     64  CD2       39.1210   -0.2050   16.0940 C.ar  116  PHE116     -0.0042
     65  CE1       40.9780   -1.0430   14.2390 C.ar  116  PHE116     -0.0003
     66  CE2       40.1220    0.6500   15.6830 C.ar  116  PHE116     -0.0003
     67  CZ        41.0510    0.2320   14.7610 C.ar  116  PHE116     -0.0000
     68  N         40.0950   -8.7740   11.5280 N.3   122  ILE122     -0.1245
     69  CA        41.3090   -8.1270   12.0220 C.3   122  ILE122      0.1561
     70  C         41.3600   -8.2580   13.5410 C.2   122  ILE122      0.2260
     71  O         40.4850   -7.7550   14.2460 O.2   122  ILE122     -0.2867
     72  CB        41.3810   -6.6600   11.5500 C.3   122  ILE122      0.0252
     73  CG1       41.6350   -6.6260   10.0410 C.3   122  ILE122      0.0019
     74  CG2       42.5030   -5.9050   12.2560 C.3   122  ILE122      0.0019
     75  CD1       41.6800   -5.2450    9.4330 C.3   122  ILE122      0.0001
     76  N         46.4450   -4.6970   15.3710 N.3   125  LEU125     -0.1245
     77  CA        47.3960   -4.0250   14.4990 C.3   125  LEU125      0.1561
     78  C         48.8180   -4.3150   14.9530 C.2   125  LEU125      0.2260
     79  O         49.0810   -4.5130   16.1460 O.2   125  LEU125     -0.2867
     80  CB        47.1720   -2.5110   14.5190 C.3   125  LEU125      0.0270
     81  CG        46.1950   -1.9650   13.4770 C.3   125  LEU125      0.0019
     82  CD1       44.7970   -2.5390   13.6720 C.3   125  LEU125      0.0001
     83  CD2       46.1640   -0.4420   13.5290 C.3   125  LEU125      0.0001
     84  N         56.4380    9.1430   10.6650 N.3   194  PHE194     -0.1241
     85  CA        55.9920    8.3180    9.5430 C.3   194  PHE194      0.1605
     86  C         57.1240    8.0470    8.5570 C.2   194  PHE194      0.2264
     87  O         58.1720    8.7020    8.5870 O.2   194  PHE194     -0.2867
     88  CB        54.8840    9.0150    8.7460 C.3   194  PHE194      0.0534
     89  CG        53.6480    9.3280    9.5340 C.ar  194  PHE194     -0.0203
     90  CD1       53.2220   10.6400    9.6710 C.ar  194  PHE194     -0.0042
     91  CD2       52.9010    8.3230   10.1120 C.ar  194  PHE194     -0.0042
     92  CE1       52.0790   10.9380   10.3790 C.ar  194  PHE194     -0.0003
     93  CE2       51.7570    8.6180   10.8270 C.ar  194  PHE194     -0.0003
     94  CZ        51.3470    9.9220   10.9620 C.ar  194  PHE194     -0.0000
     95  N         53.0010    9.9460    2.9760 N.3   217  ILE217     -0.1245
     96  CA        53.5170    8.8330    3.7580 C.3   217  ILE217      0.1561
     97  C         53.2180    7.5070    3.0760 C.2   217  ILE217      0.2260
     98  O         52.1850    7.3520    2.4210 O.2   217  ILE217     -0.2867
     99  CB        52.9730    8.8330    5.2030 C.3   217  ILE217      0.0252
    100  CG1       51.4580    8.6050    5.2320 C.3   217  ILE217      0.0019
    101  CG2       53.3480   10.1410    5.9030 C.3   217  ILE217      0.0019
    102  CD1       50.9140    8.3050    6.6310 C.3   217  ILE217      0.0001
    103  N         51.9410    4.1550    3.7280 N.3   219  ASP219     -0.1239
    104  CA        51.0780    3.6670    4.8060 C.3   219  ASP219      0.1674
    105  C         50.3140    2.3990    4.4270 C.2   219  ASP219      0.2266
    106  O         49.2420    2.4610    3.8110 O.2   219  ASP219     -0.2867
    107  CB        50.0860    4.7570    5.2070 C.3   219  ASP219      0.1410
    108  CG        49.2720    4.3960    6.4330 C.2   219  ASP219      0.3668
    109  OD1       48.4570    5.2370    6.8570 O.co2 219  ASP219     -0.2456
    110  OD2       49.4380    3.2800    6.9760 O.co2 219  ASP219     -0.2456
    111  N         48.6210    0.6410    6.2630 N.3   221  GLY221     -0.1210
    112  CA        47.3950    0.5430    7.0390 C.3   221  GLY221      0.1956
    113  C         46.2430    1.3860    6.5230 C.2   221  GLY221      0.2613
    114  O         45.1580    1.3730    7.0960 O.2   221  GLY221     -0.2717
    115  N         46.4800    2.1270    5.4470 N.am  222  THR222     -0.1938
    116  CA        45.4310    2.9150    4.8040 C.3   222  THR222      0.2028
    117  C         45.1010    2.2580    3.4680 C.2   222  THR222      0.2642
    118  O         46.0010    1.8940    2.7060 O.2   222  THR222     -0.2714
    119  CB        45.8760    4.3800    4.5930 C.3   222  THR222      0.1808
    120  OG1       45.9640    5.0550    5.8580 O.3   222  THR222     -0.2208
    121  CG2       44.8900    5.1320    3.7100 C.3   222  THR222      0.0379
    122  N         43.8120    2.1020    3.1850 N.am  223  THR223     -0.1950
    123  CA        43.3730    1.3640    2.0090 C.3   223  THR223      0.1897
    124  C         43.6620    2.1000    0.7090 C.2   223  THR223      0.2313
    125  O         44.1610    1.5130   -0.2570 O.2   223  THR223     -0.2863
    126  CB        41.8550    1.1270    2.0540 C.3   223  THR223      0.1794
    127  OG1       41.4750    0.6250    3.3400 O.3   223  THR223     -0.2208
    128  CG2       41.4260    0.1440    0.9700 C.3   223  THR223      0.0378
    129  N         45.4820    8.8510   -1.1470 N.3   226  TYR226     -0.1241
    130  CA        44.9740   10.1930   -0.8730 C.3   226  TYR226      0.1605
    131  C         45.9930   11.2240   -1.3320 C.2   226  TYR226      0.2264
    132  O         47.1260   11.2360   -0.8590 O.2   226  TYR226     -0.2867
    133  CB        44.6610   10.3700    0.6180 C.3   226  TYR226      0.0534
    134  CG        43.5370    9.4720    1.1000 C.ar  226  TYR226     -0.0201
    135  CD1       42.2190    9.8890    1.0290 C.ar  226  TYR226     -0.0009
    136  CD2       43.7910    8.2000    1.5870 C.ar  226  TYR226     -0.0009
    137  CE1       41.1880    9.0790    1.4420 C.ar  226  TYR226      0.0417
    138  CE2       42.7600    7.3760    2.0070 C.ar  226  TYR226      0.0417
    139  CZ        41.4580    7.8260    1.9250 C.ar  226  TYR226      0.1957
    140  OH        40.4220    7.0150    2.3280 O.3   226  TYR226     -0.2866
    141  N         41.1930   17.2520    3.3560 N.3   299  GLY299     -0.1210
    142  CA        40.7400   17.3060    4.7370 C.3   299  GLY299      0.1956
    143  C         41.6000   16.5220    5.7130 C.2   299  GLY299      0.2611
    144  O         41.3100   16.4880    6.9090 O.2   299  GLY299     -0.2717
    145  N         42.6610   15.8970    5.2130 N.am  300  ILE300     -0.1979
    146  CA        43.5140   15.0460    6.0410 C.3   300  ILE300      0.1595
    147  C         44.7100   15.7940    6.6120 C.2   300  ILE300      0.2287
    148  O         45.0810   15.5780    7.7630 O.2   300  ILE300     -0.2864
    149  CB        44.0390   13.8340    5.2440 C.3   300  ILE300      0.0276
    150  CG1       42.8710   12.9880    4.7480 C.3   300  ILE300      0.0022
    151  CG2       44.9770   12.9920    6.1070 C.3   300  ILE300      0.0022
    152  CD1       43.2900   11.8110    3.8860 C.3   300  ILE300      0.0001
    153  N         47.6910   15.5830    5.1830 N.3   302  ILE302     -0.1245
    154  CA        48.8630   14.8860    4.6750 C.3   302  ILE302      0.1561
    155  C         48.4180   13.9560    3.5520 C.2   302  ILE302      0.2260
    156  O         47.3120   13.4200    3.5840 O.2   302  ILE302     -0.2867
    157  CB        49.5820   14.0950    5.8040 C.3   302  ILE302      0.0252
    158  CG1       51.0170   13.7520    5.4070 C.3   302  ILE302      0.0019
    159  CG2       48.8050   12.8430    6.1730 C.3   302  ILE302      0.0019
    160  CD1       51.8810   13.3060    6.5830 C.3   302  ILE302      0.0001
    161  N         48.5920   10.4250    1.5390 N.3   304  ILE304     -0.1245
    162  CA        48.8010    9.0550    1.9890 C.3   304  ILE304      0.1561
    163  C         48.9030    8.1060    0.8050 C.2   304  ILE304      0.2260
    164  O         47.9310    7.8930    0.0840 O.2   304  ILE304     -0.2867
    165  CB        47.6730    8.5790    2.9340 C.3   304  ILE304      0.0252
    166  CG1       47.4820    9.5630    4.0830 C.3   304  ILE304      0.0019
    167  CG2       47.9860    7.1940    3.4950 C.3   304  ILE304      0.0019
    168  CD1       46.3260    9.2130    5.0020 C.3   304  ILE304      0.0001
@<TRIPOS>BOND
     1   131   130    1
     2   131   132    2
     3   129   130    1
     4   130   133    1
     5   125   124    2
     6   164   163    2
     7   133   134    1
     8   124   123    1
     9   163   162    1
    10   128   126    1
    11   135   134   ar
    12   135   137   ar
    13   134   136   ar
    14   137   139   ar
    15   161   162    1
    16   136   138   ar
    17   139   138   ar
    18   139   140    1
    19   162   165    1
    20   123   126    1
    21   123   122    1
    22   126   127    1
    23    98    97    2
    24   118   117    2
    25   165   167    1
    26   165   166    1
    27    95    96    1
    28    97    96    1
    29   122   117   am
    30   141   142    1
    31   117   116    1
    32   155   156    2
    33   155   154    1
    34   121   119    1
    35   103   104    1
    36    96    99    1
    37   106   105    2
    38   152   150    1
    39   166   168    1
    40   105   104    1
    41   119   116    1
    42   119   120    1
    43   154   153    1
    44   154   157    1
    45   142   143    1
    46   150   149    1
    47   116   115    1
    48   104   107    1
    49    99   100    1
    50    99   101    1
    51   107   108    1
    52   145   143   am
    53   145   146    1
    54   100   102    1
    55   149   146    1
    56   149   151    1
    57   158   157    1
    58   158   160    1
    59   115   113   am
    60   143   144    2
    61   157   159    1
    62   146   147    1
    63   111   112    1
    64   108   109   ar
    65   108   110   ar
    66   113   112    1
    67   113   114    2
    68   147   148    2
    69     7     6   ar
    70    86    87    2
    71    86    85    1
    72    88    89    1
    73    88    85    1
    74    17    18    1
    75     8     6   ar
    76     6     5    1
    77    75    73    1
    78    15    14   ar
    79    89    90   ar
    80    89    91   ar
    81    85    84    1
    82    18    19    1
    83    10    11    1
    84    10     9    1
    85    10    13    1
    86    90    92   ar
    87    11    12    2
    88    73    72    1
    89    91    93   ar
    90     2     5    1
    91     2     3    1
    92     2     1    1
    93    47    44    1
    94    47    48    1
    95     3     4    2
    96    92    94   ar
    97    42    41    2
    98    14    13    1
    99    14    16   ar
   100    44    43    1
   101    44    45    1
   102    93    94   ar
   103    41    43   am
   104    41    40    1
   105    19    20    2
   106    19    21   am
   107    40    39    1
   108    50    48   ar
   109    48    49   ar
   110    68    69    1
   111    72    69    1
   112    72    74    1
   113    21    22    1
   114    39    29   am
   115    69    70    1
   116    45    46    2
   117    29    30    2
   118    29    28    1
   119    31    28    1
   120    31    32    1
   121    22    25    1
   122    22    23    1
   123    24    23    2
   124    81    83    1
   125    81    82    1
   126    81    80    1
   127    70    71    2
   128    26    25    1
   129    34    32   ar
   130    34    36   ar
   131    28    27    1
   132    32    33   ar
   133    56    55    1
   134    65    63   ar
   135    65    67   ar
   136    36    37   ar
   137    55    52    1
   138    77    80    1
   139    77    78    1
   140    77    76    1
   141    63    62   ar
   142    57    58    1
   143    51    52    1
   144    60    59    2
   145    67    66   ar
   146    33    35   ar
   147    58    59    1
   148    58    61    1
   149    78    79    2
   150    37    35   ar
   151    37    38    1
   152    52    53    1
   153    62    61    1
   154    62    64   ar
   155    66    64   ar
   156    54    53    2
