@<TRIPOS>MOLECULE
tmp/3wz6A02.pdb
 75 69 0 0 0
SMALL
GASTEIGER

@<TRIPOS>ATOM
      1  N         66.2170  -13.5270    9.7990 N.3     2  THR2       -0.1218
      2  CA        65.2170  -13.0040    8.8810 C.3     2  THR2        0.1862
      3  C         63.8570  -13.5840    9.2460 C.2     2  THR2        0.2287
      4  O         63.7520  -14.5490   10.0120 O.2     2  THR2       -0.2866
      5  CB        65.5090  -13.3910    7.4150 C.3     2  THR2        0.1770
      6  OG1       65.4820  -14.8170    7.2750 O.3     2  THR2       -0.2211
      7  CG2       66.8650  -12.8590    6.9600 C.3     2  THR2        0.0375
      8  N         59.7380  -14.0910    7.2090 N.3     4  SER4       -0.1217
      9  CA        58.8760  -13.8890    6.0600 C.3     4  SER4        0.1889
     10  C         57.4930  -14.3920    6.4270 C.2     4  SER4        0.2288
     11  O         57.3560  -15.4500    7.0360 O.2     4  SER4       -0.2866
     12  CB        59.4090  -14.6520    4.8430 C.3     4  SER4        0.2089
     13  OG        58.5750  -14.4700    3.7090 O.3     4  SER4       -0.2183
     14  N         55.1480   -6.3440   -0.0330 N.3   160  ASP160     -0.1239
     15  CA        54.8350   -6.7830   -1.3850 C.3   160  ASP160      0.1674
     16  C         53.3610   -7.1830   -1.3720 C.2   160  ASP160      0.2266
     17  O         53.0150   -8.3590   -1.2650 O.2   160  ASP160     -0.2867
     18  CB        55.7530   -7.9540   -1.7620 C.3   160  ASP160      0.1410
     19  CG        55.4780   -8.5180   -3.1430 C.2   160  ASP160      0.3668
     20  OD1       56.0810   -9.5700   -3.4640 O.co2 160  ASP160     -0.2456
     21  OD2       54.6570   -7.9530   -3.9020 O.co2 160  ASP160     -0.2456
     22  N         53.4600  -10.6160    0.5110 N.3   168  THR168     -0.1218
     23  CA        54.5230  -10.9950    1.4290 C.3   168  THR168      0.1862
     24  C         55.1060   -9.8010    2.1790 C.2   168  THR168      0.2287
     25  O         55.3410   -8.7370    1.5930 O.2   168  THR168     -0.2866
     26  CB        55.6760  -11.6740    0.6640 C.3   168  THR168      0.1770
     27  OG1       55.1700  -12.7800   -0.0940 O.3   168  THR168     -0.2211
     28  CG2       56.7500  -12.1660    1.6220 C.3   168  THR168      0.0375
     29  N         58.6030   -9.3330    4.2310 N.3   170  ASN170     -0.1240
     30  CA        59.8940   -9.8940    4.6170 C.3   170  ASN170      0.1653
     31  C         60.6090   -8.9690    5.5780 C.2   170  ASN170      0.2266
     32  O         60.5590   -7.7550    5.4300 O.2   170  ASN170     -0.2867
     33  CB        60.7820  -10.1290    3.4000 C.3   170  ASN170      0.1155
     34  CG        60.2650  -11.2230    2.5020 C.2   170  ASN170      0.2627
     35  OD1       59.6790  -12.2040    2.9640 O.2   170  ASN170     -0.2716
     36  ND2       60.4830  -11.0660    1.2000 N.am  170  ASN170     -0.0877
     37  N         65.8250   -8.9430    4.8180 N.3   173  PHE173     -0.1227
     38  CA        66.4210   -9.2160    3.5240 C.3   173  PHE173      0.1736
     39  C         65.5540   -8.7060    2.3900 C.2   173  PHE173      0.2595
     40  O         64.3490   -8.5070    2.5460 O.2   173  PHE173     -0.2718
     41  CB        66.6790  -10.7140    3.3410 C.3   173  PHE173      0.0547
     42  CG        65.4320  -11.5350    3.1310 C.ar  173  PHE173     -0.0202
     43  CD1       65.0950  -12.0080    1.8720 C.ar  173  PHE173     -0.0042
     44  CD2       64.6070  -11.8520    4.1930 C.ar  173  PHE173     -0.0042
     45  CE1       63.9580  -12.7710    1.6810 C.ar  173  PHE173     -0.0003
     46  CE2       63.4720  -12.6200    4.0060 C.ar  173  PHE173     -0.0003
     47  CZ        63.1490  -13.0800    2.7540 C.ar  173  PHE173     -0.0000
     48  N         66.2050   -8.5000    1.2500 N.am  174  ILE174     -0.1966
     49  CA        65.5120   -8.1080    0.0410 C.3   174  ILE174      0.1727
     50  C         65.4830   -9.2860   -0.9290 C.2   174  ILE174      0.2616
     51  O         66.5230   -9.8170   -1.3390 O.2   174  ILE174     -0.2715
     52  CB        66.1560   -6.8570   -0.5820 C.3   174  ILE174      0.0290
     53  CG1       65.8020   -5.6310    0.2670 C.3   174  ILE174      0.0022
     54  CG2       65.6820   -6.6620   -2.0100 C.3   174  ILE174      0.0023
     55  CD1       66.6960   -4.4330    0.0500 C.3   174  ILE174      0.0001
     56  N         64.2730   -9.7220   -1.2620 N.am  175  ASP175     -0.1971
     57  CA        64.0940  -10.8050   -2.2140 C.3   175  ASP175      0.1709
     58  C         64.1900  -10.2340   -3.6260 C.2   175  ASP175      0.2293
     59  O         63.2390   -9.6490   -4.1500 O.2   175  ASP175     -0.2864
     60  CB        62.7490  -11.4980   -1.9760 C.3   175  ASP175      0.1436
     61  CG        62.4490  -12.5680   -2.9950 C.2   175  ASP175      0.3671
     62  OD1       61.3190  -13.1100   -2.9680 O.co2 175  ASP175     -0.2456
     63  OD2       63.3320  -12.8550   -3.8390 O.co2 175  ASP175     -0.2456
     64  N         64.1160  -11.5260   -6.3740 N.3   177  THR177     -0.1203
     65  CA        63.2570  -12.1630   -7.3760 C.3   177  THR177      0.1994
     66  C         61.8140  -11.6440   -7.3460 C.2   177  THR177      0.2617
     67  O         60.9950  -12.0400   -8.1710 O.2   177  THR177     -0.2717
     68  CB        63.2110  -13.7060   -7.2210 C.3   177  THR177      0.1784
     69  OG1       62.3790  -14.0730   -6.1090 O.3   177  THR177     -0.2211
     70  CG2       64.6110  -14.2800   -7.0320 C.3   177  THR177      0.0376
     71  N         61.5160  -10.7480   -6.4070 N.am  178  ALA178     -0.1979
     72  CA        60.1470  -10.3010   -6.1660 C.3   178  ALA178      0.1597
     73  C         59.7610   -9.0400   -6.9410 C.2   178  ALA178      0.2287
     74  O         58.6260   -8.5800   -6.8380 O.2   178  ALA178     -0.2864
     75  CB        59.9390  -10.0670   -4.6800 C.3   178  ALA178      0.0319
@<TRIPOS>BOND
     1    67    66    2
     2    65    66    1
     3    65    68    1
     4    65    64    1
     5    66    71   am
     6    68    70    1
     7    68    69    1
     8    73    74    2
     9    73    72    1
    10    71    72    1
    11    72    75    1
    12    59    58    2
    13    21    19   ar
    14    63    61   ar
    15    58    57    1
    16    20    19   ar
    17    19    18    1
    18    61    62   ar
    19    61    60    1
    20    57    60    1
    21    57    56    1
    22    54    52    1
    23    18    15    1
    24    15    16    1
    25    15    14    1
    26    16    17    2
    27    51    50    2
    28    56    50   am
    29    50    49    1
    30    52    49    1
    31    52    53    1
    32    27    26    1
    33    49    48    1
    34    55    53    1
    35    22    23    1
    36    26    23    1
    37    26    28    1
    38    36    34   am
    39    48    39   am
    40    23    24    1
    41    25    24    2
    42    45    43   ar
    43    45    47   ar
    44    43    42   ar
    45    39    40    2
    46    39    38    1
    47    34    35    2
    48    34    33    1
    49    47    46   ar
    50    42    41    1
    51    42    44   ar
    52    41    38    1
    53    33    30    1
    54    38    37    1
    55    13    12    1
    56    46    44   ar
    57    29    30    1
    58    30    31    1
    59    12     9    1
    60    32    31    2
    61     9    10    1
    62     9     8    1
    63    10    11    2
    64     7     5    1
    65     6     5    1
    66     5     2    1
    67     2     3    1
    68     2     1    1
    69     3     4    2
