@<TRIPOS>MOLECULE
tmp/3wz6A04.pdb
 83 75 0 0 0
SMALL
GASTEIGER

@<TRIPOS>ATOM
      1  N         41.6610   -9.0050    3.3680 N.3    10  ILE10      -0.1231
      2  CA        40.5820   -9.4290    4.2630 C.3    10  ILE10       0.1692
      3  C         39.2620   -9.6440    3.5340 C.2    10  ILE10       0.2592
      4  O         38.3670  -10.3240    4.0500 O.2    10  ILE10      -0.2718
      5  CB        40.3510   -8.4380    5.4110 C.3    10  ILE10       0.0266
      6  CG1       39.9330   -7.0620    4.8770 C.3    10  ILE10       0.0019
      7  CG2       41.6060   -8.3300    6.2690 C.3    10  ILE10       0.0020
      8  CD1       39.2630   -6.1980    5.9140 C.3    10  ILE10       0.0001
      9  N         39.1500   -9.0750    2.3370 N.am   11  ASP11      -0.1974
     10  CA        37.9210   -9.1620    1.5670 C.3    11  ASP11       0.1709
     11  C         38.2190   -8.9660    0.0780 C.2    11  ASP11       0.2293
     12  O         39.3690   -8.7810   -0.3120 O.2    11  ASP11      -0.2864
     13  CB        36.8800   -8.1580    2.1000 C.3    11  ASP11       0.1436
     14  CG        37.3110   -6.7080    1.9590 C.2    11  ASP11       0.3671
     15  OD1       36.7930   -5.8600    2.7260 O.co2  11  ASP11      -0.2456
     16  OD2       38.1530   -6.4070    1.0920 O.co2  11  ASP11      -0.2456
     17  N         40.4070   -4.2860    1.1910 N.3    15  ASP15      -0.1225
     18  CA        40.2010   -3.1790    2.1160 C.3    15  ASP15       0.1805
     19  C         41.3230   -3.0840    3.1430 C.2    15  ASP15       0.2597
     20  O         41.6130   -2.0050    3.6660 O.2    15  ASP15      -0.2718
     21  CB        38.8500   -3.3110    2.8110 C.3    15  ASP15       0.1424
     22  CG        37.7050   -2.8840    1.9160 C.2    15  ASP15       0.3668
     23  OD1       37.8730   -1.8790    1.1910 O.co2  15  ASP15      -0.2456
     24  OD2       36.6500   -3.5530    1.9290 O.co2  15  ASP15      -0.2456
     25  N         41.9530   -4.2180    3.4230 N.am   16  ALA16      -0.1979
     26  CA        43.0900   -4.2900    4.3220 C.3    16  ALA16       0.1597
     27  C         43.7310   -5.6570    4.1410 C.2    16  ALA16       0.2287
     28  O         43.1690   -6.5250    3.4690 O.2    16  ALA16      -0.2864
     29  CB        42.6580   -4.0870    5.7710 C.3    16  ALA16       0.0319
     30  N         46.8860   -6.5310   11.2880 N.3    33  ASP33      -0.1239
     31  CA        47.0030   -5.5700   10.2030 C.3    33  ASP33       0.1674
     32  C         48.3400   -4.8530   10.3690 C.2    33  ASP33       0.2266
     33  O         48.4950   -3.9960   11.2480 O.2    33  ASP33      -0.2867
     34  CB        45.8210   -4.5980   10.3200 C.3    33  ASP33       0.1410
     35  CG        45.7280   -3.6060    9.1880 C.2    33  ASP33       0.3668
     36  OD1       46.6710   -3.4820    8.3950 O.co2  33  ASP33      -0.2456
     37  OD2       44.6670   -2.9350    9.1150 O.co2  33  ASP33      -0.2456
     38  N         39.4490    7.7540   10.9900 N.3    81  ASP81      -0.1239
     39  CA        38.0380    7.4400   10.7730 C.3    81  ASP81       0.1674
     40  C         37.2230    7.6470   12.0450 C.2    81  ASP81       0.2266
     41  O         36.0320    7.3360   12.0870 O.2    81  ASP81      -0.2867
     42  CB        37.8770    6.0010   10.2800 C.3    81  ASP81       0.1410
     43  CG        38.4530    4.9860   11.2470 C.2    81  ASP81       0.3668
     44  OD1       39.2650    5.3850   12.1060 O.co2  81  ASP81      -0.2456
     45  OD2       38.0990    3.7910   11.1420 O.co2  81  ASP81      -0.2456
     46  N         36.0990   -1.5380   14.6950 N.3   116  PHE116     -0.1241
     47  CA        36.9340   -2.7110   14.9310 C.3   116  PHE116      0.1605
     48  C         36.0810   -3.9250   15.2800 C.2   116  PHE116      0.2264
     49  O         36.2880   -5.0100   14.7460 O.2   116  PHE116     -0.2867
     50  CB        37.9600   -2.4270   16.0270 C.3   116  PHE116      0.0534
     51  CG        39.0450   -1.4950   15.5930 C.ar  116  PHE116     -0.0203
     52  CD1       39.9830   -1.9010   14.6610 C.ar  116  PHE116     -0.0042
     53  CD2       39.1210   -0.2050   16.0940 C.ar  116  PHE116     -0.0042
     54  CE1       40.9780   -1.0430   14.2390 C.ar  116  PHE116     -0.0003
     55  CE2       40.1220    0.6500   15.6830 C.ar  116  PHE116     -0.0003
     56  CZ        41.0510    0.2320   14.7610 C.ar  116  PHE116     -0.0000
     57  N         34.5290   -5.4970   12.2690 N.3   119  ASP119     -0.1239
     58  CA        35.4300   -6.1870   11.3570 C.3   119  ASP119      0.1674
     59  C         36.0180   -7.4290   12.0240 C.2   119  ASP119      0.2266
     60  O         37.0330   -7.3600   12.7240 O.2   119  ASP119     -0.2867
     61  CB        36.5370   -5.2540   10.8990 C.3   119  ASP119      0.1410
     62  CG        37.4890   -5.9250    9.9490 C.2   119  ASP119      0.3668
     63  OD1       37.1600   -7.0340    9.4660 O.co2 119  ASP119     -0.2456
     64  OD2       38.5610   -5.3470    9.6810 O.co2 119  ASP119     -0.2456
     65  N         40.0950   -8.7740   11.5280 N.3   122  ILE122     -0.1245
     66  CA        41.3090   -8.1270   12.0220 C.3   122  ILE122      0.1561
     67  C         41.3600   -8.2580   13.5410 C.2   122  ILE122      0.2260
     68  O         40.4850   -7.7550   14.2460 O.2   122  ILE122     -0.2867
     69  CB        41.3810   -6.6600   11.5500 C.3   122  ILE122      0.0252
     70  CG1       41.6350   -6.6260   10.0410 C.3   122  ILE122      0.0019
     71  CG2       42.5030   -5.9050   12.2560 C.3   122  ILE122      0.0019
     72  CD1       41.6800   -5.2450    9.4330 C.3   122  ILE122      0.0001
     73  N         48.6210    0.6410    6.2630 N.3   221  GLY221     -0.1225
     74  CA        47.3950    0.5430    7.0390 C.3   221  GLY221      0.1811
     75  C         46.2430    1.3860    6.5230 C.2   221  GLY221      0.2280
     76  O         45.1580    1.3730    7.0960 O.2   221  GLY221     -0.2866
     77  N         43.8120    2.1020    3.1850 N.3   223  THR223     -0.1218
     78  CA        43.3730    1.3640    2.0090 C.3   223  THR223      0.1862
     79  C         43.6620    2.1000    0.7090 C.2   223  THR223      0.2287
     80  O         44.1610    1.5130   -0.2570 O.2   223  THR223     -0.2866
     81  CB        41.8550    1.1270    2.0540 C.3   223  THR223      0.1770
     82  OG1       41.4750    0.6250    3.3400 O.3   223  THR223     -0.2211
     83  CG2       41.4260    0.1440    0.9700 C.3   223  THR223      0.0375
@<TRIPOS>BOND
     1    12    11    2
     2    80    79    2
     3    11    10    1
     4    79    78    1
     5    83    81    1
     6    16    14   ar
     7    23    22   ar
     8    17    18    1
     9    10    13    1
    10    10     9    1
    11    22    24   ar
    12    22    21    1
    13    14    13    1
    14    14    15   ar
    15    78    81    1
    16    78    77    1
    17    81    82    1
    18    18    21    1
    19    18    19    1
    20     9     3   am
    21    19    25   am
    22    19    20    2
    23     1     2    1
    24    25    26    1
    25    28    27    2
    26     3     4    2
    27     3     2    1
    28    27    26    1
    29     2     5    1
    30    26    29    1
    31     6     5    1
    32     6     8    1
    33     5     7    1
    34    73    74    1
    35    75    74    1
    36    75    76    2
    37    36    35   ar
    38    37    35   ar
    39    35    34    1
    40    72    70    1
    41    63    62   ar
    42    64    62   ar
    43    62    61    1
    44    70    69    1
    45    31    34    1
    46    31    32    1
    47    31    30    1
    48    42    39    1
    49    42    43    1
    50    32    33    2
    51    39    38    1
    52    39    40    1
    53    61    58    1
    54    45    43   ar
    55    43    44   ar
    56    58    59    1
    57    58    57    1
    58    65    66    1
    59    69    66    1
    60    69    71    1
    61    66    67    1
    62    59    60    2
    63    40    41    2
    64    67    68    2
    65    54    52   ar
    66    54    56   ar
    67    52    51   ar
    68    46    47    1
    69    49    48    2
    70    56    55   ar
    71    47    48    1
    72    47    50    1
    73    51    50    1
    74    51    53   ar
    75    55    53   ar
