@<TRIPOS>MOLECULE
tmp/3wz7A00.pdb
 174 161 0 0 0
SMALL
GASTEIGER

@<TRIPOS>ATOM
      1  N         41.6310   -4.2140    3.3000 N.3    16  ALA16      -0.1245
      2  CA        42.7230   -4.3560    4.2730 C.3    16  ALA16       0.1562
      3  C         43.3910   -5.7130    4.1040 C.2    16  ALA16       0.2260
      4  O         42.8140   -6.6150    3.4980 O.2    16  ALA16      -0.2867
      5  CB        42.2060   -4.2000    5.7060 C.3    16  ALA16       0.0290
      6  N         46.6910   -6.6570   11.1180 N.3    33  ASP33      -0.1239
      7  CA        46.8290   -5.7150   10.0300 C.3    33  ASP33       0.1674
      8  C         48.1920   -5.0210   10.1660 C.2    33  ASP33       0.2266
      9  O         48.3620   -4.1340   11.0050 O.2    33  ASP33      -0.2867
     10  CB        45.6870   -4.7010   10.1210 C.3    33  ASP33       0.1410
     11  CG        45.5440   -3.8740    8.8780 C.2    33  ASP33       0.3668
     12  OD1       46.5390   -3.7490    8.1280 O.co2  33  ASP33      -0.2456
     13  OD2       44.4340   -3.3390    8.6530 O.co2  33  ASP33      -0.2456
     14  N         50.7220   -2.3770    9.7100 N.3    35  ASP35      -0.1239
     15  CA        50.3410   -0.9820    9.4670 C.3    35  ASP35       0.1674
     16  C         51.5370   -0.0430    9.5370 C.2    35  ASP35       0.2266
     17  O         51.9770    0.3250   10.6250 O.2    35  ASP35      -0.2867
     18  CB        49.2680   -0.5730   10.4930 C.3    35  ASP35       0.1410
     19  CG        48.8170    0.8830   10.3640 C.2    35  ASP35       0.3668
     20  OD1       49.2780    1.6130    9.4660 O.co2  35  ASP35      -0.2456
     21  OD2       47.9540    1.2930   11.1740 O.co2  35  ASP35      -0.2456
     22  N         51.5350    2.9200    9.0620 N.3    37  GLY37      -0.1225
     23  CA        51.0240    4.2360    9.3980 C.3    37  GLY37       0.1811
     24  C         50.7490    4.4550   10.8790 C.2    37  GLY37       0.2280
     25  O         50.2000    5.4970   11.2680 O.2    37  GLY37      -0.2866
     26  N         42.7260    6.8410   15.3000 N.3    79  TYR79      -0.1227
     27  CA        43.1530    7.0600   13.9330 C.3    79  TYR79       0.1736
     28  C         42.2630    8.1500   13.3510 C.2    79  TYR79       0.2596
     29  O         41.1530    8.3690   13.8290 O.2    79  TYR79      -0.2718
     30  CB        43.0650    5.7480   13.1580 C.3    79  TYR79       0.0548
     31  CG        43.7760    4.6020   13.8700 C.ar   79  TYR79      -0.0200
     32  CD1       43.0960    3.7730   14.7630 C.ar   79  TYR79      -0.0009
     33  CD2       45.1280    4.3560   13.6540 C.ar   79  TYR79      -0.0009
     34  CE1       43.7540    2.7260   15.4190 C.ar   79  TYR79       0.0417
     35  CE2       45.7950    3.3110   14.3100 C.ar   79  TYR79       0.0417
     36  CZ        45.1030    2.5010   15.1800 C.ar   79  TYR79       0.1957
     37  OH        45.7740    1.4760   15.8180 O.3    79  TYR79      -0.2866
     38  N         42.7560    8.8610   12.3490 N.am   80  GLY80      -0.1942
     39  CA        42.0140    9.9880   11.8130 C.3    80  GLY80       0.2014
     40  C         40.9070    9.5910   10.8570 C.2    80  GLY80       0.2638
     41  O         40.8350   10.1070    9.7410 O.2    80  GLY80      -0.2714
     42  N         40.0540    8.6660   11.2970 N.am   81  ASP81      -0.1971
     43  CA        38.9160    8.2110   10.5080 C.3    81  ASP81       0.1709
     44  C         37.7310    7.9950   11.4260 C.2    81  ASP81       0.2293
     45  O         36.6130    7.7450   10.9740 O.2    81  ASP81      -0.2864
     46  CB        39.2400    6.9090    9.7590 C.3    81  ASP81       0.1436
     47  CG        39.2640    5.6860   10.6690 C.2    81  ASP81       0.3671
     48  OD1       39.8400    5.7670   11.7760 O.co2  81  ASP81      -0.2456
     49  OD2       38.7060    4.6320   10.2680 O.co2  81  ASP81      -0.2456
     50  N         37.8950    5.7400   14.1320 N.3    83  SER83      -0.1217
     51  CA        38.1380    4.5150   14.8820 C.3    83  SER83       0.1889
     52  C         39.2260    4.7020   15.9300 C.2    83  SER83       0.2288
     53  O         40.0830    5.5820   15.8050 O.2    83  SER83      -0.2866
     54  CB        38.4690    3.3490   13.9470 C.3    83  SER83       0.2089
     55  OG        39.7190    3.5220   13.3170 O.3    83  SER83      -0.2183
     56  N         34.2420    0.3720   13.9550 N.3   115  SER115     -0.1202
     57  CA        34.9810   -0.0650   12.7710 C.3   115  SER115      0.2020
     58  C         35.6800   -1.4020   12.9660 C.2   115  SER115      0.2618
     59  O         35.6620   -2.2500   12.0780 O.2   115  SER115     -0.2717
     60  CB        36.0110    0.9850   12.3590 C.3   115  SER115      0.2103
     61  OG        36.9900    0.4110   11.5160 O.3   115  SER115     -0.2182
     62  N         36.2940   -1.5910   14.1340 N.am  116  PHE116     -0.1975
     63  CA        37.0250   -2.8250   14.4040 C.3   116  PHE116      0.1639
     64  C         36.1230   -4.0050   14.7960 C.2   116  PHE116      0.2290
     65  O         36.3500   -5.1310   14.3410 O.2   116  PHE116     -0.2864
     66  CB        38.0780   -2.5990   15.4820 C.3   116  PHE116      0.0560
     67  CG        39.0690   -1.5330   15.1460 C.ar  116  PHE116     -0.0200
     68  CD1       40.0170   -1.7330   14.1480 C.ar  116  PHE116     -0.0042
     69  CD2       39.0740   -0.3380   15.8490 C.ar  116  PHE116     -0.0042
     70  CE1       40.9470   -0.7480   13.8480 C.ar  116  PHE116     -0.0003
     71  CE2       39.9920    0.6590   15.5540 C.ar  116  PHE116     -0.0003
     72  CZ        40.9340    0.4550   14.5490 C.ar  116  PHE116     -0.0000
     73  N         34.7670   -5.5480   11.6800 N.3   119  ASP119     -0.1239
     74  CA        35.6980   -6.3330   10.8650 C.3   119  ASP119      0.1674
     75  C         36.1420   -7.6120   11.5890 C.2   119  ASP119      0.2266
     76  O         37.1430   -7.6040   12.3110 O.2   119  ASP119     -0.2867
     77  CB        36.9260   -5.4950   10.4870 C.3   119  ASP119      0.1410
     78  CG        36.5760   -4.2960    9.6200 C.2   119  ASP119      0.3668
     79  OD1       35.4290   -3.8120    9.7070 O.co2 119  ASP119     -0.2456
     80  OD2       37.4520   -3.8250    8.8610 O.co2 119  ASP119     -0.2456
     81  N         39.8870   -9.1060   11.2770 N.3   122  ILE122     -0.1245
     82  CA        41.0630   -8.4400   11.8300 C.3   122  ILE122      0.1561
     83  C         41.1420   -8.5640   13.3670 C.2   122  ILE122      0.2260
     84  O         40.2730   -8.0570   14.0890 O.2   122  ILE122     -0.2867
     85  CB        41.0900   -6.9590   11.3770 C.3   122  ILE122      0.0252
     86  CG1       41.1680   -6.8840    9.8460 C.3   122  ILE122      0.0019
     87  CG2       42.2230   -6.1820   12.0550 C.3   122  ILE122      0.0019
     88  CD1       41.0770   -5.4960    9.2750 C.3   122  ILE122      0.0001
     89  N         46.2050   -4.7900   15.1850 N.3   125  LEU125     -0.1245
     90  CA        47.1530   -4.0980   14.3170 C.3   125  LEU125      0.1561
     91  C         48.5840   -4.4100   14.7620 C.2   125  LEU125      0.2260
     92  O         48.8540   -4.5510   15.9600 O.2   125  LEU125     -0.2867
     93  CB        46.9340   -2.5700   14.3570 C.3   125  LEU125      0.0270
     94  CG        45.7850   -1.8440   13.6260 C.3   125  LEU125      0.0019
     95  CD1       46.2500   -1.2510   12.3140 C.3   125  LEU125      0.0001
     96  CD2       44.5850   -2.7370   13.3730 C.3   125  LEU125      0.0001
     97  N         56.3270    9.0410   10.5210 N.3   194  PHE194     -0.1241
     98  CA        55.8780    8.2080    9.4120 C.3   194  PHE194      0.1605
     99  C         56.9890    7.9400    8.4270 C.2   194  PHE194      0.2264
    100  O         58.0110    8.6280    8.4340 O.2   194  PHE194     -0.2867
    101  CB        54.7620    8.8840    8.6140 C.3   194  PHE194      0.0534
    102  CG        53.5450    9.2280    9.4080 C.ar  194  PHE194     -0.0203
    103  CD1       53.1500   10.5480    9.5290 C.ar  194  PHE194     -0.0042
    104  CD2       52.7770    8.2390   10.0060 C.ar  194  PHE194     -0.0042
    105  CE1       52.0220   10.8840   10.2410 C.ar  194  PHE194     -0.0003
    106  CE2       51.6460    8.5680   10.7260 C.ar  194  PHE194     -0.0003
    107  CZ        51.2670    9.9010   10.8390 C.ar  194  PHE194     -0.0000
    108  N         52.8480    9.9340    2.9170 N.3   217  ILE217     -0.1245
    109  CA        53.3750    8.8210    3.7110 C.3   217  ILE217      0.1561
    110  C         53.1010    7.4670    3.0600 C.2   217  ILE217      0.2260
    111  O         52.0340    7.2600    2.4570 O.2   217  ILE217     -0.2867
    112  CB        52.8060    8.8410    5.1390 C.3   217  ILE217      0.0252
    113  CG1       51.2730    8.7310    5.1040 C.3   217  ILE217      0.0019
    114  CG2       53.2250   10.1320    5.8330 C.3   217  ILE217      0.0019
    115  CD1       50.6230    8.3560    6.4340 C.3   217  ILE217      0.0001
    116  N         51.8980    4.1190    3.5530 N.3   219  ASP219     -0.1239
    117  CA        51.0600    3.6360    4.6420 C.3   219  ASP219      0.1674
    118  C         50.2570    2.3740    4.2930 C.2   219  ASP219      0.2266
    119  O         49.2010    2.4680    3.6860 O.2   219  ASP219     -0.2867
    120  CB        50.1180    4.7690    5.0830 C.3   219  ASP219      0.1410
    121  CG        49.2240    4.3810    6.2480 C.2   219  ASP219      0.3668
    122  OD1       48.3210    5.1680    6.5710 O.co2 219  ASP219     -0.2456
    123  OD2       49.4080    3.2990    6.8440 O.co2 219  ASP219     -0.2456
    124  N         48.5500    0.7120    6.2550 N.3   221  GLY221     -0.1210
    125  CA        47.3900    0.6420    7.1230 C.3   221  GLY221      0.1956
    126  C         46.2210    1.4670    6.6190 C.2   221  GLY221      0.2612
    127  O         45.1880    1.5670    7.2880 O.2   221  GLY221     -0.2717
    128  N         46.3770    2.0490    5.4350 N.am  222  THR222     -0.1952
    129  CA        45.3220    2.8580    4.8290 C.3   222  THR222      0.1897
    130  C         44.9010    2.2670    3.4850 C.2   222  THR222      0.2313
    131  O         45.7360    1.9620    2.6490 O.2   222  THR222     -0.2863
    132  CB        45.7720    4.3290    4.6590 C.3   222  THR222      0.1794
    133  OG1       45.9080    4.9330    5.9520 O.3   222  THR222     -0.2208
    134  CG2       44.7440    5.1190    3.8730 C.3   222  THR222      0.0378
    135  N         45.2790    8.8480   -1.0990 N.3   226  TYR226     -0.1241
    136  CA        44.8050   10.2060   -0.8530 C.3   226  TYR226      0.1605
    137  C         45.8080   11.2300   -1.3720 C.2   226  TYR226      0.2264
    138  O         46.9390   11.3150   -0.8770 O.2   226  TYR226     -0.2867
    139  CB        44.5090   10.4040    0.6440 C.3   226  TYR226      0.0534
    140  CG        43.3810    9.5110    1.1210 C.ar  226  TYR226     -0.0201
    141  CD1       42.0650    9.9300    1.0320 C.ar  226  TYR226     -0.0009
    142  CD2       43.6350    8.2360    1.6200 C.ar  226  TYR226     -0.0009
    143  CE1       41.0310    9.1240    1.4350 C.ar  226  TYR226      0.0417
    144  CE2       42.6060    7.4190    2.0360 C.ar  226  TYR226      0.0417
    145  CZ        41.3010    7.8670    1.9330 C.ar  226  TYR226      0.1957
    146  OH        40.2530    7.0730    2.3310 O.3   226  TYR226     -0.2866
    147  N         42.6870   16.2260    5.4940 N.3   300  ILE300     -0.1231
    148  CA        43.4930   15.2050    6.1460 C.3   300  ILE300      0.1692
    149  C         44.7810   15.8860    6.6360 C.2   300  ILE300      0.2593
    150  O         45.2380   15.6490    7.7650 O.2   300  ILE300     -0.2718
    151  CB        43.7920   14.0230    5.2020 C.3   300  ILE300      0.0266
    152  CG1       42.5050   13.2590    4.8860 C.3   300  ILE300      0.0019
    153  CG2       44.7820   13.0680    5.8270 C.3   300  ILE300      0.0020
    154  CD1       42.7240   11.9800    4.0930 C.3   300  ILE300      0.0001
    155  N         45.3520   16.7600    5.8100 N.am  301  GLY301     -0.1942
    156  CA        46.5480   17.4890    6.2120 C.3   301  GLY301      0.2014
    157  C         47.8410   16.8740    5.7090 C.2   301  GLY301      0.2638
    158  O         48.9270   17.4800    5.8020 O.2   301  GLY301     -0.2714
    159  N         47.7340   15.6640    5.1730 N.am  302  ILE302     -0.1977
    160  CA        48.8750   15.0070    4.5540 C.3   302  ILE302      0.1596
    161  C         48.3620   14.0420    3.4960 C.2   302  ILE302      0.2287
    162  O         47.2680   13.4830    3.6310 O.2   302  ILE302     -0.2864
    163  CB        49.7510   14.2660    5.5990 C.3   302  ILE302      0.0276
    164  CG1       51.0480   13.7520    4.9660 C.3   302  ILE302      0.0022
    165  CG2       49.0000   13.1030    6.1890 C.3   302  ILE302      0.0022
    166  CD1       52.3070   14.3510    5.5600 C.3   302  ILE302      0.0001
    167  N         48.3560   10.5150    1.4590 N.3   304  ILE304     -0.1245
    168  CA        48.5770    9.1440    1.9260 C.3   304  ILE304      0.1561
    169  C         48.6610    8.1220    0.7940 C.2   304  ILE304      0.2260
    170  O         47.6590    7.8120    0.1420 O.2   304  ILE304     -0.2867
    171  CB        47.4920    8.6810    2.9330 C.3   304  ILE304      0.0252
    172  CG1       47.4480    9.5950    4.1600 C.3   304  ILE304      0.0019
    173  CG2       47.7550    7.2600    3.3800 C.3   304  ILE304      0.0019
    174  CD1       46.4290    9.1510    5.2200 C.3   304  ILE304      0.0001
@<TRIPOS>BOND
     1   137   138    2
     2   137   136    1
     3   135   136    1
     4   136   139    1
     5   170   169    2
     6   139   140    1
     7   169   168    1
     8   141   140   ar
     9   141   143   ar
    10   140   142   ar
    11   143   145   ar
    12   167   168    1
    13   142   144   ar
    14   168   171    1
    15   145   144   ar
    16   145   146    1
    17   111   110    2
    18   131   130    2
    19   108   109    1
    20   171   173    1
    21   171   172    1
    22   110   109    1
    23     1     2    1
    24   130   129    1
    25   161   162    2
    26   161   160    1
    27     4     3    2
    28   116   117    1
    29   119   118    2
    30   109   112    1
    31   134   132    1
    32   154   152    1
    33     3     2    1
    34   172   174    1
    35     2     5    1
    36   118   117    1
    37   160   159    1
    38   160   163    1
    39   117   120    1
    40   132   129    1
    41   132   133    1
    42   129   128    1
    43   152   151    1
    44   164   166    1
    45   164   163    1
    46   120   121    1
    47   113   112    1
    48   113   115    1
    49   112   114    1
    50   159   157   am
    51   151   153    1
    52   151   148    1
    53   128   126   am
    54   147   148    1
    55   163   165    1
    56   157   158    2
    57   157   156    1
    58   155   156    1
    59   155   149   am
    60   148   149    1
    61   121   122   ar
    62   121   123   ar
    63   124   125    1
    64   126   125    1
    65   126   127    2
    66   149   150    2
    67    12    11   ar
    68    99   100    2
    69    99    98    1
    70   101   102    1
    71   101    98    1
    72    13    11   ar
    73    80    78   ar
    74    11    10    1
    75    22    23    1
    76    88    86    1
    77    23    24    1
    78   102   103   ar
    79   102   104   ar
    80    98    97    1
    81    20    19   ar
    82    15    16    1
    83    15    14    1
    84    15    18    1
    85   103   105   ar
    86    16    17    2
    87    78    79   ar
    88    78    77    1
    89    41    40    2
    90    46    43    1
    91    46    47    1
    92    86    85    1
    93   104   106   ar
    94     7    10    1
    95     7     8    1
    96     7     6    1
    97     8     9    2
    98   105   107   ar
    99    49    47   ar
   100    19    18    1
   101    19    21   ar
   102    77    74    1
   103    43    42    1
   104    43    44    1
   105    47    48   ar
   106   106   107   ar
   107    40    42   am
   108    40    39    1
   109    74    75    1
   110    74    73    1
   111    24    25    2
   112    45    44    2
   113    81    82    1
   114    85    82    1
   115    85    87    1
   116    61    60    1
   117    75    76    2
   118    39    38    1
   119    82    83    1
   120    59    58    2
   121    95    94    1
   122    38    28   am
   123    60    57    1
   124    57    58    1
   125    57    56    1
   126    58    62   am
   127    30    31    1
   128    30    27    1
   129    55    54    1
   130    28    29    2
   131    28    27    1
   132    83    84    2
   133    96    94    1
   134    94    93    1
   135    33    31   ar
   136    33    35   ar
   137    70    68   ar
   138    70    72   ar
   139    31    32   ar
   140    27    26    1
   141    54    51    1
   142    50    51    1
   143    62    63    1
   144    68    67   ar
   145    35    36   ar
   146    90    93    1
   147    90    91    1
   148    90    89    1
   149    65    64    2
   150    63    64    1
   151    63    66    1
   152    72    71   ar
   153    91    92    2
   154    32    34   ar
   155    51    52    1
   156    67    66    1
   157    67    69   ar
   158    36    34   ar
   159    36    37    1
   160    71    69   ar
   161    53    52    2
