@<TRIPOS>MOLECULE
tmp/3wz8A00.pdb
 201 186 0 0 0
SMALL
GASTEIGER

@<TRIPOS>ATOM
      1  N         22.6180   -9.0910   53.8480 N.3    10  ILE10      -0.1231
      2  CA        21.5480   -9.5230   54.7440 C.3    10  ILE10       0.1692
      3  C         20.2290   -9.7240   54.0140 C.2    10  ILE10       0.2592
      4  O         19.3260  -10.3770   54.5340 O.2    10  ILE10      -0.2718
      5  CB        21.3020   -8.5280   55.8950 C.3    10  ILE10       0.0266
      6  CG1       20.8530   -7.1670   55.3490 C.3    10  ILE10       0.0019
      7  CG2       22.5410   -8.3970   56.7610 C.3    10  ILE10       0.0020
      8  CD1       20.3350   -6.2310   56.4280 C.3    10  ILE10       0.0001
      9  N         20.1160   -9.1510   52.8200 N.am   11  ASP11      -0.1974
     10  CA        18.8940   -9.2450   52.0250 C.3    11  ASP11       0.1709
     11  C         19.1920   -9.0600   50.5360 C.2    11  ASP11       0.2293
     12  O         20.3400   -8.8990   50.1400 O.2    11  ASP11      -0.2864
     13  CB        17.8440   -8.2320   52.5090 C.3    11  ASP11       0.1436
     14  CG        18.2940   -6.7830   52.3630 C.2    11  ASP11       0.3671
     15  OD1       17.7890   -5.9310   53.1280 O.co2  11  ASP11      -0.2456
     16  OD2       19.1460   -6.4920   51.4960 O.co2  11  ASP11      -0.2456
     17  N         21.4100   -4.3070   51.5590 N.3    15  ASP15      -0.1225
     18  CA        21.2370   -3.2110   52.5130 C.3    15  ASP15       0.1805
     19  C         22.3680   -3.1320   53.5410 C.2    15  ASP15       0.2597
     20  O         22.7270   -2.0490   54.0050 O.2    15  ASP15      -0.2718
     21  CB        19.8860   -3.3250   53.2160 C.3    15  ASP15       0.1424
     22  CG        18.7360   -2.8450   52.3480 C.2    15  ASP15       0.3668
     23  OD1       18.8740   -1.7720   51.7170 O.co2  15  ASP15      -0.2456
     24  OD2       17.6990   -3.5420   52.2920 O.co2  15  ASP15      -0.2456
     25  N         22.9200   -4.2810   53.9030 N.am   16  ALA16      -0.1979
     26  CA        24.0730   -4.3420   54.7860 C.3    16  ALA16       0.1597
     27  C         24.7140   -5.7040   54.6010 C.2    16  ALA16       0.2287
     28  O         24.1780   -6.5480   53.8820 O.2    16  ALA16      -0.2864
     29  CB        23.6630   -4.1350   56.2400 C.3    16  ALA16       0.0319
     30  N         27.9390   -6.6250   61.7920 N.3    33  ASP33      -0.1239
     31  CA        28.0490   -5.6660   60.7000 C.3    33  ASP33       0.1674
     32  C         29.3870   -4.9420   60.8370 C.2    33  ASP33       0.2266
     33  O         29.5420   -4.0860   61.7070 O.2    33  ASP33      -0.2867
     34  CB        26.8780   -4.6770   60.8010 C.3    33  ASP33       0.1410
     35  CG        26.7860   -3.7180   59.6250 C.2    33  ASP33       0.3668
     36  OD1       27.7370   -3.6200   58.8260 O.co2  33  ASP33      -0.2456
     37  OD2       25.7330   -3.0460   59.5160 O.co2  33  ASP33      -0.2456
     38  N         31.8770   -2.2430   60.3790 N.3    35  ASP35      -0.1239
     39  CA        31.5830   -0.8440   60.0880 C.3    35  ASP35       0.1674
     40  C         32.8300    0.0350   60.1400 C.2    35  ASP35       0.2266
     41  O         33.2950    0.4010   61.2200 O.2    35  ASP35      -0.2867
     42  CB        30.5290   -0.3330   61.0700 C.3    35  ASP35       0.1410
     43  CG        30.1540    1.1160   60.8250 C.2    35  ASP35       0.3668
     44  OD1       30.4730    1.6300   59.7370 O.co2  35  ASP35      -0.2456
     45  OD2       29.5390    1.7280   61.7190 O.co2  35  ASP35      -0.2456
     46  N         33.0110    3.0130   59.5600 N.3    37  GLY37      -0.1225
     47  CA        32.6110    4.3600   59.9360 C.3    37  GLY37       0.1811
     48  C         32.3340    4.5370   61.4230 C.2    37  GLY37       0.2280
     49  O         31.8340    5.5860   61.8470 O.2    37  GLY37      -0.2866
     50  N         24.3660    6.7910   65.9870 N.3    79  TYR79      -0.1227
     51  CA        24.8510    6.7450   64.6150 C.3    79  TYR79       0.1736
     52  C         24.2390    7.8690   63.7930 C.2    79  TYR79       0.2596
     53  O         23.2240    8.4550   64.1770 O.2    79  TYR79      -0.2718
     54  CB        24.5580    5.3790   63.9900 C.3    79  TYR79       0.0548
     55  CG        25.2980    4.2490   64.6750 C.ar   79  TYR79      -0.0200
     56  CD1       24.6630    3.4390   65.6080 C.ar   79  TYR79      -0.0009
     57  CD2       26.6360    4.0060   64.4000 C.ar   79  TYR79      -0.0009
     58  CE1       25.3440    2.4050   66.2410 C.ar   79  TYR79       0.0417
     59  CE2       27.3250    2.9840   65.0320 C.ar   79  TYR79       0.0417
     60  CZ        26.6710    2.1860   65.9480 C.ar   79  TYR79       0.1957
     61  OH        27.3460    1.1610   66.5800 O.3    79  TYR79      -0.2866
     62  N         24.8680    8.1670   62.6610 N.am   80  GLY80      -0.1942
     63  CA        24.4570    9.2770   61.8240 C.3    80  GLY80       0.2014
     64  C         23.0090    9.2200   61.3740 C.2    80  GLY80       0.2638
     65  O         22.4100   10.2560   61.0860 O.2    80  GLY80      -0.2714
     66  N         22.4400    8.0190   61.3190 N.am   81  ASP81      -0.1971
     67  CA        21.0790    7.8460   60.8140 C.3    81  ASP81       0.1709
     68  C         20.0160    7.8510   61.9130 C.2    81  ASP81       0.2293
     69  O         18.8530    7.5350   61.6600 O.2    81  ASP81      -0.2864
     70  CB        20.9770    6.5570   59.9920 C.3    81  ASP81       0.1436
     71  CG        21.0070    5.2970   60.8510 C.2    81  ASP81       0.3671
     72  OD1       21.1410    5.4020   62.0870 O.co2  81  ASP81      -0.2456
     73  OD2       20.9070    4.1890   60.2840 O.co2  81  ASP81      -0.2456
     74  N         19.9280    5.9840   64.6920 N.3    83  SER83      -0.1217
     75  CA        19.8790    4.7820   65.5190 C.3    83  SER83       0.1889
     76  C         20.8970    4.8720   66.6540 C.2    83  SER83       0.2288
     77  O         21.8010    5.7030   66.6120 O.2    83  SER83      -0.2866
     78  CB        20.0910    3.5200   64.6750 C.3    83  SER83       0.2089
     79  OG        21.4070    3.4440   64.1630 O.3    83  SER83      -0.2183
     80  N         15.3950    0.3340   65.0510 N.3   115  SER115     -0.1202
     81  CA        15.9000   -0.1800   63.7820 C.3   115  SER115      0.2020
     82  C         16.7770   -1.4100   64.0020 C.2   115  SER115      0.2618
     83  O         16.7960   -2.3220   63.1770 O.2   115  SER115     -0.2717
     84  CB        16.6880    0.8950   63.0340 C.3   115  SER115      0.2103
     85  OG        17.8840    1.2270   63.7150 O.3   115  SER115     -0.2182
     86  N         17.5020   -1.4380   65.1170 N.am  116  PHE116     -0.1975
     87  CA        18.3270   -2.6020   65.4280 C.3   116  PHE116      0.1639
     88  C         17.4400   -3.7840   65.8140 C.2   116  PHE116      0.2290
     89  O         17.6620   -4.9060   65.3720 O.2   116  PHE116     -0.2864
     90  CB        19.3380   -2.2870   66.5340 C.3   116  PHE116      0.0560
     91  CG        20.4720   -1.4140   66.0800 C.ar  116  PHE116     -0.0200
     92  CD1       21.3840   -1.8810   65.1490 C.ar  116  PHE116     -0.0042
     93  CD2       20.6320   -0.1320   66.5820 C.ar  116  PHE116     -0.0042
     94  CE1       22.4310   -1.0840   64.7170 C.ar  116  PHE116     -0.0003
     95  CE2       21.6760    0.6680   66.1610 C.ar  116  PHE116     -0.0003
     96  CZ        22.5800    0.1930   65.2260 C.ar  116  PHE116     -0.0000
     97  N         15.7560   -5.5320   62.8480 N.3   119  ASP119     -0.1239
     98  CA        16.6220   -6.2710   61.9320 C.3   119  ASP119      0.1674
     99  C         17.2030   -7.5080   62.6030 C.2   119  ASP119      0.2266
    100  O         18.2270   -7.4340   63.2840 O.2   119  ASP119     -0.2867
    101  CB        17.7560   -5.3900   61.4250 C.3   119  ASP119      0.1410
    102  CG        18.6700   -6.1230   60.4710 C.2   119  ASP119      0.3668
    103  OD1       18.3160   -7.2470   60.0510 O.co2 119  ASP119     -0.2456
    104  OD2       19.7340   -5.5740   60.1310 O.co2 119  ASP119     -0.2456
    105  N         21.2040   -8.8730   62.0540 N.3   122  ILE122     -0.1245
    106  CA        22.3990   -8.2090   62.5710 C.3   122  ILE122      0.1561
    107  C         22.4610   -8.3240   64.0960 C.2   122  ILE122      0.2260
    108  O         21.6120   -7.7800   64.8020 O.2   122  ILE122     -0.2867
    109  CB        22.4570   -6.7300   62.1160 C.3   122  ILE122      0.0252
    110  CG1       22.7840   -6.6640   60.6180 C.3   122  ILE122      0.0019
    111  CG2       23.5080   -5.9580   62.8980 C.3   122  ILE122      0.0019
    112  CD1       22.7870   -5.2600   60.0340 C.3   122  ILE122      0.0001
    113  N         27.5820   -4.7250   65.9040 N.3   125  LEU125     -0.1245
    114  CA        28.5150   -4.0680   64.9970 C.3   125  LEU125      0.1561
    115  C         29.9440   -4.3260   65.4370 C.2   125  LEU125      0.2260
    116  O         30.2170   -4.4840   66.6290 O.2   125  LEU125     -0.2867
    117  CB        28.2690   -2.5550   64.9470 C.3   125  LEU125      0.0270
    118  CG        27.3220   -2.0670   63.8480 C.3   125  LEU125      0.0019
    119  CD1       25.9070   -2.5870   64.0760 C.3   125  LEU125      0.0001
    120  CD2       27.3230   -0.5490   63.7520 C.3   125  LEU125      0.0001
    121  N         37.6780    9.1010   60.9410 N.3   194  PHE194     -0.1241
    122  CA        37.1900    8.2820   59.8330 C.3   194  PHE194      0.1605
    123  C         38.2970    7.9550   58.8410 C.2   194  PHE194      0.2264
    124  O         39.3540    8.5940   58.8280 O.2   194  PHE194     -0.2867
    125  CB        36.0920    9.0220   59.0620 C.3   194  PHE194      0.0534
    126  CG        34.8730    9.3480   59.8770 C.ar  194  PHE194     -0.0203
    127  CD1       34.3810   10.6400   59.9070 C.ar  194  PHE194     -0.0042
    128  CD2       34.2000    8.3640   60.5800 C.ar  194  PHE194     -0.0042
    129  CE1       33.2570   10.9530   60.6430 C.ar  194  PHE194     -0.0003
    130  CE2       33.0740    8.6720   61.3190 C.ar  194  PHE194     -0.0003
    131  CZ        32.6000    9.9680   61.3470 C.ar  194  PHE194     -0.0000
    132  N         34.0900    9.8390   53.3310 N.3   217  ILE217     -0.1245
    133  CA        34.6210    8.7180   54.0970 C.3   217  ILE217      0.1561
    134  C         34.2850    7.3700   53.4730 C.2   217  ILE217      0.2260
    135  O         33.2140    7.1930   52.8970 O.2   217  ILE217     -0.2867
    136  CB        34.1320    8.7580   55.5580 C.3   217  ILE217      0.0252
    137  CG1       32.6120    8.5920   55.6460 C.3   217  ILE217      0.0019
    138  CG2       34.5650   10.0630   56.2150 C.3   217  ILE217      0.0019
    139  CD1       32.1120    8.3500   57.0660 C.3   217  ILE217      0.0001
    140  N         33.0030    4.0160   54.1210 N.3   219  ASP219     -0.1239
    141  CA        32.1430    3.5690   55.2130 C.3   219  ASP219      0.1674
    142  C         31.3410    2.3160   54.8640 C.2   219  ASP219      0.2266
    143  O         30.2660    2.4010   54.2670 O.2   219  ASP219     -0.2867
    144  CB        31.1820    4.6880   55.6120 C.3   219  ASP219      0.1410
    145  CG        30.3620    4.3400   56.8370 C.2   219  ASP219      0.3668
    146  OD1       29.5390    5.1810   57.2540 O.co2 219  ASP219     -0.2456
    147  OD2       30.5300    3.2210   57.3680 O.co2 219  ASP219     -0.2456
    148  N         29.6170    0.5330   56.7670 N.3   221  GLY221     -0.1210
    149  CA        28.3990    0.4500   57.5600 C.3   221  GLY221      0.1956
    150  C         27.2440    1.2970   57.0630 C.2   221  GLY221      0.2613
    151  O         26.1820    1.3440   57.6880 O.2   221  GLY221     -0.2717
    152  N         27.4450    1.9680   55.9360 N.am  222  THR222     -0.1938
    153  CA        26.3920    2.7670   55.3250 C.3   222  THR222      0.2028
    154  C         26.0750    2.1660   53.9550 C.2   222  THR222      0.2642
    155  O         26.9810    1.8360   53.2000 O.2   222  THR222     -0.2714
    156  CB        26.8150    4.2510   55.2150 C.3   222  THR222      0.1808
    157  OG1       26.8880    4.8190   56.5320 O.3   222  THR222     -0.2208
    158  CG2       25.8290    5.0490   54.3820 C.3   222  THR222      0.0379
    159  N         24.7870    1.9970   53.6630 N.am  223  THR223     -0.1950
    160  CA        24.3440    1.3060   52.4530 C.3   223  THR223      0.1897
    161  C         24.6400    2.0840   51.1820 C.2   223  THR223      0.2313
    162  O         25.1660    1.5350   50.2130 O.2   223  THR223     -0.2863
    163  CB        22.8210    1.0540   52.4710 C.3   223  THR223      0.1794
    164  OG1       22.4210    0.5610   53.7550 O.3   223  THR223     -0.2208
    165  CG2       22.4290    0.0610   51.3850 C.3   223  THR223      0.0378
    166  N         26.4540    8.8120   49.3910 N.3   226  TYR226     -0.1241
    167  CA        25.9620   10.1580   49.6870 C.3   226  TYR226      0.1605
    168  C         26.9710   11.1890   49.2080 C.2   226  TYR226      0.2264
    169  O         28.1120   11.2030   49.6730 O.2   226  TYR226     -0.2867
    170  CB        25.7070   10.3260   51.1920 C.3   226  TYR226      0.0534
    171  CG        24.5940    9.4530   51.7230 C.ar  226  TYR226     -0.0201
    172  CD1       23.2880    9.9200   51.7750 C.ar  226  TYR226     -0.0009
    173  CD2       24.8450    8.1600   52.1660 C.ar  226  TYR226     -0.0009
    174  CE1       22.2650    9.1280   52.2550 C.ar  226  TYR226      0.0417
    175  CE2       23.8270    7.3560   52.6480 C.ar  226  TYR226      0.0417
    176  CZ        22.5370    7.8450   52.6830 C.ar  226  TYR226      0.1957
    177  OH        21.5150    7.0560   53.1580 O.3   226  TYR226     -0.2866
    178  N         23.1630   15.3600   55.8350 N.3   300  ILE300     -0.1245
    179  CA        24.0540   14.5840   56.6930 C.3   300  ILE300      0.1561
    180  C         25.2330   15.4130   57.1900 C.2   300  ILE300      0.2260
    181  O         25.6650   15.2690   58.3340 O.2   300  ILE300     -0.2867
    182  CB        24.6200   13.3560   55.9500 C.3   300  ILE300      0.0252
    183  CG1       23.4910   12.4670   55.4330 C.3   300  ILE300      0.0019
    184  CG2       25.5350   12.5660   56.8670 C.3   300  ILE300      0.0019
    185  CD1       23.9820   11.2000   54.7590 C.3   300  ILE300      0.0001
    186  N         28.1410   15.3310   55.8110 N.3   302  ILE302     -0.1245
    187  CA        29.4070   14.6530   55.4250 C.3   302  ILE302      0.1561
    188  C         29.1440   13.6130   54.0910 C.2   302  ILE302      0.2260
    189  O         28.0450   13.0580   53.9050 O.2   302  ILE302     -0.2867
    190  CB        29.9000   13.7770   56.5980 C.3   302  ILE302      0.0252
    191  CG1       31.0420   12.9460   56.2510 C.3   302  ILE302      0.0019
    192  CG2       28.8270   12.7690   57.0400 C.3   302  ILE302      0.0019
    193  CD1       32.1420   13.7750   55.7130 C.3   302  ILE302      0.0001
    194  N         29.6400   10.3720   51.9820 N.3   304  ILE304     -0.1245
    195  CA        29.8840    9.0050   52.4170 C.3   304  ILE304      0.1561
    196  C         29.9610    8.0470   51.2410 C.2   304  ILE304      0.2260
    197  O         28.9750    7.8450   50.5230 O.2   304  ILE304     -0.2867
    198  CB        28.7900    8.4980   53.3810 C.3   304  ILE304      0.0252
    199  CG1       28.6720    9.4070   54.6060 C.3   304  ILE304      0.0019
    200  CG2       29.1140    7.0800   53.8360 C.3   304  ILE304      0.0019
    201  CD1       27.5300    9.0220   55.5350 C.3   304  ILE304      0.0001
@<TRIPOS>BOND
     1   168   169    2
     2   168   167    1
     3   166   167    1
     4   167   170    1
     5    12    11    2
     6   162   161    2
     7   197   196    2
     8    11    10    1
     9   161   160    1
    10   170   171    1
    11   196   195    1
    12   165   163    1
    13    16    14   ar
    14    17    18    1
    15    23    22   ar
    16   171   172   ar
    17   171   173   ar
    18   172   174   ar
    19   194   195    1
    20    10    13    1
    21    10     9    1
    22   173   175   ar
    23   174   176   ar
    24    24    22   ar
    25    22    21    1
    26    14    13    1
    27    14    15   ar
    28   195   198    1
    29   160   163    1
    30   160   159    1
    31   163   164    1
    32    18    21    1
    33    18    19    1
    34   175   176   ar
    35   176   177    1
    36     9     3   am
    37   135   134    2
    38   155   154    2
    39   132   133    1
    40   198   200    1
    41   198   199    1
    42   134   133    1
    43    19    25   am
    44    19    20    2
    45   159   154   am
    46     1     2    1
    47    28    27    2
    48    25    26    1
    49   189   188    2
    50   154   153    1
    51     3     4    2
    52     3     2    1
    53   188   187    1
    54   133   136    1
    55   140   141    1
    56   143   142    2
    57   158   156    1
    58    27    26    1
    59   199   201    1
    60     2     5    1
    61   185   183    1
    62    26    29    1
    63   142   141    1
    64   141   144    1
    65   156   153    1
    66   156   157    1
    67   153   152    1
    68     6     5    1
    69     6     8    1
    70   187   186    1
    71   187   190    1
    72   183   182    1
    73   136   137    1
    74   136   138    1
    75   144   145    1
    76   137   139    1
    77   193   191    1
    78   178   179    1
    79     5     7    1
    80   152   150   am
    81   182   179    1
    82   182   184    1
    83   191   190    1
    84   190   192    1
    85   179   180    1
    86   148   149    1
    87   145   146   ar
    88   145   147   ar
    89   150   149    1
    90   150   151    2
    91   180   181    2
    92    36    35   ar
    93   124   123    2
    94   123   122    1
    95   125   122    1
    96   125   126    1
    97    37    35   ar
    98    46    47    1
    99    35    34    1
   100    44    43   ar
   101   122   121    1
   102   126   127   ar
   103   126   128   ar
   104   127   129   ar
   105    47    48    1
   106    70    67    1
   107    70    71    1
   108   112   110    1
   109   103   102   ar
   110    39    40    1
   111    39    38    1
   112    39    42    1
   113   104   102   ar
   114    40    41    2
   115    73    71   ar
   116   102   101    1
   117   128   130   ar
   118   110   109    1
   119   129   131   ar
   120    31    34    1
   121    31    32    1
   122    31    30    1
   123    67    66    1
   124    67    68    1
   125    43    42    1
   126    43    45   ar
   127    32    33    2
   128    71    72   ar
   129    65    64    2
   130    66    64   am
   131   130   131   ar
   132    64    63    1
   133    48    49    2
   134   101    98    1
   135    69    68    2
   136    63    62    1
   137    98    99    1
   138    98    97    1
   139   105   106    1
   140   109   106    1
   141   109   111    1
   142   106   107    1
   143    99   100    2
   144    62    52   am
   145    84    85    1
   146    84    81    1
   147    83    82    2
   148   120   118    1
   149    81    82    1
   150    81    80    1
   151    52    53    2
   152    52    51    1
   153   118   119    1
   154   118   117    1
   155    54    51    1
   156    54    55    1
   157    82    86   am
   158   107   108    2
   159    79    78    1
   160    57    55   ar
   161    57    59   ar
   162    51    50    1
   163    78    75    1
   164    55    56   ar
   165    74    75    1
   166    94    92   ar
   167    94    96   ar
   168   117   114    1
   169   114   115    1
   170   114   113    1
   171    59    60   ar
   172    86    87    1
   173    92    91   ar
   174    96    95   ar
   175    89    88    2
   176    87    88    1
   177    87    90    1
   178   115   116    2
   179    75    76    1
   180    56    58   ar
   181    60    58   ar
   182    60    61    1
   183    91    90    1
   184    91    93   ar
   185    95    93   ar
   186    77    76    2
