@<TRIPOS>MOLECULE
tmp/3wzdA01.pdb
 81 78 0 0 0
SMALL
GASTEIGER

@<TRIPOS>ATOM
      1  N         -2.6180   -4.1570    0.9320 N.3    61  SER61      -0.1217
      2  CA        -1.4130   -3.3330    0.7940 C.3    61  SER61       0.1889
      3  C         -0.4240   -3.6300    1.9370 C.2    61  SER61       0.2288
      4  O          0.7820   -3.7410    1.7170 O.2    61  SER61      -0.2866
      5  CB        -1.7900   -1.8390    0.7290 C.3    61  SER61       0.2089
      6  OG        -0.6470   -1.0070    0.7740 O.3    61  SER61      -0.2183
      7  N          3.3870   -5.1090    1.7070 N.3    65  ILE65      -0.1245
      8  CA         4.5140   -4.4610    2.4100 C.3    65  ILE65       0.1561
      9  C          5.2980   -5.5410    3.1730 C.2    65  ILE65       0.2260
     10  O          6.5310   -5.5900    3.0750 O.2    65  ILE65      -0.2867
     11  CB         4.0650   -3.3250    3.3720 C.3    65  ILE65       0.0252
     12  CG1        3.6750   -2.0720    2.5580 C.3    65  ILE65       0.0019
     13  CG2        5.1350   -2.9830    4.4060 C.3    65  ILE65       0.0019
     14  CD1        2.9010   -1.0390    3.3600 C.3    65  ILE65       0.0001
     15  N          7.2020   -7.7770    0.6430 N.3    68  HIS68      -0.1226
     16  CA         8.2700   -7.0380   -0.0370 C.3    68  HIS68       0.1752
     17  C          9.4910   -6.7650    0.8600 C.2    68  HIS68       0.2595
     18  O         10.6230   -6.8230    0.3900 O.2    68  HIS68      -0.2718
     19  CB         7.7380   -5.6970   -0.6180 C.3    68  HIS68       0.0759
     20  CG         8.8020   -4.6550   -0.8340 C.ar   68  HIS68       0.0818
     21  ND1        9.5300   -4.5650   -2.0040 N.ar   68  HIS68      -0.2268
     22  CD2        9.2840   -3.6850   -0.0160 C.ar   68  HIS68       0.1154
     23  CE1       10.4020   -3.5780   -1.9040 C.ar   68  HIS68       0.1986
     24  NE2       10.2770   -3.0310   -0.7050 N.ar   68  HIS68      -0.2212
     25  N          9.2430   -6.4350    2.1230 N.am   69  ILE69      -0.1980
     26  CA        10.2930   -5.9440    3.0020 C.3    69  ILE69       0.1595
     27  C         11.3830   -6.9850    3.2910 C.2    69  ILE69       0.2287
     28  O         12.5460   -6.6450    3.3560 O.2    69  ILE69      -0.2864
     29  CB         9.7070   -5.3740    4.3280 C.3    69  ILE69       0.0276
     30  CG1       10.6910   -4.4030    4.9690 C.3    69  ILE69       0.0022
     31  CG2        9.2750   -6.4580    5.3180 C.3    69  ILE69       0.0022
     32  CD1       10.8790   -3.1130    4.1680 C.3    69  ILE69       0.0001
     33  N         16.1340   -1.2710    2.8330 N.3   149  ARG149     -0.1231
     34  CA        15.0210   -1.6340    1.9830 C.3   149  ARG149      0.1694
     35  C         14.2580   -0.4140    1.4090 C.2   149  ARG149      0.2592
     36  O         13.2550   -0.5980    0.7090 O.2   149  ARG149     -0.2718
     37  CB        14.0580   -2.5540    2.7410 C.3   149  ARG149      0.0321
     38  CG        14.6660   -3.8230    3.3460 C.3   149  ARG149      0.0489
     39  CD        15.1600   -4.8050    2.3080 C.3   149  ARG149      0.2205
     40  NE        14.0690   -5.2540    1.4420 N.pl3 149  ARG149     -0.0865
     41  CZ        14.1670   -5.5070    0.1360 C.cat 149  ARG149      0.5346
     42  NH1       15.3230   -5.3730   -0.5300 N.pl3 149  ARG149      0.1354
     43  NH2       13.0890   -5.9050   -0.5300 N.pl3 149  ARG149      0.1354
     44  N         14.7870    0.7970    1.6120 N.am  150  LYS150     -0.1966
     45  CA        14.1880    2.0600    1.1580 C.3   150  LYS150      0.1728
     46  C         12.7860    2.2830    1.7530 C.2   150  LYS150      0.2616
     47  O         11.8610    2.7650    1.0840 O.2   150  LYS150     -0.2715
     48  CB        14.1780    2.1230   -0.3820 C.3   150  LYS150      0.0311
     49  CG        15.5390    1.8880   -1.0540 C.3   150  LYS150      0.0038
     50  CD        16.5070    3.0190   -0.7460 C.3   150  LYS150      0.0206
     51  CE        17.5940    3.2330   -1.7590 C.3   150  LYS150      0.1093
     52  NZ        18.3270    4.5160   -1.5650 N.3   150  LYS150     -0.1314
     53  N         12.6520    1.8810    3.0050 N.am  151  CYS151     -0.1954
     54  CA        11.3990    1.9730    3.7760 C.3   151  CYS151      0.1843
     55  C         11.5600    3.0150    4.8830 C.2   151  CYS151      0.2625
     56  O         12.4620    2.8940    5.7050 O.2   151  CYS151     -0.2714
     57  CB        11.0660    0.6140    4.3950 C.3   151  CYS151      0.0997
     58  SG         9.6490    0.6150    5.5230 S.3   151  CYS151     -0.0797
     59  N         10.6800    4.0190    4.9100 N.am  152  ILE152     -0.1977
     60  CA        10.6160    5.0040    5.9860 C.3   152  ILE152      0.1596
     61  C          9.4420    4.5510    6.8890 C.2   152  ILE152      0.2287
     62  O          8.3300    4.3040    6.4040 O.2   152  ILE152     -0.2864
     63  CB        10.4010    6.4220    5.4010 C.3   152  ILE152      0.0276
     64  CG1       11.5980    6.8010    4.5040 C.3   152  ILE152      0.0022
     65  CG2       10.2490    7.4790    6.4720 C.3   152  ILE152      0.0022
     66  CD1       11.2510    7.8100    3.4280 C.3   152  ILE152      0.0001
     67  N          5.4350   -0.2200   10.2720 N.3   174  PHE174     -0.1227
     68  CA         6.2120    0.5870    9.3430 C.3   174  PHE174      0.1736
     69  C          5.4650    0.8100    8.0410 C.2   174  PHE174      0.2596
     70  O          4.8030   -0.1030    7.4910 O.2   174  PHE174     -0.2718
     71  CB         7.6170   -0.0240    9.0790 C.3   174  PHE174      0.0547
     72  CG         7.6110   -1.4910    8.8260 C.ar  174  PHE174     -0.0202
     73  CD1        7.7160   -2.3900    9.8980 C.ar  174  PHE174     -0.0042
     74  CD2        7.5260   -2.0030    7.5300 C.ar  174  PHE174     -0.0042
     75  CE1        7.6880   -3.7530    9.6850 C.ar  174  PHE174     -0.0003
     76  CE2        7.5420   -3.3600    7.3130 C.ar  174  PHE174     -0.0003
     77  CZ         7.6200   -4.2390    8.3930 C.ar  174  PHE174     -0.0000
     78  N          5.5330    2.0500    7.5720 N.am  175  GLY175     -0.1957
     79  CA         4.9520    2.4400    6.3030 C.3   175  GLY175      0.1869
     80  C          3.4450    2.6900    6.3090 C.2   175  GLY175      0.2309
     81  O          2.8650    2.9310    5.2520 O.2   175  GLY175     -0.2863
@<TRIPOS>BOND
     1    21    23   ar
     2    21    20   ar
     3    23    24   ar
     4    51    52    1
     5    51    50    1
     6    49    50    1
     7    49    48    1
     8    20    19    1
     9    20    22   ar
    10    24    22   ar
    11    19    16    1
    12    43    41    1
    13    42    41    1
    14    48    45    1
    15    16    15    1
    16    16    17    1
    17    41    40    2
    18    18    17    2
    19    36    35    2
    20     5     6    1
    21     5     2    1
    22     2     1    1
    23     2     3    1
    24    17    25   am
    25    47    46    2
    26    45    44    1
    27    45    46    1
    28    35    44   am
    29    35    34    1
    30    40    39    1
    31     7     8    1
    32     4     3    2
    33    46    53   am
    34    34    37    1
    35    34    33    1
    36    25    26    1
    37    39    38    1
    38     8     9    1
    39     8    11    1
    40    12    14    1
    41    12    11    1
    42    37    38    1
    43    26    27    1
    44    26    29    1
    45    53    54    1
    46    10     9    2
    47    27    28    2
    48    11    13    1
    49    66    64    1
    50    54    57    1
    51    54    55    1
    52    32    30    1
    53    29    30    1
    54    29    31    1
    55    57    58    1
    56    64    63    1
    57    55    59   am
    58    55    56    2
    59    59    60    1
    60    81    80    2
    61    63    60    1
    62    63    65    1
    63    60    61    1
    64    79    80    1
    65    79    78    1
    66    62    61    2
    67    76    74   ar
    68    76    77   ar
    69    70    69    2
    70    74    72   ar
    71    78    69   am
    72    69    68    1
    73    77    75   ar
    74    72    71    1
    75    72    73   ar
    76    71    68    1
    77    68    67    1
    78    75    73   ar
