@<TRIPOS>MOLECULE
tmp/3wzdA00.pdb
 187 177 0 0 0
SMALL
GASTEIGER

@<TRIPOS>ATOM
      1  N         -6.2180   -9.0430   20.4810 N.3    21  LEU21      -0.1231
      2  CA        -4.9980   -8.4330   21.0080 C.3    21  LEU21       0.1693
      3  C         -5.0210   -6.9410   20.7560 C.2    21  LEU21       0.2592
      4  O         -5.4380   -6.4910   19.6930 O.2    21  LEU21      -0.2718
      5  CB        -3.7630   -8.9660   20.3200 C.3    21  LEU21       0.0284
      6  CG        -3.4720  -10.4600   20.4830 C.3    21  LEU21       0.0019
      7  CD1       -2.4130  -10.9160   19.5150 C.3    21  LEU21       0.0001
      8  CD2       -3.0820  -10.7960   21.9100 C.3    21  LEU21       0.0001
      9  N         -4.4730   -6.2050   21.7020 N.am   22  GLY22      -0.1957
     10  CA        -4.1560   -4.7810   21.4560 C.3    22  GLY22       0.1869
     11  C         -5.3490   -3.8680   21.5750 C.2    22  GLY22       0.2309
     12  O         -5.1840   -2.6350   21.5180 O.2    22  GLY22      -0.2863
     13  N         -6.8060   -7.5380   15.2620 N.3    25  VAL25      -0.1245
     14  CA        -5.6970   -8.4600   15.4770 C.3    25  VAL25       0.1561
     15  C         -6.0830   -9.4260   16.5820 C.2    25  VAL25       0.2260
     16  O         -6.6420   -9.0150   17.6180 O.2    25  VAL25      -0.2867
     17  CB        -4.3810   -7.7270   15.8330 C.3    25  VAL25       0.0252
     18  CG1       -3.2550   -8.7250   16.0510 C.3    25  VAL25       0.0019
     19  CG2       -3.9790   -6.7720   14.6970 C.3    25  VAL25       0.0019
     20  N         -4.9490  -13.3180   18.5830 N.3    27  GLU27      -0.1245
     21  CA        -4.0670  -14.4420   18.8020 C.3    27  GLU27       0.1567
     22  C         -4.6360  -15.6830   18.1500 C.2    27  GLU27       0.2260
     23  O         -5.8310  -15.8640   18.1600 O.2    27  GLU27      -0.2867
     24  CB        -3.9310  -14.7200   20.2830 C.3    27  GLU27       0.0388
     25  CG        -2.7480  -15.6110   20.6450 C.3    27  GLU27       0.1160
     26  CD        -2.4990  -15.6490   22.1350 C.2    27  GLU27       0.3649
     27  OE1       -2.4520  -14.5910   22.7990 O.co2  27  GLU27      -0.2457
     28  OE2       -2.3730  -16.7540   22.6900 O.co2  27  GLU27      -0.2457
     29  N          0.1000  -14.1210   15.5410 N.3    43  ALA43      -0.1245
     30  CA        -0.8690  -13.0160   15.5310 C.3    43  ALA43       0.1562
     31  C         -1.4790  -12.9360   14.1400 C.2    43  ALA43       0.2260
     32  O         -0.7780  -13.1370   13.1490 O.2    43  ALA43      -0.2867
     33  CB        -0.1900  -11.7160   15.9050 C.3    43  ALA43       0.0290
     34  N         -4.0430  -10.6610   11.5870 N.3    45  LYS45      -0.1245
     35  CA        -4.8250   -9.4540   11.2980 C.3    45  LYS45       0.1561
     36  C         -5.8780   -9.8650   10.2910 C.2    45  LYS45       0.2260
     37  O         -5.5290  -10.4110    9.2330 O.2    45  LYS45      -0.2867
     38  CB        -3.9460   -8.3180   10.7950 C.3    45  LYS45       0.0271
     39  CG        -4.7080   -7.0430   10.6280 C.3    45  LYS45       0.0035
     40  CD        -3.7800   -5.8370   10.5820 C.3    45  LYS45       0.0206
     41  CE        -4.5950   -4.5660   10.5090 C.3    45  LYS45       0.1093
     42  NZ        -3.7570   -3.3360   10.5990 N.3    45  LYS45      -0.1314
     43  N         -0.9600   -3.7870    3.1450 N.3    62  GLU62      -0.1245
     44  CA        -0.1690   -4.1600    4.3200 C.3    62  GLU62       0.1567
     45  C          0.5000   -5.5210    4.1640 C.2    62  GLU62       0.2260
     46  O          1.6890   -5.7030    4.4880 O.2    62  GLU62      -0.2867
     47  CB        -1.0680   -4.1130    5.5550 C.3    62  GLU62       0.0388
     48  CG        -0.3950   -4.5110    6.8470 C.3    62  GLU62       0.1160
     49  CD        -1.2270   -4.2150    8.0850 C.2    62  GLU62       0.3649
     50  OE1       -2.3550   -3.6680    8.0330 O.co2  62  GLU62      -0.2457
     51  OE2       -0.6930   -4.5070    9.1710 O.co2  62  GLU62      -0.2457
     52  N          3.3870   -5.1090    1.7070 N.3    65  ILE65      -0.1231
     53  CA         4.5140   -4.4610    2.4100 C.3    65  ILE65       0.1692
     54  C          5.2980   -5.5410    3.1730 C.2    65  ILE65       0.2591
     55  O          6.5310   -5.5900    3.0750 O.2    65  ILE65      -0.2718
     56  CB         4.0650   -3.3250    3.3720 C.3    65  ILE65       0.0266
     57  CG1        3.6750   -2.0720    2.5580 C.3    65  ILE65       0.0019
     58  CG2        5.1350   -2.9830    4.4060 C.3    65  ILE65       0.0020
     59  CD1        2.9010   -1.0390    3.3600 C.3    65  ILE65       0.0001
     60  N          4.5890   -6.3610    3.9220 N.am   66  LEU66      -0.1980
     61  CA         5.2290   -7.4280    4.7110 C.3    66  LEU66       0.1596
     62  C          5.9710   -8.4450    3.8340 C.2    66  LEU66       0.2287
     63  O          7.0730   -8.8710    4.1810 O.2    66  LEU66      -0.2864
     64  CB         4.1930   -8.1100    5.6020 C.3    66  LEU66       0.0297
     65  CG         3.7670   -7.2970    6.8220 C.3    66  LEU66       0.0022
     66  CD1        2.4200   -7.7210    7.4040 C.3    66  LEU66       0.0001
     67  CD2        4.8420   -7.4060    7.8900 C.3    66  LEU66       0.0001
     68  N          8.8000   -7.3000   12.6720 N.3    76  VAL76      -0.1245
     69  CA         7.7350   -8.2990   12.7880 C.3    76  VAL76       0.1561
     70  C          7.5130   -8.9540   11.4220 C.2    76  VAL76       0.2260
     71  O          7.1060   -8.2920   10.4590 O.2    76  VAL76      -0.2867
     72  CB         6.3910   -7.7080   13.2930 C.3    76  VAL76       0.0252
     73  CG1        5.6580   -7.0320   12.1550 C.3    76  VAL76       0.0019
     74  CG2        5.5290   -8.8160   13.8670 C.3    76  VAL76       0.0019
     75  N         -3.8040  -11.9940    7.5960 N.3    91  VAL91      -0.1245
     76  CA        -2.3700  -11.7580    7.5340 C.3    91  VAL91       0.1561
     77  C         -1.7590  -12.3400    8.8190 C.2    91  VAL91       0.2260
     78  O         -2.0910  -11.9080    9.9100 O.2    91  VAL91      -0.2867
     79  CB        -2.0360  -10.2490    7.4180 C.3    91  VAL91       0.0252
     80  CG1       -0.5360  -10.0120    7.3910 C.3    91  VAL91       0.0019
     81  CG2       -2.6680   -9.6300    6.1800 C.3    91  VAL91       0.0019
     82  N          1.3850  -13.1470   11.2300 N.3    93  VAL93      -0.1231
     83  CA         2.7230  -12.7020   11.5800 C.3    93  VAL93       0.1692
     84  C          3.2190  -13.3860   12.8570 C.2    93  VAL93       0.2592
     85  O          2.4270  -13.9540   13.6290 O.2    93  VAL93      -0.2718
     86  CB         2.8200  -11.1300   11.6960 C.3    93  VAL93       0.0266
     87  CG1        2.3450  -10.4480   10.4380 C.3    93  VAL93       0.0020
     88  CG2        2.0500  -10.5930   12.8910 C.3    93  VAL93       0.0020
     89  N          4.5220  -13.2680   13.0970 N.am   94  GLU94      -0.1966
     90  CA         5.1150  -13.7910   14.3180 C.3    94  GLU94       0.1733
     91  C          4.4790  -13.1740   15.5520 C.2    94  GLU94       0.2616
     92  O          4.3070  -11.9840   15.5700 O.2    94  GLU94      -0.2715
     93  CB         6.6030  -13.3850   14.4010 C.3    94  GLU94       0.0429
     94  CG         7.4800  -13.8900   13.2800 C.3    94  GLU94       0.1163
     95  CD         8.8690  -13.2890   13.3490 C.2    94  GLU94       0.3649
     96  OE1        9.8200  -14.0970   13.3440 O.co2  94  GLU94      -0.2457
     97  OE2        9.0230  -12.0190   13.4130 O.co2  94  GLU94      -0.2457
     98  N          4.2000  -13.9750   16.5730 N.am   95  PHE95      -0.1960
     99  CA         3.6090  -13.5190   17.8360 C.3    95  PHE95       0.1771
    100  C          4.6910  -13.0160   18.7880 C.2    95  PHE95       0.2620
    101  O          5.7090  -13.6920   18.9960 O.2    95  PHE95      -0.2715
    102  CB         2.9230  -14.7200   18.4730 C.3    95  PHE95       0.0574
    103  CG         2.2100  -14.4410   19.7620 C.ar   95  PHE95      -0.0200
    104  CD1        1.0920  -13.5980   19.8140 C.ar   95  PHE95      -0.0042
    105  CD2        2.6310  -15.0360   20.9480 C.ar   95  PHE95      -0.0042
    106  CE1        0.4290  -13.3940   21.0090 C.ar   95  PHE95      -0.0003
    107  CE2        1.9520  -14.8360   22.1330 C.ar   95  PHE95      -0.0003
    108  CZ         0.8630  -14.0110   22.1720 C.ar   95  PHE95      -0.0000
    109  N          4.4430  -11.8620   19.4140 N.am   96  CYS96      -0.1954
    110  CA         5.3610  -11.2140   20.3580 C.3    96  CYS96       0.1843
    111  C          4.6950  -11.1710   21.7320 C.2    96  CYS96       0.2625
    112  O          3.8960  -10.2740   22.0640 O.2    96  CYS96      -0.2714
    113  CB         5.7280   -9.8310   19.8030 C.3    96  CYS96       0.0997
    114  SG         6.5770   -9.8940   18.2310 S.3    96  CYS96      -0.0797
    115  N          5.0430  -12.1840   22.5510 N.am   97  LYS97      -0.1963
    116  CA         4.2920  -12.5140   23.7650 C.3    97  LYS97       0.1728
    117  C          4.0870  -11.3740   24.7580 C.2    97  LYS97       0.2616
    118  O          3.0330  -11.3020   25.3820 O.2    97  LYS97      -0.2715
    119  CB         4.9920  -13.7060   24.4770 C.3    97  LYS97       0.0311
    120  CG         4.7200  -13.9250   25.9550 C.3    97  LYS97       0.0038
    121  CD         5.3120  -15.2670   26.3990 C.3    97  LYS97       0.0206
    122  CE         5.0080  -15.5320   27.8720 C.3    97  LYS97       0.1093
    123  NZ         5.5310  -16.8530   28.3170 N.3    97  LYS97      -0.1314
    124  N          5.0580  -10.4940   24.8610 N.am   98  PHE98      -0.1960
    125  CA         5.0330   -9.4390   25.8860 C.3    98  PHE98       0.1771
    126  C          4.3730   -8.1610   25.4060 C.2    98  PHE98       0.2620
    127  O          4.2450   -7.2250   26.1820 O.2    98  PHE98      -0.2715
    128  CB         6.4420   -9.1930   26.4320 C.3    98  PHE98       0.0574
    129  CG         6.9730  -10.3960   27.1230 C.ar   98  PHE98      -0.0200
    130  CD1        6.5300  -10.7090   28.3860 C.ar   98  PHE98      -0.0042
    131  CD2        7.8190  -11.2700   26.4650 C.ar   98  PHE98      -0.0042
    132  CE1        6.9780  -11.8570   29.0180 C.ar   98  PHE98      -0.0003
    133  CE2        8.2830  -12.4220   27.0860 C.ar   98  PHE98      -0.0003
    134  CZ         7.8540  -12.7200   28.3680 C.ar   98  PHE98      -0.0000
    135  N          3.9580   -8.1070   24.1380 N.am   99  GLY99      -0.1940
    136  CA         3.2510   -6.9350   23.6160 C.3    99  GLY99       0.2014
    137  C          4.1090   -5.7290   23.4470 C.2    99  GLY99       0.2638
    138  O          5.3120   -5.8420   23.2780 O.2    99  GLY99      -0.2714
    139  N          3.4950   -4.5310   23.4440 N.am  100  ASN100     -0.1972
    140  CA         4.2380   -3.3490   23.0940 C.3   100  ASN100      0.1688
    141  C          5.2050   -2.9060   24.2030 C.2   100  ASN100      0.2292
    142  O          4.9380   -3.1040   25.4020 O.2   100  ASN100     -0.2864
    143  CB         3.3430   -2.2060   22.6500 C.3   100  ASN100      0.1181
    144  CG         2.8490   -1.3700   23.8080 C.2   100  ASN100      0.2629
    145  OD1        3.5730   -0.4710   24.2850 O.2   100  ASN100     -0.2716
    146  ND2        1.6840   -1.6910   24.3070 N.am  100  ASN100     -0.0877
    147  N          7.5090   -4.3490   19.5720 N.3   162  LEU162     -0.1245
    148  CA         6.9080   -5.4860   20.2770 C.3   162  LEU162      0.1561
    149  C          8.0230   -6.3170   20.9030 C.2   162  LEU162      0.2260
    150  O          9.0770   -6.4560   20.3120 O.2   162  LEU162     -0.2867
    151  CB         6.1130   -6.3270   19.2970 C.3   162  LEU162      0.0270
    152  CG         4.9500   -5.5790   18.6240 C.3   162  LEU162      0.0019
    153  CD1        4.0980   -6.5430   17.8670 C.3   162  LEU162      0.0001
    154  CD2        4.0610   -4.7580   19.5510 C.3   162  LEU162      0.0001
    155  N          7.1310   -2.8900   14.3420 N.3   172  CYS172     -0.1221
    156  CA         5.9230   -3.1400   13.5550 C.3   172  CYS172      0.1808
    157  C          5.3390   -1.8220   13.0760 C.2   172  CYS172      0.2601
    158  O          5.8170   -0.7750   13.4490 O.2   172  CYS172     -0.2717
    159  CB         4.8840   -3.9950   14.2950 C.3   172  CYS172      0.0970
    160  SG         4.1220   -3.0900   15.6460 S.3   172  CYS172     -0.0800
    161  N          4.3610   -1.9300   12.2120 N.am  173  ASP173     -0.1959
    162  CA         3.5760   -0.7990   11.7060 C.3   173  ASP173      0.1840
    163  C          4.3410    0.2290   10.8680 C.2   173  ASP173      0.2622
    164  O          3.9210    1.3620   10.7190 O.2   173  ASP173     -0.2715
    165  CB         2.7920   -0.1850   12.8550 C.3   173  ASP173      0.1450
    166  CG         1.5390   -0.9720   13.1770 C.2   173  ASP173      0.3671
    167  OD1        1.1440   -1.9020   12.4590 O.co2 173  ASP173     -0.2456
    168  OD2        0.8610   -0.5300   14.1270 O.co2 173  ASP173     -0.2456
    169  N          5.4350   -0.2200   10.2720 N.am  174  PHE174     -0.1974
    170  CA         6.2120    0.5870    9.3430 C.3   174  PHE174      0.1639
    171  C          5.4650    0.8100    8.0410 C.2   174  PHE174      0.2290
    172  O          4.8030   -0.1030    7.4910 O.2   174  PHE174     -0.2864
    173  CB         7.6170   -0.0240    9.0790 C.3   174  PHE174      0.0560
    174  CG         7.6110   -1.4910    8.8260 C.ar  174  PHE174     -0.0200
    175  CD1        7.7160   -2.3900    9.8980 C.ar  174  PHE174     -0.0042
    176  CD2        7.5260   -2.0030    7.5300 C.ar  174  PHE174     -0.0042
    177  CE1        7.6880   -3.7530    9.6850 C.ar  174  PHE174     -0.0003
    178  CE2        7.5420   -3.3600    7.3130 C.ar  174  PHE174     -0.0003
    179  CZ         7.6200   -4.2390    8.3930 C.ar  174  PHE174     -0.0000
    180  N          2.8050    2.6560    7.4800 N.3   176  LEU176     -0.1245
    181  CA         1.3180    2.7190    7.5740 C.3   176  LEU176      0.1561
    182  C          0.7640    4.0860    7.9940 C.2   176  LEU176      0.2260
    183  O         -0.3150    4.4530    7.5430 O.2   176  LEU176     -0.2867
    184  CB         0.7670    1.6490    8.5290 C.3   176  LEU176      0.0270
    185  CG         1.0230    0.1570    8.2570 C.3   176  LEU176      0.0019
    186  CD1        0.2850   -0.7170    9.2800 C.3   176  LEU176      0.0001
    187  CD2        0.6190   -0.2530    6.8560 C.3   176  LEU176      0.0001
@<TRIPOS>BOND
     1    52    53    1
     2    53    54    1
     3    53    56    1
     4    57    59    1
     5    57    56    1
     6    55    54    2
     7    43    44    1
     8    54    60   am
     9    56    58    1
    10    62    63    2
    11    62    61    1
    12    60    61    1
    13    45    44    1
    14    45    46    2
    15    44    47    1
    16    61    64    1
    17    47    48    1
    18    64    65    1
    19    81    79    1
    20    65    66    1
    21    65    67    1
    22    48    49    1
    23   187   185    1
    24   178   176   ar
    25   178   179   ar
    26    80    79    1
    27    79    76    1
    28   180   181    1
    29   172   171    2
    30   176   174   ar
    31    76    75    1
    32    76    77    1
    33   183   182    2
    34   181   182    1
    35   181   184    1
    36    50    49   ar
    37   171   170    1
    38    49    51   ar
    39   185   184    1
    40   185   186    1
    41   179   177   ar
    42    77    78    2
    43   174   173    1
    44   174   175   ar
    45   173   170    1
    46    37    36    2
    47   170   169    1
    48   177   175   ar
    49   169   163   am
    50    36    35    1
    51    87    86    1
    52    71    70    2
    53    41    40    1
    54    41    42    1
    55    40    39    1
    56    39    38    1
    57   164   163    2
    58    38    35    1
    59   163   162    1
    60    82    83    1
    61    35    34    1
    62    70    69    1
    63    83    86    1
    64    83    84    1
    65    86    88    1
    66   162   161    1
    67   162   165    1
    68    73    72    1
    69   161   157   am
    70   167   166   ar
    71    68    69    1
    72    69    72    1
    73   165   166    1
    74    84    89   am
    75    84    85    2
    76   157   158    2
    77   157   156    1
    78    89    90    1
    79    32    31    2
    80   166   168   ar
    81    94    95    1
    82    94    93    1
    83    72    74    1
    84    96    95   ar
    85    95    97   ar
    86   156   159    1
    87   156   155    1
    88    31    30    1
    89   159   160    1
    90    90    93    1
    91    90    91    1
    92    19    17    1
    93    13    14    1
    94    14    17    1
    95    14    15    1
    96    30    29    1
    97    30    33    1
    98    91    92    2
    99    91    98   am
   100    17    18    1
   101    98    99    1
   102    15    16    2
   103    99   102    1
   104    99   100    1
   105   153   152    1
   106    22    23    2
   107    22    21    1
   108   114   113    1
   109   102   103    1
   110    20    21    1
   111   152   151    1
   112   152   154    1
   113   100   101    2
   114   100   109   am
   115    21    24    1
   116   151   148    1
   117   109   110    1
   118     7     6    1
   119   147   148    1
   120     4     3    2
   121   103   104   ar
   122   103   105   ar
   123   113   110    1
   124   104   106   ar
   125   148   149    1
   126    24    25    1
   127   150   149    2
   128     5     6    1
   129     5     2    1
   130   110   111    1
   131     1     2    1
   132     6     8    1
   133    25    26    1
   134     3     2    1
   135     3     9   am
   136   105   107   ar
   137   106   108   ar
   138    10    11    1
   139    10     9    1
   140    12    11    2
   141   111   112    2
   142   111   115   am
   143   107   108   ar
   144    26    28   ar
   145    26    27   ar
   146   115   116    1
   147   143   140    1
   148   143   144    1
   149   140   139    1
   150   140   141    1
   151   138   137    2
   152   139   137   am
   153   137   136    1
   154   136   135    1
   155   116   119    1
   156   116   117    1
   157   144   145    2
   158   144   146   am
   159   135   126   am
   160   141   142    2
   161   119   120    1
   162   117   124   am
   163   117   118    2
   164   124   125    1
   165   126   125    1
   166   126   127    2
   167   125   128    1
   168   120   121    1
   169   121   122    1
   170   128   129    1
   171   131   133   ar
   172   131   129   ar
   173   133   134   ar
   174   129   130   ar
   175   122   123    1
   176   134   132   ar
   177   130   132   ar
