@<TRIPOS>MOLECULE
tmp/3wzeA00.pdb
 213 203 0 0 0
SMALL
GASTEIGER

@<TRIPOS>ATOM
      1  N         15.9330   23.0250   45.9520 N.3    26  LEU26      -0.1245
      2  CA        15.5780   23.6330   44.6860 C.3    26  LEU26       0.1561
      3  C         15.2820   22.5540   43.6210 C.2    26  LEU26       0.2260
      4  O         14.5120   22.8130   42.7300 O.2    26  LEU26      -0.2867
      5  CB        16.6960   24.5550   44.2370 C.3    26  LEU26       0.0270
      6  CG        16.8930   25.7620   45.1730 C.3    26  LEU26       0.0019
      7  CD1       18.1320   26.4930   44.7620 C.3    26  LEU26       0.0001
      8  CD2       15.6870   26.6810   45.1920 C.3    26  LEU26       0.0001
      9  N         19.7780   19.8430   44.2550 N.3    34  VAL34      -0.1245
     10  CA        20.2590   21.2120   44.3650 C.3    34  VAL34       0.1561
     11  C         19.5670   21.8270   45.5610 C.2    34  VAL34       0.2260
     12  O         18.3440   21.7190   45.7350 O.2    34  VAL34      -0.2867
     13  CB        20.0150   22.0270   43.0620 C.3    34  VAL34       0.0252
     14  CG1       20.4180   23.4880   43.2390 C.3    34  VAL34       0.0019
     15  CG2       20.7740   21.4300   41.9080 C.3    34  VAL34       0.0019
     16  N         23.1720   28.4760   44.8330 N.3    52  ALA52      -0.1245
     17  CA        22.5670   27.1560   44.5940 C.3    52  ALA52       0.1562
     18  C         23.6790   26.1050   44.6830 C.2    52  ALA52       0.2260
     19  O         24.7220   26.2680   44.1260 O.2    52  ALA52      -0.2867
     20  CB        21.9030   27.1030   43.2340 C.3    52  ALA52       0.0290
     21  N         24.8490   22.1990   44.2640 N.3    54  LYS54      -0.1245
     22  CA        24.5630   20.8730   43.7270 C.3    54  LYS54       0.1561
     23  C         25.3930   19.8340   44.4680 C.2    54  LYS54       0.2260
     24  O         26.5940   20.0020   44.6210 O.2    54  LYS54      -0.2867
     25  CB        24.8600   20.8020   42.2530 C.3    54  LYS54       0.0271
     26  CG        24.3950   19.4950   41.6030 C.3    54  LYS54       0.0035
     27  CD        24.3530   19.7630   40.1220 C.3    54  LYS54       0.0206
     28  CE        24.0770   18.5490   39.2900 C.3    54  LYS54       0.1093
     29  NZ        24.0860   19.0790   37.8970 N.3    54  LYS54      -0.1314
     30  N         31.7250   17.2060   36.6060 N.3    71  GLU71      -0.1245
     31  CA        30.9140   18.3900   36.3540 C.3    71  GLU71       0.1567
     32  C         31.6110   19.6760   36.8500 C.2    71  GLU71       0.2260
     33  O         31.5770   20.6940   36.1570 O.2    71  GLU71      -0.2867
     34  CB        29.5500   18.2370   37.0080 C.3    71  GLU71       0.0388
     35  CG        28.7690   19.5330   37.1290 C.3    71  GLU71       0.1160
     36  CD        27.3390   19.3100   37.5380 C.2    71  GLU71       0.3649
     37  OE1       26.9640   18.1670   37.8010 O.co2  71  GLU71      -0.2457
     38  OE2       26.5880   20.2890   37.6430 O.co2  71  GLU71      -0.2457
     39  N         34.3910   20.4490   34.3300 N.3    74  ILE74      -0.1231
     40  CA        33.7880   20.9670   33.1100 C.3    74  ILE74       0.1692
     41  C         33.4260   22.4400   33.2670 C.2    74  ILE74       0.2591
     42  O         33.7310   23.2340   32.3640 O.2    74  ILE74      -0.2718
     43  CB        32.5670   20.1100   32.6650 C.3    74  ILE74       0.0266
     44  CG1       33.0550   18.7460   32.1620 C.3    74  ILE74       0.0019
     45  CG2       31.7840   20.7870   31.5440 C.3    74  ILE74       0.0020
     46  CD1       31.9920   17.6750   32.1320 C.3    74  ILE74       0.0001
     47  N         32.7840   22.8110   34.3870 N.am   75  LEU75      -0.1980
     48  CA        32.4660   24.2020   34.6750 C.3    75  LEU75       0.1596
     49  C         33.6880   25.0980   34.8180 C.2    75  LEU75       0.2287
     50  O         33.6720   26.2270   34.3410 O.2    75  LEU75      -0.2864
     51  CB        31.5340   24.3570   35.8680 C.3    75  LEU75       0.0297
     52  CG        30.1200   23.8710   35.6610 C.3    75  LEU75       0.0022
     53  CD1       29.3470   23.7560   36.9660 C.3    75  LEU75       0.0001
     54  CD2       29.3710   24.8030   34.7330 C.3    75  LEU75       0.0001
     55  N         34.9730   25.3880   31.0960 N.3    78  ILE78      -0.1245
     56  CA        34.1690   26.2660   30.2810 C.3    78  ILE78       0.1561
     57  C         34.4670   27.7640   30.5750 C.2    78  ILE78       0.2260
     58  O         34.6180   28.5560   29.6540 O.2    78  ILE78      -0.2867
     59  CB        32.6810   25.9230   30.4380 C.3    78  ILE78       0.0252
     60  CG1       32.3610   24.6300   29.6790 C.3    78  ILE78       0.0019
     61  CG2       31.7900   27.0520   29.9330 C.3    78  ILE78       0.0019
     62  CD1       31.1280   23.9340   30.2010 C.3    78  ILE78       0.0001
     63  N         25.7930   31.3770   30.7590 N.3    84  VAL84      -0.1231
     64  CA        26.0730   30.0270   31.2750 C.3    84  VAL84       0.1692
     65  C         26.0400   30.1690   32.7880 C.2    84  VAL84       0.2591
     66  O         26.6520   31.1070   33.3560 O.2    84  VAL84      -0.2718
     67  CB        27.4440   29.5240   30.7770 C.3    84  VAL84       0.0266
     68  CG1       27.8340   28.2000   31.4440 C.3    84  VAL84       0.0020
     69  CG2       27.4360   29.3560   29.2430 C.3    84  VAL84       0.0020
     70  N         25.3730   29.2450   33.4720 N.am   85  VAL85      -0.1980
     71  CA        25.2920   29.3400   34.9340 C.3    85  VAL85       0.1595
     72  C         26.7370   29.4450   35.5170 C.2    85  VAL85       0.2287
     73  O         27.6350   28.6730   35.1350 O.2    85  VAL85      -0.2864
     74  CB        24.4800   28.1680   35.5350 C.3    85  VAL85       0.0276
     75  CG1       25.2100   26.8440   35.3510 C.3    85  VAL85       0.0022
     76  CG2       24.1490   28.4350   36.9920 C.3    85  VAL85       0.0022
     77  N         29.0990   21.6110   44.7080 N.3   100  VAL100     -0.1245
     78  CA        29.3960   22.4720   43.5870 C.3   100  VAL100      0.1561
     79  C         28.4720   23.6800   43.7330 C.2   100  VAL100      0.2260
     80  O         27.2710   23.5460   43.6320 O.2   100  VAL100     -0.2867
     81  CB        29.1520   21.7370   42.2560 C.3   100  VAL100      0.0252
     82  CG1       29.4300   22.6710   41.0860 C.3   100  VAL100      0.0019
     83  CG2       30.0810   20.5560   42.1590 C.3   100  VAL100      0.0019
     84  N         27.0350   27.2860   42.6120 N.3   102  VAL102     -0.1231
     85  CA        26.7920   28.1800   41.4920 C.3   102  VAL102      0.1692
     86  C         25.8880   29.3100   41.9160 C.2   102  VAL102      0.2592
     87  O         25.2990   29.2610   42.9890 O.2   102  VAL102     -0.2718
     88  CB        26.1910   27.3870   40.2830 C.3   102  VAL102      0.0266
     89  CG1       27.0650   26.2250   39.9320 C.3   102  VAL102      0.0020
     90  CG2       24.7610   26.8870   40.4960 C.3   102  VAL102      0.0020
     91  N         25.7710   30.3400   41.0600 N.am  103  GLU103     -0.1966
     92  CA        24.8740   31.4390   41.2760 C.3   103  GLU103      0.1733
     93  C         23.4100   30.9740   41.3410 C.2   103  GLU103      0.2616
     94  O         23.0210   30.0090   40.6690 O.2   103  GLU103     -0.2715
     95  CB        25.0130   32.5150   40.1590 C.3   103  GLU103      0.0429
     96  CG        24.5400   32.0280   38.8150 C.3   103  GLU103      0.1163
     97  CD        24.6230   33.0730   37.7260 C.2   103  GLU103      0.3649
     98  OE1       24.2490   34.2510   37.9530 O.co2 103  GLU103     -0.2457
     99  OE2       25.0380   32.6620   36.6210 O.co2 103  GLU103     -0.2457
    100  N         22.6410   31.6230   42.2190 N.am  104  PHE104     -0.1960
    101  CA        21.2000   31.3970   42.3550 C.3   104  PHE104      0.1771
    102  C         20.5250   32.2740   41.2710 C.2   104  PHE104      0.2620
    103  O         20.9100   33.4080   41.0870 O.2   104  PHE104     -0.2715
    104  CB        20.7690   31.8160   43.7690 C.3   104  PHE104      0.0574
    105  CG        19.3000   31.7010   44.0310 C.ar  104  PHE104     -0.0200
    106  CD1       18.7300   30.4890   44.2800 C.ar  104  PHE104     -0.0042
    107  CD2       18.4850   32.8240   43.9450 C.ar  104  PHE104     -0.0042
    108  CE1       17.3650   30.3890   44.4840 C.ar  104  PHE104     -0.0003
    109  CE2       17.1270   32.7350   44.1520 C.ar  104  PHE104     -0.0003
    110  CZ        16.5620   31.5130   44.4230 C.ar  104  PHE104     -0.0000
    111  N         19.5360   31.7320   40.5680 N.am  105  CYS105     -0.1954
    112  CA        18.8030   32.4470   39.5350 C.3   105  CYS105      0.1843
    113  C         17.3620   32.5270   40.0080 C.2   105  CYS105      0.2625
    114  O         16.6710   31.5130   40.1170 O.2   105  CYS105     -0.2714
    115  CB        18.8950   31.7140   38.1870 C.3   105  CYS105      0.0997
    116  SG        20.5990   31.6320   37.5620 S.3   105  CYS105     -0.0797
    117  N         16.9240   33.7550   40.2590 N.am  106  LYS106     -0.1963
    118  CA        15.6620   34.0480   40.9520 C.3   106  LYS106      0.1728
    119  C         14.4620   33.2580   40.4590 C.2   106  LYS106      0.2616
    120  O         13.7200   32.7160   41.2660 O.2   106  LYS106     -0.2715
    121  CB        15.3180   35.5380   40.8190 C.3   106  LYS106      0.0311
    122  CG        14.2860   36.0240   41.8290 C.3   106  LYS106      0.0038
    123  CD        13.9040   37.4650   41.5610 C.3   106  LYS106      0.0206
    124  CE        12.6440   37.8720   42.2940 C.3   106  LYS106      0.1093
    125  NZ        12.4170   39.3270   42.0970 N.3   106  LYS106     -0.1314
    126  N         14.2890   33.1820   39.1370 N.am  107  PHE107     -0.1960
    127  CA        13.0290   32.7330   38.5690 C.3   107  PHE107      0.1771
    128  C         13.0360   31.2620   38.2320 C.2   107  PHE107      0.2620
    129  O         12.0190   30.7840   37.7960 O.2   107  PHE107     -0.2715
    130  CB        12.6210   33.5660   37.3310 C.3   107  PHE107      0.0574
    131  CG        12.2350   34.9700   37.6550 C.ar  107  PHE107     -0.0200
    132  CD1       10.9780   35.2450   38.2000 C.ar  107  PHE107     -0.0042
    133  CD2       13.1350   36.0200   37.4660 C.ar  107  PHE107     -0.0042
    134  CE1       10.6170   36.5460   38.5130 C.ar  107  PHE107     -0.0003
    135  CE2       12.7730   37.3230   37.7650 C.ar  107  PHE107     -0.0003
    136  CZ        11.5160   37.5860   38.2970 C.ar  107  PHE107     -0.0000
    137  N         14.1470   30.5340   38.4330 N.am  108  GLY108     -0.1954
    138  CA        14.0940   29.0770   38.2760 C.3   108  GLY108      0.1869
    139  C         14.1410   28.7420   36.8000 C.2   108  GLY108      0.2309
    140  O         14.5830   29.5580   35.9950 O.2   108  GLY108     -0.2863
    141  N         29.7980   27.7920   24.5040 N.3   151  LEU151     -0.1245
    142  CA        30.0530   26.3880   24.8380 C.3   151  LEU151      0.1561
    143  C         30.7460   25.6930   23.6660 C.2   151  LEU151      0.2260
    144  O         31.7330   24.9740   23.8520 O.2   151  LEU151     -0.2867
    145  CB        28.7580   25.6430   25.2240 C.3   151  LEU151      0.0270
    146  CG        28.3650   25.6070   26.7050 C.3   151  LEU151      0.0019
    147  CD1       26.9470   25.0670   26.8610 C.3   151  LEU151      0.0001
    148  CD2       29.3340   24.7260   27.4640 C.3   151  LEU151      0.0001
    149  N         32.8370   22.0790   23.8680 N.3   156  CYS156     -0.1221
    150  CA        31.8810   21.3460   24.7150 C.3   156  CYS156      0.1808
    151  C         30.5830   21.1350   23.9310 C.2   156  CYS156      0.2601
    152  O         30.3260   21.8150   22.9290 O.2   156  CYS156     -0.2717
    153  CB        31.6630   22.0930   26.0640 C.3   156  CYS156      0.0970
    154  SG        33.1400   22.0150   27.1230 S.3   156  CYS156     -0.0800
    155  N         29.8240   20.1120   24.3040 N.am  157  ILE157     -0.1965
    156  CA        28.4500   19.9390   23.8290 C.3   157  ILE157      0.1727
    157  C         27.5710   19.6980   25.0590 C.2   157  ILE157      0.2616
    158  O         28.0320   19.1240   26.0350 O.2   157  ILE157     -0.2715
    159  CB        28.3210   18.8170   22.7630 C.3   157  ILE157      0.0290
    160  CG1       28.5730   17.4250   23.3420 C.3   157  ILE157      0.0022
    161  CG2       29.2970   19.0780   21.6220 C.3   157  ILE157      0.0023
    162  CD1       28.4540   16.3140   22.3140 C.3   157  ILE157      0.0001
    163  N         26.3180   20.1390   25.0050 N.am  158  HIS158     -0.1973
    164  CA        25.4190   20.1000   26.1500 C.3   158  HIS158      0.1656
    165  C         24.8190   18.7040   26.3260 C.2   158  HIS158      0.2291
    166  O         24.8690   18.1400   27.4040 O.2   158  HIS158     -0.2864
    167  CB        24.3120   21.1570   25.9820 C.3   158  HIS158      0.0771
    168  CG        23.5610   21.4530   27.2400 C.ar  158  HIS158      0.0820
    169  ND1       22.7250   20.5500   27.8490 N.ar  158  HIS158     -0.2267
    170  CD2       23.5580   22.5510   28.0360 C.ar  158  HIS158      0.1154
    171  CE1       22.2400   21.0680   28.9610 C.ar  158  HIS158      0.1986
    172  NE2       22.7250   22.2870   29.0890 N.ar  158  HIS158     -0.2212
    173  N         17.8540   28.7030   33.0550 N.3   167  LEU167     -0.1245
    174  CA        17.5010   29.4730   34.2110 C.3   167  LEU167      0.1561
    175  C         17.2890   30.9380   33.8180 C.2   167  LEU167      0.2260
    176  O         17.9580   31.4510   32.9350 O.2   167  LEU167     -0.2867
    177  CB        18.6430   29.3980   35.2090 C.3   167  LEU167      0.0270
    178  CG        18.9850   27.9720   35.7470 C.3   167  LEU167      0.0019
    179  CD1       20.3710   27.9470   36.3540 C.3   167  LEU167      0.0001
    180  CD2       17.9980   27.4280   36.7310 C.3   167  LEU167      0.0001
    181  N         22.1880   29.0010   30.6360 N.3   176  ILE176     -0.1231
    182  CA        22.2050   27.5800   30.3050 C.3   176  ILE176      0.1692
    183  C         22.7580   26.8530   31.5260 C.2   176  ILE176      0.2592
    184  O         23.7270   27.2990   32.1900 O.2   176  ILE176     -0.2718
    185  CB        23.1030   27.3320   29.0740 C.3   176  ILE176      0.0266
    186  CG1       22.5480   28.0760   27.8580 C.3   176  ILE176      0.0019
    187  CG2       23.2470   25.8450   28.7390 C.3   176  ILE176      0.0020
    188  CD1       23.4990   28.0950   26.6890 C.3   176  ILE176      0.0001
    189  N         22.1580   25.7240   31.8130 N.am  177  CYS177     -0.1956
    190  CA        22.5940   24.8740   32.8980 C.3   177  CYS177      0.1843
    191  C         22.2800   23.4310   32.5490 C.2   177  CYS177      0.2625
    192  O         21.7590   23.1640   31.4850 O.2   177  CYS177     -0.2714
    193  CB        21.8790   25.3030   34.1910 C.3   177  CYS177      0.0997
    194  SG        20.1900   24.7380   34.3830 S.3   177  CYS177     -0.0797
    195  N         22.6590   22.5280   33.4340 N.am  178  ASP178     -0.1957
    196  CA        22.3300   21.0970   33.3360 C.3   178  ASP178      0.1840
    197  C         22.0530   20.5950   34.7500 C.2   178  ASP178      0.2622
    198  O         22.9620   20.4580   35.5360 O.2   178  ASP178     -0.2715
    199  CB        23.5100   20.3680   32.6720 C.3   178  ASP178      0.1450
    200  CG        23.2160   18.8870   32.3610 C.2   178  ASP178      0.3671
    201  OD1       22.1300   18.5690   31.8750 O.co2 178  ASP178     -0.2456
    202  OD2       24.0810   18.0350   32.6130 O.co2 178  ASP178     -0.2456
    203  N         20.7760   20.3540   35.0830 N.am  179  PHE179     -0.1974
    204  CA        20.4040   19.8270   36.3850 C.3   179  PHE179      0.1639
    205  C         20.9290   18.3960   36.5420 C.2   179  PHE179      0.2290
    206  O         21.2310   17.9520   37.6560 O.2   179  PHE179     -0.2864
    207  CB        18.8670   19.9090   36.6030 C.3   179  PHE179      0.0560
    208  CG        18.3730   21.2650   37.0490 C.ar  179  PHE179     -0.0200
    209  CD1       18.0190   22.2400   36.1040 C.ar  179  PHE179     -0.0042
    210  CD2       18.2060   21.5620   38.3940 C.ar  179  PHE179     -0.0042
    211  CE1       17.5500   23.4720   36.5120 C.ar  179  PHE179     -0.0003
    212  CE2       17.7100   22.8040   38.7960 C.ar  179  PHE179     -0.0003
    213  CZ        17.3780   23.7540   37.8420 C.ar  179  PHE179     -0.0000
@<TRIPOS>BOND
     1   161   159    1
     2   162   160    1
     3   159   160    1
     4   159   156    1
     5   152   151    2
     6   143   144    2
     7   143   142    1
     8   156   155    1
     9   156   157    1
    10   149   150    1
    11   151   155   am
    12   151   150    1
    13   141   142    1
    14   150   153    1
    15   142   145    1
    16   163   157   am
    17   163   164    1
    18   157   158    2
    19   145   146    1
    20   167   164    1
    21   167   168    1
    22   153   154    1
    23   164   165    1
    24   165   166    2
    25   188   186    1
    26   146   147    1
    27   146   148    1
    28   168   169   ar
    29   168   170   ar
    30   169   171   ar
    31   186   185    1
    32   170   172   ar
    33   187   185    1
    34   171   172   ar
    35   185   182    1
    36    69    67    1
    37    58    57    2
    38    60    62    1
    39    60    59    1
    40    61    59    1
    41    56    59    1
    42    56    57    1
    43    56    55    1
    44   182   181    1
    45   182   183    1
    46    63    64    1
    47    67    64    1
    48    67    68    1
    49    64    65    1
    50   192   191    2
    51   183   189   am
    52   183   184    2
    53    45    43    1
    54   189   190    1
    55   201   200   ar
    56    46    44    1
    57    44    43    1
    58   200   202   ar
    59   200   199    1
    60    42    41    2
    61   191   190    1
    62   191   195   am
    63    43    40    1
    64   199   196    1
    65    65    66    2
    66    65    70   am
    67   190   193    1
    68   176   175    2
    69   173   174    1
    70    40    41    1
    71    40    39    1
    72    41    47   am
    73   196   195    1
    74   196   197    1
    75    70    71    1
    76   175   174    1
    77   193   194    1
    78   174   177    1
    79    50    49    2
    80    47    48    1
    81    48    49    1
    82    48    51    1
    83    54    52    1
    84   197   203   am
    85   197   198    2
    86    71    72    1
    87    71    74    1
    88   203   204    1
    89    73    72    2
    90   177   178    1
    91    75    74    1
    92    74    76    1
    93    52    51    1
    94    52    53    1
    95   178   179    1
    96   178   180    1
    97   140   139    2
    98   209   211   ar
    99   209   208   ar
   100    33    32    2
   101    31    30    1
   102    31    32    1
   103    31    34    1
   104   204   205    1
   105   204   207    1
   106   211   213   ar
   107   205   206    2
   108   207   208    1
   109    99    97   ar
   110   139   138    1
   111    34    35    1
   112   208   210   ar
   113    35    36    1
   114   130   131    1
   115   130   127    1
   116   133   131   ar
   117   133   135   ar
   118    36    38   ar
   119    36    37   ar
   120   116   115    1
   121   131   132   ar
   122    97    98   ar
   123    97    96    1
   124   135   136   ar
   125   129   128    2
   126   213   212   ar
   127    29    28    1
   128   115   112    1
   129   132   134   ar
   130   128   137   am
   131   128   127    1
   132   138   137    1
   133   136   134   ar
   134   210   212   ar
   135   127   126    1
   136    96    95    1
   137   126   119   am
   138    28    27    1
   139   112   113    1
   140   112   111    1
   141    89    88    1
   142   113   114    2
   143   113   117   am
   144    27    26    1
   145    95    92    1
   146   117   118    1
   147    88    90    1
   148    88    85    1
   149   119   118    1
   150   119   120    2
   151   111   102   am
   152    94    93    2
   153   121   118    1
   154   121   122    1
   155    91    92    1
   156    91    86   am
   157    82    81    1
   158   103   102    2
   159   102   101    1
   160    92    93    1
   161    93   100   am
   162    85    86    1
   163    85    84    1
   164   123   122    1
   165   123   124    1
   166    26    25    1
   167    15    13    1
   168    86    87    2
   169   125   124    1
   170    83    81    1
   171   100   101    1
   172    25    22    1
   173    81    78    1
   174   101   104    1
   175     4     3    2
   176    13    14    1
   177    13    10    1
   178    20    17    1
   179    78    79    1
   180    78    77    1
   181     3     2    1
   182    80    79    2
   183    22    21    1
   184    22    23    1
   185   104   105    1
   186   107   105   ar
   187   107   109   ar
   188   105   106   ar
   189    19    18    2
   190   109   110   ar
   191     5     2    1
   192     5     6    1
   193     9    10    1
   194   106   108   ar
   195    10    11    1
   196   110   108   ar
   197    23    24    2
   198    17    18    1
   199    17    16    1
   200     2     1    1
   201     7     6    1
   202     6     8    1
   203    11    12    2
