@<TRIPOS>MOLECULE
tmp/3wziB00.pdb
 168 169 0 0 0
SMALL
GASTEIGER

@<TRIPOS>ATOM
      1  N         -3.8560    0.1460  -34.1840 N.3    17  HIS17      -0.1241
      2  CA        -4.8260   -0.7930  -33.7560 C.3    17  HIS17       0.1621
      3  C         -4.1870   -1.8060  -32.8900 C.2    17  HIS17       0.2264
      4  O         -3.2150   -2.3880  -33.2930 O.2    17  HIS17      -0.2867
      5  CB        -5.3710   -1.5210  -34.9430 C.3    17  HIS17       0.0745
      6  CG        -6.4570   -2.4820  -34.5820 C.ar   17  HIS17       0.0817
      7  ND1       -6.3640   -3.8290  -34.8170 N.ar   17  HIS17      -0.2268
      8  CD2       -7.6270   -2.2950  -33.9480 C.ar   17  HIS17       0.1154
      9  CE1       -7.4370   -4.4340  -34.3650 C.ar   17  HIS17       0.1986
     10  NE2       -8.2280   -3.5190  -33.8460 N.ar   17  HIS17      -0.2212
     11  N         -5.4640   -7.7230  -27.9530 N.3    20  ILE20      -0.1245
     12  CA        -5.2150   -8.1600  -26.6100 C.3    20  ILE20       0.1561
     13  C         -5.6080   -9.5900  -26.4190 C.2    20  ILE20       0.2260
     14  O         -6.6880  -10.0040  -26.8320 O.2    20  ILE20      -0.2867
     15  CB        -6.1370   -7.4320  -25.6500 C.3    20  ILE20       0.0252
     16  CG1       -5.6850   -5.9970  -25.4820 C.3    20  ILE20       0.0019
     17  CG2       -6.1490   -8.1450  -24.3220 C.3    20  ILE20       0.0019
     18  CD1       -4.1590   -5.8360  -25.3680 C.3    20  ILE20       0.0001
     19  N         -6.5070  -12.4790  -23.7210 N.3    22  LYS22      -0.1231
     20  CA        -7.0010  -12.7570  -22.3690 C.3    22  LYS22       0.1678
     21  C         -7.6720  -11.5330  -21.7600 C.2    22  LYS22       0.2434
     22  O         -7.9720  -10.5850  -22.4910 O.2    22  LYS22      -0.2733
     23  CB        -5.8380  -13.2450  -21.4820 C.3    22  LYS22       0.0284
     24  CG        -5.1090  -14.4560  -22.0290 C.3    22  LYS22       0.0035
     25  CD        -4.1020  -14.9920  -21.0280 C.3    22  LYS22       0.0206
     26  CE        -3.4330  -16.2470  -21.5660 C.3    22  LYS22       0.1093
     27  NZ        -2.4620  -16.8140  -20.5960 N.3    22  LYS22      -0.1314
     28  N         -7.9420  -11.5760  -20.4310 N.am   23  PRO23      -0.2718
     29  CA        -8.1660  -10.3580  -19.6780 C.3    23  PRO23       0.1535
     30  C         -6.8210   -9.7800  -19.1860 C.2    23  PRO23       0.2598
     31  O         -6.0250  -10.4610  -18.5470 O.2    23  PRO23      -0.2715
     32  CB        -9.0720  -10.8000  -18.5080 C.3    23  PRO23       0.0310
     33  CG        -9.3540  -12.2460  -18.7470 C.3    23  PRO23       0.0237
     34  CD        -8.2420  -12.7490  -19.5950 C.3    23  PRO23       0.0939
     35  N         -6.5900   -8.5240  -19.5080 N.am   24  ILE24      -0.1978
     36  CA        -5.4390   -7.7980  -19.0550 C.3    24  ILE24       0.1596
     37  C         -5.5160   -7.3610  -17.5940 C.2    24  ILE24       0.2287
     38  O         -6.6060   -7.1660  -17.0530 O.2    24  ILE24      -0.2864
     39  CB        -5.3610   -6.5450  -19.9000 C.3    24  ILE24       0.0276
     40  CG1       -5.0940   -6.9520  -21.3100 C.3    24  ILE24       0.0022
     41  CG2       -4.2260   -5.6600  -19.4770 C.3    24  ILE24       0.0022
     42  CD1       -5.1990   -5.7870  -22.2490 C.3    24  ILE24       0.0001
     43  N         -7.4030    2.4430  -31.9460 N.3    46  SER46      -0.1202
     44  CA        -8.5110    1.5170  -31.9000 C.3    46  SER46       0.2020
     45  C         -8.0460    0.2190  -31.3210 C.2    46  SER46       0.2619
     46  O         -6.8610   -0.0260  -31.2770 O.2    46  SER46      -0.2717
     47  CB        -9.0470    1.2540  -33.2920 C.3    46  SER46       0.2103
     48  OG        -8.0040    0.7460  -34.0830 O.3    46  SER46      -0.2182
     49  N         -9.0060   -0.6180  -30.9150 N.am   47  GLY47      -0.1942
     50  CA        -8.7090   -1.8810  -30.2730 C.3    47  GLY47       0.2014
     51  C         -9.7360   -2.2000  -29.2480 C.2    47  GLY47       0.2639
     52  O        -10.2210   -1.2850  -28.6290 O.2    47  GLY47      -0.2714
     53  N        -10.0750   -3.4710  -29.0440 N.am   48  ARG48      -0.1963
     54  CA       -11.0330   -3.8080  -27.9790 C.3    48  ARG48       0.1729
     55  C        -10.2450   -3.9360  -26.7150 C.2    48  ARG48       0.2617
     56  O         -9.3990   -4.7850  -26.5980 O.2    48  ARG48      -0.2715
     57  CB       -11.8250   -5.1080  -28.2140 C.3    48  ARG48       0.0348
     58  CG       -12.7620   -5.0390  -29.3990 C.3    48  ARG48       0.0492
     59  CD       -13.5650   -6.3130  -29.6420 C.3    48  ARG48       0.2205
     60  NE       -14.0770   -6.3320  -31.0350 N.pl3  48  ARG48      -0.0865
     61  CZ       -14.8760   -7.2680  -31.5550 C.cat  48  ARG48       0.5346
     62  NH1      -15.2570   -8.2960  -30.8120 N.pl3  48  ARG48       0.1354
     63  NH2      -15.2870   -7.1830  -32.8280 N.pl3  48  ARG48       0.1354
     64  N        -10.5280   -3.0900  -25.7540 N.am   49  GLY49      -0.1941
     65  CA        -9.9020   -3.2140  -24.4480 C.3    49  GLY49       0.1998
     66  C        -10.5640   -2.2560  -23.4910 C.2    49  GLY49       0.2481
     67  O        -11.3920   -1.4700  -23.8960 O.2    49  GLY49      -0.2729
     68  N        -10.1760   -2.2850  -22.2450 N.am   50  PRO50      -0.2715
     69  CA       -10.8270   -1.4450  -21.3160 C.3    50  PRO50       0.1536
     70  C        -10.4580    0.0040  -21.4470 C.2    50  PRO50       0.2598
     71  O         -9.5020    0.3610  -22.1070 O.2    50  PRO50      -0.2715
     72  CB       -10.3590   -1.9890  -19.9660 C.3    50  PRO50       0.0310
     73  CG        -9.0170   -2.4530  -20.2310 C.3    50  PRO50       0.0237
     74  CD        -9.0010   -2.9160  -21.6740 C.3    50  PRO50       0.0939
     75  N        -11.2110    0.8360  -20.7480 N.am   51  ILE51      -0.1964
     76  CA       -11.0760    2.2480  -20.9100 C.3    51  ILE51       0.1727
     77  C         -9.7020    2.7520  -20.5490 C.2    51  ILE51       0.2616
     78  O         -9.1190    3.5990  -21.2580 O.2    51  ILE51      -0.2715
     79  CB       -12.1260    2.9710  -20.0990 C.3    51  ILE51       0.0290
     80  CG1      -13.4810    2.7440  -20.7450 C.3    51  ILE51       0.0022
     81  CG2      -11.8530    4.4580  -20.1230 C.3    51  ILE51       0.0023
     82  CD1      -14.5860    3.3220  -19.9100 C.3    51  ILE51       0.0001
     83  N         -9.2220    2.2880  -19.4160 N.am   52  TRP52      -0.1974
     84  CA        -7.8990    2.7170  -18.9510 C.3    52  TRP52       0.1640
     85  C         -6.7660    2.4230  -19.9530 C.2    52  TRP52       0.2290
     86  O         -5.7910    3.1240  -20.0040 O.2    52  TRP52      -0.2864
     87  CB        -7.5600    2.1430  -17.5690 C.3    52  TRP52       0.0576
     88  CG        -7.8510    0.6860  -17.3160 C.ar   52  TRP52       0.0006
     89  CD1       -8.9790    0.1340  -16.7640 C.ar   52  TRP52       0.0946
     90  CD2       -6.9590   -0.3840  -17.5400 C.ar   52  TRP52       0.0152
     91  NE1       -8.8450   -1.2300  -16.6680 N.ar   52  TRP52      -0.2442
     92  CE2       -7.6160   -1.5780  -17.1440 C.ar   52  TRP52       0.0810
     93  CE3       -5.6700   -0.4570  -18.0500 C.ar   52  TRP52       0.0012
     94  CZ2       -7.0170   -2.8020  -17.2200 C.ar   52  TRP52       0.0191
     95  CZ3       -5.0890   -1.6590  -18.1450 C.ar   52  TRP52       0.0001
     96  CH2       -5.7510   -2.8270  -17.7310 C.ar   52  TRP52       0.0015
     97  N         -7.1290    2.5290  -23.3200 N.3    54  HIS54      -0.1241
     98  CA        -7.2850    3.6020  -24.2990 C.3    54  HIS54       0.1621
     99  C         -6.7850    4.9460  -23.7880 C.2    54  HIS54       0.2264
    100  O         -6.1760    5.7360  -24.5220 O.2    54  HIS54      -0.2867
    101  CB        -8.7460    3.7410  -24.6100 C.3    54  HIS54       0.0745
    102  CG        -9.2200    2.7510  -25.5910 C.ar   54  HIS54       0.0817
    103  ND1       -9.7900    1.5610  -25.2120 N.ar   54  HIS54      -0.2268
    104  CD2       -9.2060    2.7650  -26.9460 C.ar   54  HIS54       0.1154
    105  CE1      -10.0900    0.8640  -26.2930 C.ar   54  HIS54       0.1986
    106  NE2       -9.7400    1.5720  -27.3590 N.ar   54  HIS54      -0.2212
    107  N        -11.1920    5.6730  -31.6880 N.3    70  TYR70      -0.1227
    108  CA       -12.1230    5.0610  -32.5810 C.3    70  TYR70       0.1736
    109  C        -13.3550    4.5760  -31.8650 C.2    70  TYR70       0.2595
    110  O        -13.2950    4.1730  -30.7200 O.2    70  TYR70      -0.2718
    111  CB       -11.5430    3.9130  -33.3140 C.3    70  TYR70       0.0548
    112  CG       -12.4310    3.3670  -34.3990 C.ar   70  TYR70      -0.0200
    113  CD1      -12.7060    4.1040  -35.5580 C.ar   70  TYR70      -0.0009
    114  CD2      -13.0250    2.1090  -34.2750 C.ar   70  TYR70      -0.0009
    115  CE1      -13.5250    3.5740  -36.5630 C.ar   70  TYR70       0.0417
    116  CE2      -13.8160    1.5600  -35.2830 C.ar   70  TYR70       0.0417
    117  CZ       -14.0590    2.2830  -36.4040 C.ar   70  TYR70       0.1957
    118  OH       -14.7740    1.7160  -37.3930 O.3    70  TYR70      -0.2866
    119  N        -14.4600    4.6550  -32.5980 N.am   71  ASP71      -0.1960
    120  CA       -15.7640    4.1710  -32.1850 C.3    71  ASP71       0.1825
    121  C        -16.5110    3.6030  -33.4100 C.2    71  ASP71       0.2464
    122  O        -16.8710    4.3620  -34.3280 O.2    71  ASP71      -0.2730
    123  CB       -16.5380    5.3310  -31.5770 C.3    71  ASP71       0.1450
    124  CG       -17.9020    4.9450  -31.1510 C.2    71  ASP71       0.3671
    125  OD1      -18.4620    4.0020  -31.7370 O.co2  71  ASP71      -0.2456
    126  OD2      -18.3920    5.5720  -30.2010 O.co2  71  ASP71      -0.2456
    127  N        -16.7360    2.2890  -33.4320 N.am   72  PRO72      -0.2715
    128  CA       -17.2500    1.5780  -34.5830 C.3    72  PRO72       0.1536
    129  C        -18.5550    2.1140  -35.0970 C.2    72  PRO72       0.2598
    130  O        -18.8110    2.0130  -36.2820 O.2    72  PRO72      -0.2715
    131  CB       -17.4780    0.1820  -34.0520 C.3    72  PRO72       0.0310
    132  CG       -16.5580    0.0320  -32.8970 C.3    72  PRO72       0.0237
    133  CD       -16.5680    1.3930  -32.2850 C.3    72  PRO72       0.0939
    134  N        -19.3640    2.6950  -34.2080 N.am   73  ARG73      -0.1964
    135  CA       -20.6180    3.3780  -34.5620 C.3    73  ARG73       0.1729
    136  C        -20.4510    4.7030  -35.3000 C.2    73  ARG73       0.2616
    137  O        -21.1880    4.9940  -36.1640 O.2    73  ARG73      -0.2715
    138  CB       -21.3970    3.6520  -33.2930 C.3    73  ARG73       0.0348
    139  CG       -21.5980    2.4410  -32.3800 C.3    73  ARG73       0.0492
    140  CD       -22.4660    2.7740  -31.1610 C.3    73  ARG73       0.2205
    141  NE       -22.9000    1.5870  -30.3960 N.pl3  73  ARG73      -0.0865
    142  CZ       -23.8500    1.5720  -29.4510 C.cat  73  ARG73       0.5346
    143  NH1      -24.5020    2.6810  -29.1130 N.pl3  73  ARG73       0.1354
    144  NH2      -24.1610    0.4350  -28.8370 N.pl3  73  ARG73       0.1354
    145  N        -19.4030    5.4700  -35.0220 N.am   74  LEU74      -0.1977
    146  CA       -19.2770    6.8540  -35.4960 C.3    74  LEU74       0.1596
    147  C        -18.1230    7.1420  -36.3860 C.2    74  LEU74       0.2287
    148  O        -18.2030    7.9180  -37.3340 O.2    74  LEU74      -0.2864
    149  CB       -19.0840    7.7410  -34.2870 C.3    74  LEU74       0.0297
    150  CG       -20.2340    7.6000  -33.3020 C.3    74  LEU74       0.0022
    151  CD1      -19.7690    8.0680  -31.9420 C.3    74  LEU74       0.0001
    152  CD2      -21.4310    8.3850  -33.7810 C.3    74  LEU74       0.0001
    153  N        -12.4360    0.9340  -39.4060 N.3    95  VAL95      -0.1231
    154  CA       -11.2920    0.1110  -39.0530 C.3    95  VAL95       0.1692
    155  C        -11.5060   -1.3440  -39.4140 C.2    95  VAL95       0.2591
    156  O        -10.5800   -1.9890  -39.8670 O.2    95  VAL95      -0.2718
    157  CB       -10.9520    0.2370  -37.5770 C.3    95  VAL95       0.0266
    158  CG1       -9.9230   -0.7850  -37.1850 C.3    95  VAL95       0.0020
    159  CG2      -10.4250    1.6270  -37.2850 C.3    95  VAL95       0.0020
    160  N        -12.7220   -1.8480  -39.2500 N.am   96  GLU96      -0.1979
    161  CA       -13.0040   -3.2370  -39.5960 C.3    96  GLU96       0.1602
    162  C        -12.7090   -3.4540  -41.0470 C.2    96  GLU96       0.2287
    163  O        -12.3680   -4.5560  -41.4450 O.2    96  GLU96      -0.2864
    164  CB       -14.4440   -3.5780  -39.3010 C.3    96  GLU96       0.0415
    165  CG       -14.8450   -3.2980  -37.8460 C.3    96  GLU96       0.1163
    166  CD       -16.2790   -3.7160  -37.5040 C.2    96  GLU96       0.3649
    167  OE1      -16.9150   -4.4600  -38.3020 O.co2  96  GLU96      -0.2457
    168  OE2      -16.7680   -3.3030  -36.4170 O.co2  96  GLU96      -0.2457
@<TRIPOS>BOND
     1   163   162    2
     2   162   161    1
     3   156   155    2
     4   161   164    1
     5   161   160    1
     6   155   160   am
     7   155   154    1
     8   153   154    1
     9   164   165    1
    10   154   157    1
    11   167   166   ar
    12   165   166    1
    13   157   159    1
    14   157   158    1
    15   166   168   ar
    16   118   117    1
    17   148   147    2
    18   115   117   ar
    19   115   113   ar
    20   117   116   ar
    21   147   146    1
    22   130   129    2
    23   137   136    2
    24   113   112   ar
    25   146   145    1
    26   146   149    1
    27   136   145   am
    28   136   135    1
    29   116   114   ar
    30   129   128    1
    31   129   134   am
    32     5     6    1
    33     5     2    1
    34     7     6   ar
    35     7     9   ar
    36   128   131    1
    37   128   127    1
    38     6     8   ar
    39   135   134    1
    40   135   138    1
    41   112   114   ar
    42   112   111    1
    43     9    10   ar
    44   122   121    2
    45   149   150    1
    46     1     2    1
    47    48    47    1
    48   131   132    1
    49     8    10   ar
    50   152   150    1
    51     2     3    1
    52   127   121   am
    53   127   133    1
    54   121   120    1
    55   111   108    1
    56   150   151    1
    57     4     3    2
    58   138   139    1
    59    47    44    1
    60   132   133    1
    61    63    61    1
    62   119   120    1
    63   119   109   am
    64   108   109    1
    65   108   107    1
    66   139   140    1
    67   120   123    1
    68    43    44    1
    69    44    45    1
    70   109   110    2
    71   125   124   ar
    72   123   124    1
    73    61    60    2
    74    61    62    1
    75    45    46    2
    76    45    49   am
    77   140   141    1
    78   124   126   ar
    79    60    59    1
    80    49    50    1
    81   141   142    2
    82    50    51    1
    83    59    58    1
    84   142   143    1
    85   142   144    1
    86    58    57    1
    87    51    53   am
    88    51    52    2
    89    53    54    1
    90    57    54    1
    91    54    55    1
    92    11    12    1
    93   106   104   ar
    94   106   105   ar
    95   104   102   ar
    96    14    13    2
    97    55    56    2
    98    55    64   am
    99    12    13    1
   100    12    15    1
   101   105   103   ar
   102    64    65    1
   103    15    16    1
   104    15    17    1
   105   102   103   ar
   106   102   101    1
   107    16    18    1
   108   101    98    1
   109   100    99    2
   110    65    66    1
   111    98    99    1
   112    98    97    1
   113    67    66    2
   114    19    20    1
   115    66    68   am
   116    22    21    2
   117    20    21    1
   118    20    23    1
   119    42    40    1
   120    68    74    1
   121    68    69    1
   122    71    70    2
   123    24    23    1
   124    24    25    1
   125    21    28   am
   126    74    73    1
   127    26    25    1
   128    26    27    1
   129    70    69    1
   130    70    75   am
   131    69    72    1
   132    40    39    1
   133    78    77    2
   134    76    75    1
   135    76    77    1
   136    76    79    1
   137    80    79    1
   138    80    82    1
   139    77    83   am
   140    28    29    1
   141    28    34    1
   142    73    72    1
   143    81    79    1
   144    86    85    2
   145    85    84    1
   146    39    41    1
   147    39    36    1
   148    29    30    1
   149    29    32    1
   150    34    33    1
   151    35    30   am
   152    35    36    1
   153    83    84    1
   154    30    31    2
   155    36    37    1
   156    84    87    1
   157    33    32    1
   158    95    93   ar
   159    95    96   ar
   160    93    90   ar
   161    96    94   ar
   162    37    38    2
   163    87    88    1
   164    90    88   ar
   165    90    92   ar
   166    88    89   ar
   167    94    92   ar
   168    92    91   ar
   169    89    91   ar
