@<TRIPOS>MOLECULE
tmp/3wzjA00.pdb
 207 193 0 0 0
SMALL
GASTEIGER

@<TRIPOS>ATOM
      1  N        -41.9660  -20.3150   -1.1900 N.3    14  LYS14      -0.1245
      2  CA       -41.9240  -18.9160   -1.6360 C.3    14  LYS14       0.1561
      3  C        -42.5290  -18.7370   -3.0370 C.2    14  LYS14       0.2260
      4  O        -42.9110  -19.7120   -3.6920 O.2    14  LYS14      -0.2867
      5  CB       -40.4760  -18.3890   -1.5920 C.3    14  LYS14       0.0271
      6  CG       -39.9870  -18.0480   -0.2060 C.3    14  LYS14       0.0035
      7  CD       -40.7360  -16.8530    0.3400 C.3    14  LYS14       0.0206
      8  CE       -40.3600  -16.5740    1.7770 C.3    14  LYS14       0.1093
      9  NZ       -40.7490  -17.7080    2.6530 N.3    14  LYS14      -0.1314
     10  N        -41.1080  -17.3520   -6.3830 N.3    16  ILE16      -0.1231
     11  CA       -39.8420  -17.0090   -7.0360 C.3    16  ILE16       0.1692
     12  C        -39.9900  -15.8750   -8.0400 C.2    16  ILE16       0.2592
     13  O        -39.1730  -14.9450   -8.0810 O.2    16  ILE16      -0.2718
     14  CB       -39.2940  -18.2410   -7.7790 C.3    16  ILE16       0.0266
     15  CG1      -38.6260  -19.2060   -6.8010 C.3    16  ILE16       0.0019
     16  CG2      -38.3200  -17.8330   -8.8680 C.3    16  ILE16       0.0020
     17  CD1      -38.2900  -20.5410   -7.4300 C.3    16  ILE16       0.0001
     18  N        -41.0330  -15.9660   -8.8560 N.am   17  GLY17      -0.1957
     19  CA       -41.2400  -15.0350   -9.9520 C.3    17  GLY17       0.1869
     20  C        -42.6620  -15.1130  -10.4540 C.2    17  GLY17       0.2309
     21  O        -43.4270  -16.0010  -10.0550 O.2    17  GLY17      -0.2863
     22  N        -44.1610  -18.6420  -10.7170 N.3    24  VAL24      -0.1245
     23  CA       -43.2450  -19.7090  -10.2920 C.3    24  VAL24       0.1561
     24  C        -43.0910  -19.6930   -8.7770 C.2    24  VAL24       0.2260
     25  O        -42.7710  -18.6530   -8.1840 O.2    24  VAL24      -0.2867
     26  CB       -41.8530  -19.6560  -10.9690 C.3    24  VAL24       0.0252
     27  CG1      -40.9550  -20.7490  -10.4280 C.3    24  VAL24       0.0019
     28  CG2      -41.9740  -19.8490  -12.4640 C.3    24  VAL24       0.0019
     29  N        -41.1580  -21.6360   -5.5220 N.3    26  GLN26      -0.1245
     30  CA       -40.3200  -22.6300   -4.8710 C.3    26  GLN26       0.1566
     31  C        -41.2690  -23.4270   -3.9970 C.2    26  GLN26       0.2260
     32  O        -42.1620  -22.8620   -3.3630 O.2    26  GLN26      -0.2867
     33  CB       -39.2450  -21.9640   -4.0290 C.3    26  GLN26       0.0367
     34  CG       -38.4270  -22.9280   -3.1960 C.3    26  GLN26       0.0905
     35  CD       -37.2350  -22.2460   -2.5780 C.2    26  GLN26       0.2608
     36  OE1      -36.4110  -21.6710   -3.2830 O.2    26  GLN26      -0.2717
     37  NE2      -37.1320  -22.3060   -1.2550 N.am   26  GLN26      -0.0878
     38  N        -37.0000  -30.0070   -2.3530 N.3    34  ILE34      -0.1245
     39  CA       -37.3020  -28.6980   -2.9200 C.3    34  ILE34       0.1561
     40  C        -37.5280  -28.7710   -4.4540 C.2    34  ILE34       0.2260
     41  O        -36.8230  -29.4880   -5.1620 O.2    34  ILE34      -0.2867
     42  CB       -36.1970  -27.6940   -2.5040 C.3    34  ILE34       0.0252
     43  CG1      -36.6430  -26.2410   -2.7170 C.3    34  ILE34       0.0019
     44  CG2      -34.8690  -28.0280   -3.1830 C.3    34  ILE34       0.0019
     45  CD1      -35.6520  -25.2230   -2.1820 C.3    34  ILE34       0.0001
     46  N        -39.5210  -26.5500   -8.1660 N.3    36  ALA36      -0.1245
     47  CA       -40.0400  -25.3260   -8.7690 C.3    36  ALA36       0.1562
     48  C        -41.2580  -25.6330   -9.6150 C.2    36  ALA36       0.2260
     49  O        -41.1300  -26.2540  -10.6550 O.2    36  ALA36      -0.2867
     50  CB       -38.9630  -24.6350   -9.5980 C.3    36  ALA36       0.0290
     51  N        -44.1340  -24.0710  -11.8530 N.3    38  LYS38      -0.1245
     52  CA       -44.6650  -22.9450  -12.6060 C.3    38  LYS38       0.1561
     53  C        -46.1440  -23.1870  -12.8720 C.2    38  LYS38       0.2260
     54  O        -46.5300  -24.2640  -13.3310 O.2    38  LYS38      -0.2867
     55  CB       -43.9070  -22.7720  -13.9150 C.3    38  LYS38       0.0271
     56  CG       -44.5640  -21.8670  -14.9420 C.3    38  LYS38       0.0035
     57  CD       -43.5020  -21.4070  -15.9140 C.3    38  LYS38       0.0206
     58  CE       -43.9550  -21.4180  -17.3590 C.3    38  LYS38       0.1093
     59  NZ       -42.9490  -20.7030  -18.1920 N.3    38  LYS38      -0.1314
     60  N        -44.0850  -24.4380  -25.4490 N.3    56  GLU56      -0.1245
     61  CA       -43.0610  -24.4090  -24.4130 C.3    56  GLU56       0.1567
     62  C        -42.9040  -25.7620  -23.7220 C.2    56  GLU56       0.2260
     63  O        -41.7870  -26.2580  -23.6050 O.2    56  GLU56      -0.2867
     64  CB       -43.3400  -23.2990  -23.3900 C.3    56  GLU56       0.0388
     65  CG       -42.1090  -22.8570  -22.6120 C.3    56  GLU56       0.1160
     66  CD       -42.4460  -22.0350  -21.3710 C.2    56  GLU56       0.3649
     67  OE1      -43.2970  -22.4640  -20.5610 O.co2  56  GLU56      -0.2457
     68  OE2      -41.8310  -20.9690  -21.1820 O.co2  56  GLU56      -0.2457
     69  N        -39.5150  -28.0200  -23.8760 N.3    60  LEU60      -0.1245
     70  CA       -38.8490  -28.3260  -22.6140 C.3    60  LEU60       0.1561
     71  C        -38.8180  -29.8370  -22.3890 C.2    60  LEU60       0.2260
     72  O        -37.7760  -30.4100  -22.0640 O.2    60  LEU60      -0.2867
     73  CB       -39.5030  -27.6060  -21.4350 C.3    60  LEU60       0.0270
     74  CG       -38.9540  -27.9320  -20.0380 C.3    60  LEU60       0.0019
     75  CD1      -37.4350  -27.9620  -19.9950 C.3    60  LEU60       0.0001
     76  CD2      -39.5120  -26.9820  -19.0000 C.3    60  LEU60       0.0001
     77  N        -32.9340  -26.9480  -17.8120 N.3    71  ILE71      -0.1245
     78  CA       -33.7300  -27.1820  -16.6140 C.3    71  ILE71       0.1561
     79  C        -34.5260  -28.4910  -16.7240 C.2    71  ILE71       0.2260
     80  O        -35.1990  -28.7190  -17.7320 O.2    71  ILE71      -0.2867
     81  CB       -34.6600  -25.9710  -16.3620 C.3    71  ILE71       0.0252
     82  CG1      -35.3710  -26.0800  -15.0110 C.3    71  ILE71       0.0019
     83  CG2      -35.6580  -25.7980  -17.4960 C.3    71  ILE71       0.0019
     84  CD1      -34.4940  -25.8460  -13.7930 C.3    71  ILE71       0.0001
     85  N        -46.1730  -26.9930  -14.1640 N.3    85  MET85      -0.1245
     86  CA       -44.9050  -27.5630  -14.5920 C.3    85  MET85       0.1570
     87  C        -44.0670  -27.8470  -13.3580 C.2    85  MET85       0.2261
     88  O        -43.6380  -26.9110  -12.6650 O.2    85  MET85      -0.2867
     89  CB       -44.1660  -26.5670  -15.4870 C.3    85  MET85       0.0387
     90  CG       -44.2130  -26.8750  -16.9590 C.3    85  MET85       0.0595
     91  SD       -44.3180  -25.3780  -17.9410 S.3    85  MET85      -0.1393
     92  CE       -43.1790  -25.7890  -19.2460 C.3    85  MET85       0.0692
     93  N        -40.6640  -28.6600  -12.0330 N.3    87  MET87      -0.1230
     94  CA       -39.2810  -28.5900  -12.5160 C.3    87  MET87       0.1702
     95  C        -38.2840  -28.6030  -11.3790 C.2    87  MET87       0.2592
     96  O        -38.6480  -28.4070  -10.2250 O.2    87  MET87      -0.2718
     97  CB       -39.0690  -27.3240  -13.3490 C.3    87  MET87       0.0401
     98  CG       -40.0370  -27.2050  -14.5050 C.3    87  MET87       0.0596
     99  SD       -40.3310  -25.5040  -14.9540 S.3    87  MET87      -0.1393
    100  CE       -39.0650  -25.3180  -16.1780 C.3    87  MET87       0.0692
    101  N        -37.0170  -28.8180  -11.7040 N.am   88  GLU88      -0.1966
    102  CA       -35.9810  -28.7050  -10.6880 C.3    88  GLU88       0.1733
    103  C        -35.8250  -27.2400  -10.2390 C.2    88  GLU88       0.2616
    104  O        -36.0830  -26.2860  -10.9920 O.2    88  GLU88      -0.2715
    105  CB       -34.6450  -29.3550  -11.1340 C.3    88  GLU88       0.0429
    106  CG       -33.6060  -28.4320  -11.7560 C.3    88  GLU88       0.1163
    107  CD       -32.6270  -29.1740  -12.6450 C.2    88  GLU88       0.3649
    108  OE1      -32.6780  -28.9810  -13.8800 O.co2  88  GLU88      -0.2457
    109  OE2      -31.8180  -29.9700  -12.1210 O.co2  88  GLU88      -0.2457
    110  N        -35.4170  -27.0820   -8.9910 N.am   89  CYS89      -0.1954
    111  CA       -35.3000  -25.7740   -8.4030 C.3    89  CYS89       0.1843
    112  C        -33.8330  -25.4160   -8.3180 C.2    89  CYS89       0.2626
    113  O        -33.0080  -26.2350   -7.9060 O.2    89  CYS89      -0.2714
    114  CB       -35.9290  -25.7920   -7.0140 C.3    89  CYS89       0.0997
    115  SG       -35.8400  -24.2280   -6.1440 S.3    89  CYS89      -0.0797
    116  N        -33.5160  -24.1900   -8.7130 N.am   90  GLY90      -0.1940
    117  CA       -32.1430  -23.7310   -8.6980 C.3    90  GLY90       0.2014
    118  C        -31.7450  -23.0540   -7.4090 C.2    90  GLY90       0.2639
    119  O        -32.5830  -22.4500   -6.7270 O.2    90  GLY90      -0.2714
    120  N        -30.4580  -23.1690   -7.0800 N.am   91  ASN91      -0.1958
    121  CA       -29.8410  -22.3860   -6.0130 C.3    91  ASN91       0.1819
    122  C        -30.1110  -20.8980   -6.2160 C.2    91  ASN91       0.2621
    123  O        -30.8360  -20.2830   -5.4390 O.2    91  ASN91      -0.2715
    124  CB       -28.3260  -22.6230   -5.9590 C.3    91  ASN91       0.1195
    125  CG       -27.9510  -24.0970   -5.8760 C.2    91  ASN91       0.2630
    126  OD1      -28.7630  -24.9860   -6.1430 O.2    91  ASN91      -0.2716
    127  ND2      -26.7020  -24.3610   -5.5080 N.am   91  ASN91      -0.0877
    128  N        -29.5390  -20.3360   -7.2760 N.am   92  ILE92      -0.1963
    129  CA       -29.5830  -18.8980   -7.5300 C.3    92  ILE92       0.1727
    130  C        -29.5810  -18.6640   -9.0450 C.2    92  ILE92       0.2616
    131  O        -28.8650  -19.3500   -9.7850 O.2    92  ILE92      -0.2715
    132  CB       -28.3700  -18.1830   -6.8700 C.3    92  ILE92       0.0290
    133  CG1      -28.3840  -18.3660   -5.3430 C.3    92  ILE92       0.0022
    134  CG2      -28.3590  -16.6980   -7.1990 C.3    92  ILE92       0.0023
    135  CD1      -27.0300  -18.6510   -4.7180 C.3    92  ILE92       0.0001
    136  N        -30.3970  -17.7170   -9.5080 N.am   93  ASP93      -0.1971
    137  CA       -30.3800  -17.3380  -10.9190 C.3    93  ASP93       0.1709
    138  C        -29.1520  -16.4830  -11.1730 C.2    93  ASP93       0.2293
    139  O        -28.7560  -15.7080  -10.3080 O.2    93  ASP93      -0.2864
    140  CB       -31.6570  -16.6030  -11.3260 C.3    93  ASP93       0.1436
    141  CG       -31.7080  -15.1880  -10.8070 C.2    93  ASP93       0.3671
    142  OD1      -31.3680  -14.2680  -11.5750 O.co2  93  ASP93      -0.2456
    143  OD2      -32.0780  -14.9990   -9.6310 O.co2  93  ASP93      -0.2456
    144  N        -30.6990  -13.6520  -16.3950 N.3   136  ALA136     -0.1245
    145  CA       -31.9640  -14.0540  -15.7680 C.3   136  ALA136      0.1562
    146  C        -32.5510  -15.3350  -16.3830 C.2   136  ALA136      0.2260
    147  O        -33.3710  -16.0130  -15.7630 O.2   136  ALA136     -0.2867
    148  CB       -32.9730  -12.9180  -15.8610 C.3   136  ALA136      0.0290
    149  N        -29.2230  -20.2440  -14.6220 N.3   139  LEU139     -0.1245
    150  CA       -29.4500  -20.7260  -13.2760 C.3   139  LEU139      0.1561
    151  C        -28.3150  -21.6480  -12.8470 C.2   139  LEU139      0.2260
    152  O        -27.7820  -22.4050  -13.6630 O.2   139  LEU139     -0.2867
    153  CB       -30.7430  -21.5150  -13.2670 C.3   139  LEU139      0.0270
    154  CG       -31.5440  -21.6630  -11.9860 C.3   139  LEU139      0.0019
    155  CD1      -32.6060  -20.5720  -11.9170 C.3   139  LEU139      0.0001
    156  CD2      -32.1880  -23.0410  -12.0130 C.3   139  LEU139      0.0001
    157  N        -33.1710  -22.0230  -18.6230 N.3   148  ILE148     -0.1231
    158  CA       -34.4450  -22.3030  -17.9660 C.3   148  ILE148      0.1692
    159  C        -35.6430  -22.0660  -18.8690 C.2   148  ILE148      0.2592
    160  O        -36.6380  -22.7860  -18.7680 O.2   148  ILE148     -0.2718
    161  CB       -34.5900  -21.5710  -16.6090 C.3   148  ILE148      0.0266
    162  CG1      -34.4740  -20.0520  -16.7750 C.3   148  ILE148      0.0019
    163  CG2      -33.5650  -22.1160  -15.6280 C.3   148  ILE148      0.0020
    164  CD1      -34.5260  -19.2690  -15.4810 C.3   148  ILE148      0.0001
    165  N        -35.5370  -21.0810  -19.7550 N.am  149  ASP149     -0.1960
    166  CA       -36.5710  -20.8390  -20.7630 C.3   149  ASP149      0.1840
    167  C        -36.0010  -20.7190  -22.1950 C.2   149  ASP149      0.2622
    168  O        -34.7840  -20.7010  -22.3960 O.2   149  ASP149     -0.2715
    169  CB       -37.4060  -19.6150  -20.3850 C.3   149  ASP149      0.1450
    170  CG       -36.7490  -18.3270  -20.7820 C.2   149  ASP149      0.3671
    171  OD1      -35.5830  -18.1290  -20.3870 O.co2 149  ASP149     -0.2456
    172  OD2      -37.3950  -17.5220  -21.4930 O.co2 149  ASP149     -0.2456
    173  N        -36.8950  -20.6210  -23.1770 N.am  150  PHE150     -0.1974
    174  CA       -36.5220  -20.6750  -24.5920 C.3   150  PHE150      0.1639
    175  C        -36.9190  -19.4270  -25.3770 C.2   150  PHE150      0.2290
    176  O        -36.7980  -19.3960  -26.5970 O.2   150  PHE150     -0.2864
    177  CB       -37.1490  -21.9070  -25.2450 C.3   150  PHE150      0.0560
    178  CG       -36.8850  -23.1830  -24.5090 C.ar  150  PHE150     -0.0200
    179  CD1      -35.6790  -23.8590  -24.6680 C.ar  150  PHE150     -0.0042
    180  CD2      -37.8450  -23.7210  -23.6640 C.ar  150  PHE150     -0.0042
    181  CE1      -35.4330  -25.0440  -23.9920 C.ar  150  PHE150     -0.0003
    182  CE2      -37.6040  -24.9020  -22.9810 C.ar  150  PHE150     -0.0003
    183  CZ       -36.3970  -25.5650  -23.1470 C.ar  150  PHE150     -0.0000
    184  N        -40.6970  -13.9340  -17.5220 N.3   156  MET156     -0.1230
    185  CA       -41.1180  -13.6260  -16.1500 C.3   156  MET156      0.1702
    186  C        -40.0220  -12.8570  -15.4120 C.2   156  MET156      0.2592
    187  O        -38.8540  -12.9390  -15.7830 O.2   156  MET156     -0.2718
    188  CB       -41.4370  -14.9180  -15.3860 C.3   156  MET156      0.0401
    189  CG       -42.7070  -15.6290  -15.8250 C.3   156  MET156      0.0596
    190  SD       -43.1320  -17.0020  -14.7370 S.3   156  MET156     -0.1393
    191  CE       -41.7820  -18.1190  -15.1310 C.3   156  MET156      0.0692
    192  N        -40.3960  -12.1310  -14.3620 N.am  157  GLN157     -0.1966
    193  CA       -39.4250  -11.3880  -13.5500 C.3   157  GLN157      0.1718
    194  C        -39.5500  -11.7510  -12.0720 C.2   157  GLN157      0.2458
    195  O        -40.6050  -12.2270  -11.6510 O.2   157  GLN157     -0.2730
    196  CB       -39.5550   -9.8690  -13.7720 C.3   157  GLN157      0.0407
    197  CG       -40.8990   -9.2570  -13.3980 C.3   157  GLN157      0.0908
    198  CD       -41.9960   -9.5020  -14.4260 C.2   157  GLN157      0.2608
    199  OE1      -41.7480  -10.0270  -15.5170 O.2   157  GLN157     -0.2717
    200  NE2      -43.2250   -9.1190  -14.0770 N.am  157  GLN157     -0.0878
    201  N        -38.4710  -11.5410  -11.2810 N.am  158  PRO158     -0.2727
    202  CA       -38.4600  -11.9090   -9.8500 C.3   158  PRO158      0.1402
    203  C        -39.5350  -11.2270   -8.9840 C.2   158  PRO158      0.2269
    204  O        -40.1030  -10.1970   -9.3780 O.2   158  PRO158     -0.2865
    205  CB       -37.0570  -11.4890   -9.3910 C.3   158  PRO158      0.0296
    206  CG       -36.2300  -11.5300  -10.6250 C.3   158  PRO158      0.0237
    207  CD       -37.1430  -11.0680  -11.7230 C.3   158  PRO158      0.0939
@<TRIPOS>BOND
     1   176   175    2
     2    60    61    1
     3   175   174    1
     4   177   174    1
     5   177   178    1
     6   179   178   ar
     7   179   181   ar
     8   174   173    1
     9   178   180   ar
    10    61    62    1
    11    61    64    1
    12   181   183   ar
    13    69    70    1
    14    62    63    2
    15   180   182   ar
    16    64    65    1
    17   173   167   am
    18   183   182   ar
    19    70    71    1
    20    70    73    1
    21    65    66    1
    22   168   167    2
    23    71    72    2
    24   167   166    1
    25   172   170   ar
    26    73    74    1
    27    66    68   ar
    28    66    67   ar
    29   170   171   ar
    30   170   169    1
    31   166   169    1
    32   166   165    1
    33    74    75    1
    34    74    76    1
    35   165   159   am
    36    92    91    1
    37   159   160    2
    38   159   158    1
    39   157   158    1
    40    59    58    1
    41   158   161    1
    42    91    90    1
    43    77    78    1
    44    80    79    2
    45   184   185    1
    46    83    81    1
    47    58    57    1
    48    90    89    1
    49   162   161    1
    50   162   164    1
    51    79    78    1
    52    78    81    1
    53   161   163    1
    54   144   145    1
    55   146   145    1
    56   146   147    2
    57    81    82    1
    58   100    99    1
    59   185   186    1
    60   185   188    1
    61    57    56    1
    62   148   145    1
    63   189   188    1
    64   189   190    1
    65   187   186    2
    66   199   198    2
    67    89    86    1
    68   186   192   am
    69   191   190    1
    70    82    84    1
    71    99    98    1
    72    56    55    1
    73   149   150    1
    74    86    85    1
    75    86    87    1
    76    98    97    1
    77   198   200   am
    78   198   197    1
    79   192   193    1
    80    55    52    1
    81   108   107   ar
    82   196   193    1
    83   196   197    1
    84   152   151    2
    85   193   194    1
    86    87    88    2
    87    97    94    1
    88    54    53    2
    89   150   153    1
    90   150   151    1
    91   153   154    1
    92    53    52    1
    93   107   109   ar
    94   107   106    1
    95    52    51    1
    96    94    93    1
    97    94    95    1
    98    28    26    1
    99   194   195    2
   100   194   201   am
   101   156   154    1
   102   154   155    1
   103   106   105    1
   104   207   201    1
   105   207   206    1
   106   101    95   am
   107   101   102    1
   108   142   141   ar
   109    95    96    2
   110   140   137    1
   111   140   141    1
   112   201   202    1
   113   138   137    1
   114   138   139    2
   115   105   102    1
   116   104   103    2
   117    26    27    1
   118    26    23    1
   119   137   136    1
   120   141   143   ar
   121    22    23    1
   122   102   103    1
   123    49    48    2
   124   206   205    1
   125    20    21    2
   126    20    19    1
   127    23    24    1
   128   103   110   am
   129    19    18    1
   130   202   205    1
   131   202   203    1
   132   131   130    2
   133    48    47    1
   134    50    47    1
   135   136   130   am
   136   204   203    2
   137   130   129    1
   138   110   111    1
   139    16    14    1
   140    18    12   am
   141    24    25    2
   142    47    46    1
   143   116   117    1
   144   116   112   am
   145   117   118    1
   146   111   112    1
   147   111   114    1
   148   112   113    2
   149    13    12    2
   150    12    11    1
   151    14    11    1
   152    14    15    1
   153   129   128    1
   154   129   132    1
   155    17    15    1
   156   118   120   am
   157   118   119    2
   158   128   122   am
   159   134   132    1
   160   120   121    1
   161    11    10    1
   162   114   115    1
   163   132   133    1
   164   122   121    1
   165   122   123    2
   166   126   125    2
   167   121   124    1
   168   124   125    1
   169   125   127   am
   170    29    30    1
   171   133   135    1
   172    41    40    2
   173    30    33    1
   174    30    31    1
   175    40    39    1
   176    33    34    1
   177    31    32    2
   178     4     3    2
   179    36    35    2
   180    34    35    1
   181    44    42    1
   182     3     2    1
   183    39    42    1
   184    39    38    1
   185    43    42    1
   186    43    45    1
   187    35    37   am
   188     2     5    1
   189     2     1    1
   190     5     6    1
   191     6     7    1
   192     7     8    1
   193     8     9    1
