@<TRIPOS>MOLECULE
tmp/3wzkA00.pdb
 179 165 0 0 0
SMALL
GASTEIGER

@<TRIPOS>ATOM
      1  N          6.8620  -35.1690   -0.8900 N.3    14  LYS14      -0.1245
      2  CA         6.4860  -36.4810   -1.3630 C.3    14  LYS14       0.1561
      3  C          6.8970  -36.5920   -2.8310 C.2    14  LYS14       0.2260
      4  O          6.7950  -35.6210   -3.5920 O.2    14  LYS14      -0.2867
      5  CB         4.9660  -36.6450   -1.2140 C.3    14  LYS14       0.0271
      6  CG         4.3860  -38.0720   -1.4400 C.3    14  LYS14       0.0035
      7  CD         2.8420  -38.0000   -1.2450 C.3    14  LYS14       0.0206
      8  CE         2.1580  -39.0790   -2.0550 C.3    14  LYS14       0.1093
      9  NZ         2.5100  -40.3190   -1.3190 N.3    14  LYS14      -0.1314
     10  N          5.8660  -38.1620   -6.2710 N.3    16  ILE16      -0.1245
     11  CA         4.5700  -38.5540   -6.7880 C.3    16  ILE16       0.1561
     12  C          4.6530  -39.3350   -8.1020 C.2    16  ILE16       0.2260
     13  O          3.6680  -39.9190   -8.5350 O.2    16  ILE16      -0.2867
     14  CB         3.5740  -37.3610   -6.7990 C.3    16  ILE16       0.0252
     15  CG1        3.8760  -36.3280   -7.8800 C.3    16  ILE16       0.0019
     16  CG2        3.5940  -36.6660   -5.4420 C.3    16  ILE16       0.0019
     17  CD1        3.1960  -34.9750   -7.6330 C.3    16  ILE16       0.0001
     18  N          8.8880  -36.6600  -10.4070 N.3    24  VAL24      -0.1245
     19  CA         7.9780  -35.5650  -10.0610 C.3    24  VAL24       0.1561
     20  C          7.7640  -35.5640   -8.5560 C.2    24  VAL24       0.2260
     21  O          7.4750  -36.5960   -7.9570 O.2    24  VAL24      -0.2867
     22  CB         6.6200  -35.6200  -10.8180 C.3    24  VAL24       0.0252
     23  CG1        5.7290  -34.4540  -10.4170 C.3    24  VAL24       0.0019
     24  CG2        6.8230  -35.5410  -12.3170 C.3    24  VAL24       0.0019
     25  N          5.8870  -33.5060   -5.2040 N.3    26  GLN26      -0.1245
     26  CA         5.0350  -32.5140   -4.5360 C.3    26  GLN26       0.1566
     27  C          5.9120  -31.7600   -3.5420 C.2    26  GLN26       0.2260
     28  O          6.6190  -32.3810   -2.7390 O.2    26  GLN26      -0.2867
     29  CB         3.8840  -33.2130   -3.8170 C.3    26  GLN26       0.0367
     30  CG         2.9180  -32.3080   -3.0670 C.3    26  GLN26       0.0905
     31  CD         1.8250  -33.0880   -2.3340 C.2    26  GLN26       0.2608
     32  OE1        0.6360  -32.8150   -2.5020 O.2    26  GLN26      -0.2717
     33  NE2        2.2250  -34.0800   -1.5380 N.am   26  GLN26      -0.0878
     34  N          3.8980  -28.9860   -7.9770 N.3    36  ALA36      -0.1245
     35  CA         4.5880  -30.1790   -8.4270 C.3    36  ALA36       0.1562
     36  C          5.7870  -29.7530   -9.2610 C.2    36  ALA36       0.2260
     37  O          5.6410  -29.0580  -10.2630 O.2    36  ALA36      -0.2867
     38  CB         3.6630  -31.0930   -9.2260 C.3    36  ALA36       0.0290
     39  N          8.8330  -31.1650  -11.6040 N.3    38  LYS38      -0.1245
     40  CA         9.4330  -32.2550  -12.3610 C.3    38  LYS38       0.1561
     41  C         10.9260  -32.0020  -12.5430 C.2    38  LYS38       0.2260
     42  O         11.3480  -30.9170  -12.9680 O.2    38  LYS38      -0.2867
     43  CB         8.7520  -32.3930  -13.7290 C.3    38  LYS38       0.0271
     44  CG         9.2300  -33.5650  -14.5770 C.3    38  LYS38       0.0035
     45  CD         8.4880  -33.5350  -15.8950 C.3    38  LYS38       0.0206
     46  CE         8.7630  -34.7520  -16.7510 C.3    38  LYS38       0.1093
     47  NZ         7.9170  -34.6780  -17.9750 N.3    38  LYS38      -0.1314
     48  N          8.5430  -30.6100  -25.4230 N.3    56  GLU56      -0.1245
     49  CA         7.5220  -30.6280  -24.3670 C.3    56  GLU56       0.1567
     50  C          7.3920  -29.2680  -23.6410 C.2    56  GLU56       0.2260
     51  O          6.2950  -28.7450  -23.4840 O.2    56  GLU56      -0.2867
     52  CB         7.8420  -31.7500  -23.3600 C.3    56  GLU56       0.0388
     53  CG         6.7080  -32.1490  -22.4180 C.3    56  GLU56       0.1160
     54  CD         7.1100  -33.2700  -21.4420 C.2    56  GLU56       0.3649
     55  OE1        6.5400  -34.3850  -21.5390 O.co2  56  GLU56      -0.2457
     56  OE2        8.0070  -33.0530  -20.5840 O.co2  56  GLU56      -0.2457
     57  N          4.2110  -26.7860  -23.7680 N.3    60  LEU60      -0.1245
     58  CA         3.5310  -26.4850  -22.5140 C.3    60  LEU60       0.1561
     59  C          3.5050  -24.9810  -22.2260 C.2    60  LEU60       0.2260
     60  O          2.4770  -24.4600  -21.8100 O.2    60  LEU60      -0.2867
     61  CB         4.1470  -27.2580  -21.3400 C.3    60  LEU60       0.0270
     62  CG         3.4420  -27.1420  -19.9800 C.3    60  LEU60       0.0019
     63  CD1        1.9870  -27.5770  -20.0500 C.3    60  LEU60       0.0001
     64  CD2        4.1920  -27.9120  -18.8930 C.3    60  LEU60       0.0001
     65  N         -2.4450  -28.2240  -17.6730 N.3    71  ILE71      -0.1245
     66  CA        -1.6760  -27.9420  -16.4540 C.3    71  ILE71       0.1561
     67  C         -0.9160  -26.6100  -16.5820 C.2    71  ILE71       0.2260
     68  O         -0.3430  -26.3240  -17.6390 O.2    71  ILE71      -0.2867
     69  CB        -0.6910  -29.0960  -16.1250 C.3    71  ILE71       0.0252
     70  CG1       -0.1520  -28.9900  -14.6960 C.3    71  ILE71       0.0019
     71  CG2        0.4620  -29.1910  -17.1240 C.3    71  ILE71       0.0019
     72  CD1       -0.9970  -29.7170  -13.6750 C.3    71  ILE71       0.0001
     73  N         10.8020  -28.2880  -13.7990 N.3    85  MET85      -0.1245
     74  CA         9.5730  -27.6270  -14.1920 C.3    85  MET85       0.1570
     75  C          8.7150  -27.4510  -12.9530 C.2    85  MET85       0.2261
     76  O          8.3740  -28.4310  -12.2860 O.2    85  MET85      -0.2867
     77  CB         8.8230  -28.4290  -15.2740 C.3    85  MET85       0.0387
     78  CG         9.6850  -28.7630  -16.4800 C.3    85  MET85       0.0595
     79  SD         8.8480  -29.7250  -17.7500 S.3    85  MET85      -0.1393
     80  CE        10.1590  -30.8310  -18.2350 C.3    85  MET85       0.0692
     81  N          5.1930  -26.7440  -11.7950 N.3    87  MET87      -0.1230
     82  CA         3.8510  -26.8460  -12.3160 C.3    87  MET87       0.1702
     83  C          2.8400  -26.8810  -11.1790 C.2    87  MET87       0.2592
     84  O          3.2160  -26.9680  -10.0080 O.2    87  MET87      -0.2718
     85  CB         3.7340  -28.1090  -13.1730 C.3    87  MET87       0.0401
     86  CG         4.6420  -28.0960  -14.3950 C.3    87  MET87       0.0596
     87  SD         4.6210  -29.6840  -15.2250 S.3    87  MET87      -0.1393
     88  CE         5.6560  -30.6470  -14.1330 C.3    87  MET87       0.0692
     89  N          1.5670  -26.7770  -11.5490 N.am   88  GLU88      -0.1966
     90  CA         0.4360  -27.0220  -10.6710 C.3    88  GLU88       0.1733
     91  C          0.4880  -28.4210  -10.0540 C.2    88  GLU88       0.2616
     92  O          0.8360  -29.4000  -10.7210 O.2    88  GLU88      -0.2715
     93  CB        -0.8550  -26.9320  -11.4880 C.3    88  GLU88       0.0429
     94  CG        -1.6620  -25.6680  -11.2960 C.3    88  GLU88       0.1163
     95  CD        -2.9970  -25.7190  -12.0170 C.2    88  GLU88       0.3649
     96  OE1       -3.0340  -26.0080  -13.2340 O.co2  88  GLU88      -0.2457
     97  OE2       -4.0230  -25.4550  -11.3660 O.co2  88  GLU88      -0.2457
     98  N          0.1270  -28.5080   -8.7800 N.am   89  CYS89      -0.1954
     99  CA        -0.0860  -29.7950   -8.1490 C.3    89  CYS89       0.1843
    100  C         -1.5680  -30.0750   -8.1160 C.2    89  CYS89       0.2626
    101  O         -2.3520  -29.2240   -7.7110 O.2    89  CYS89      -0.2714
    102  CB         0.4760  -29.8200   -6.7220 C.3    89  CYS89       0.0997
    103  SG         0.4900  -31.4920   -6.0300 S.3    89  CYS89      -0.0797
    104  N         -1.9610  -31.2650   -8.5420 N.am   90  GLY90      -0.1940
    105  CA        -3.3680  -31.6380   -8.4650 C.3    90  GLY90       0.2014
    106  C         -3.7320  -32.3000   -7.1520 C.2    90  GLY90       0.2639
    107  O         -2.8520  -32.6750   -6.3670 O.2    90  GLY90      -0.2714
    108  N         -5.0310  -32.4450   -6.9120 N.am   91  ASN91      -0.1958
    109  CA        -5.5180  -33.1990   -5.7580 C.3    91  ASN91       0.1819
    110  C         -5.2880  -34.6940   -5.9850 C.2    91  ASN91       0.2621
    111  O         -4.6760  -35.3650   -5.1560 O.2    91  ASN91      -0.2715
    112  CB        -7.0050  -32.9200   -5.4860 C.3    91  ASN91       0.1195
    113  CG        -7.4280  -31.5070   -5.8710 C.2    91  ASN91       0.2630
    114  OD1       -8.5040  -31.3160   -6.4430 O.2    91  ASN91      -0.2716
    115  ND2       -6.5900  -30.5110   -5.5670 N.am   91  ASN91      -0.0877
    116  N         -5.7560  -35.1990   -7.1240 N.am   92  ILE92      -0.1963
    117  CA        -5.6420  -36.6160   -7.4590 C.3    92  ILE92       0.1727
    118  C         -5.6870  -36.8140   -8.9880 C.2    92  ILE92       0.2616
    119  O         -6.4050  -36.0910   -9.6880 O.2    92  ILE92      -0.2715
    120  CB        -6.7650  -37.4280   -6.7400 C.3    92  ILE92       0.0290
    121  CG1       -6.5300  -38.9420   -6.8460 C.3    92  ILE92       0.0022
    122  CG2       -8.1620  -37.0060   -7.2140 C.3    92  ILE92       0.0023
    123  CD1       -7.5340  -39.7740   -6.0650 C.3    92  ILE92       0.0001
    124  N         -4.9340  -37.7820   -9.5070 N.am   93  ASP93      -0.1971
    125  CA        -5.0370  -38.1060  -10.9310 C.3    93  ASP93       0.1709
    126  C         -6.3670  -38.7750  -11.2140 C.2    93  ASP93       0.2293
    127  O         -7.0560  -39.1900  -10.2820 O.2    93  ASP93      -0.2864
    128  CB        -3.8070  -38.8610  -11.4830 C.3    93  ASP93       0.1436
    129  CG        -3.7990  -40.3450  -11.1630 C.2    93  ASP93       0.3671
    130  OD1       -4.6050  -41.1010  -11.7330 O.co2  93  ASP93      -0.2456
    131  OD2       -2.9300  -40.7740  -10.3820 O.co2  93  ASP93      -0.2456
    132  N         -4.6790  -41.5780  -16.3790 N.3   136  ALA136     -0.1245
    133  CA        -3.4560  -41.1060  -15.7330 C.3   136  ALA136      0.1562
    134  C         -2.9430  -39.7580  -16.2860 C.2   136  ALA136      0.2260
    135  O         -2.1880  -39.0690  -15.6080 O.2   136  ALA136     -0.2867
    136  CB        -2.3650  -42.1600  -15.8360 C.3   136  ALA136      0.0290
    137  N         -5.7740  -34.7240  -14.5790 N.3   139  LEU139     -0.1245
    138  CA        -5.5550  -34.4080  -13.1910 C.3   139  LEU139      0.1561
    139  C         -6.6990  -33.5470  -12.7120 C.2   139  LEU139      0.2260
    140  O         -7.1710  -32.7030  -13.4460 O.2   139  LEU139     -0.2867
    141  CB        -4.2330  -33.6590  -13.0630 C.3   139  LEU139      0.0270
    142  CG        -3.6610  -33.3080  -11.7000 C.3   139  LEU139      0.0019
    143  CD1       -3.2740  -34.5680  -10.9420 C.3   139  LEU139      0.0001
    144  CD2       -2.4550  -32.4110  -11.9140 C.3   139  LEU139      0.0001
    145  N         -2.2080  -33.1870  -18.4210 N.3   148  ILE148     -0.1231
    146  CA        -0.9050  -32.9110  -17.8120 C.3   148  ILE148      0.1692
    147  C          0.2710  -33.0630  -18.7620 C.2   148  ILE148      0.2592
    148  O          1.3860  -32.6870  -18.4210 O.2   148  ILE148     -0.2718
    149  CB        -0.6630  -33.7180  -16.5150 C.3   148  ILE148      0.0266
    150  CG1       -0.3030  -35.1810  -16.8110 C.3   148  ILE148      0.0019
    151  CG2       -1.8670  -33.6060  -15.6010 C.3   148  ILE148      0.0020
    152  CD1       -0.0890  -36.0320  -15.5680 C.3   148  ILE148      0.0001
    153  N          0.0280  -33.5920  -19.9520 N.am  149  ASP149     -0.1960
    154  CA         1.1070  -33.7650  -20.9270 C.3   149  ASP149      0.1840
    155  C          0.5660  -33.9940  -22.3390 C.2   149  ASP149      0.2622
    156  O         -0.6360  -33.9760  -22.5580 O.2   149  ASP149     -0.2715
    157  CB         2.0320  -34.9190  -20.5210 C.3   149  ASP149      0.1450
    158  CG         1.3580  -36.2720  -20.6390 C.2   149  ASP149      0.3671
    159  OD1        2.0010  -37.2270  -21.1260 O.co2 149  ASP149     -0.2456
    160  OD2        0.1770  -36.3700  -20.2610 O.co2 149  ASP149     -0.2456
    161  N          1.4660  -34.2350  -23.2810 N.am  150  PHE150     -0.1974
    162  CA         1.1420  -34.1500  -24.7010 C.3   150  PHE150      0.1639
    163  C          1.5810  -35.3630  -25.5080 C.2   150  PHE150      0.2290
    164  O          1.4540  -35.3600  -26.7370 O.2   150  PHE150     -0.2864
    165  CB         1.7950  -32.9030  -25.2950 C.3   150  PHE150      0.0560
    166  CG         1.4760  -31.6370  -24.5580 C.ar  150  PHE150     -0.0200
    167  CD1        0.1580  -31.2790  -24.2920 C.ar  150  PHE150     -0.0042
    168  CD2        2.4990  -30.7900  -24.1400 C.ar  150  PHE150     -0.0042
    169  CE1       -0.1390  -30.1020  -23.6160 C.ar  150  PHE150     -0.0003
    170  CE2        2.2100  -29.6140  -23.4590 C.ar  150  PHE150     -0.0003
    171  CZ         0.8880  -29.2690  -23.2030 C.ar  150  PHE150     -0.0000
    172  N          5.1340  -40.4450  -17.2190 N.3   156  MET156     -0.1245
    173  CA         5.5170  -40.7460  -15.8400 C.3   156  MET156      0.1570
    174  C          4.6880  -41.9060  -15.2850 C.2   156  MET156      0.2261
    175  O          3.4810  -41.9750  -15.5110 O.2   156  MET156     -0.2867
    176  CB         5.3460  -39.5060  -14.9510 C.3   156  MET156      0.0387
    177  CG         6.1830  -38.2940  -15.3610 C.3   156  MET156      0.0595
    178  SD         7.9520  -38.4560  -15.0200 S.3   156  MET156     -0.1393
    179  CE         7.9850  -38.3120  -13.2450 C.3   156  MET156      0.0692
@<TRIPOS>BOND
     1   164   163    2
     2   163   162    1
     3    48    49    1
     4   165   162    1
     5   165   166    1
     6   162   161    1
     7   166   167   ar
     8   166   168   ar
     9    49    50    1
    10    49    52    1
    11   167   169   ar
    12   168   170   ar
    13    57    58    1
    14    50    51    2
    15   169   171   ar
    16   170   171   ar
    17    52    53    1
    18   161   155   am
    19   156   155    2
    20    58    59    1
    21    58    61    1
    22    53    54    1
    23   155   154    1
    24    59    60    2
    25    55    54   ar
    26    54    56   ar
    27    61    62    1
    28   159   158   ar
    29   154   157    1
    30   154   153    1
    31   158   157    1
    32   158   160   ar
    33    63    62    1
    34    62    64    1
    35   153   147   am
    36   147   148    2
    37   147   146    1
    38   145   146    1
    39    80    79    1
    40    47    46    1
    41   146   149    1
    42    79    78    1
    43    65    66    1
    44    68    67    2
    45   172   173    1
    46    71    69    1
    47   150   149    1
    48   150   152    1
    49    46    45    1
    50    67    66    1
    51   149   151    1
    52    78    77    1
    53    66    69    1
    54   132   133    1
    55   134   133    1
    56   134   135    2
    57    69    70    1
    58    45    44    1
    59   173   174    1
    60   173   176    1
    61   136   133    1
    62   175   174    2
    63   177   178    1
    64   177   176    1
    65    77    74    1
    66    87    86    1
    67    87    88    1
    68   178   179    1
    69    70    72    1
    70   137   138    1
    71    44    43    1
    72    86    85    1
    73    74    73    1
    74    74    75    1
    75    43    40    1
    76   140   139    2
    77    96    95   ar
    78   138   141    1
    79   138   139    1
    80    85    82    1
    81   141   142    1
    82    42    41    2
    83    75    76    2
    84    41    40    1
    85    40    39    1
    86    24    22    1
    87    82    81    1
    88    82    83    1
    89    95    97   ar
    90    95    94    1
    91   144   142    1
    92   130   129   ar
    93   142   143    1
    94    89    83   am
    95    89    90    1
    96    93    94    1
    97    93    90    1
    98   128   129    1
    99   128   125    1
   100   126   125    1
   101   126   127    2
   102    83    84    2
   103   129   131   ar
   104   125   124    1
   105    22    23    1
   106    22    19    1
   107    92    91    2
   108    90    91    1
   109    18    19    1
   110    37    36    2
   111    19    20    1
   112    91    98   am
   113   119   118    2
   114   124   118   am
   115    36    35    1
   116    38    35    1
   117   118   117    1
   118    98    99    1
   119    20    21    2
   120   104   105    1
   121   104   100   am
   122    13    12    2
   123   105   106    1
   124    35    34    1
   125    99   100    1
   126    99   102    1
   127   100   101    2
   128    12    11    1
   129    15    17    1
   130    15    14    1
   131   117   116    1
   132   117   120    1
   133   122   120    1
   134   106   108   am
   135   106   107    2
   136   116   110   am
   137   108   109    1
   138   121   120    1
   139   121   123    1
   140    14    11    1
   141    14    16    1
   142    11    10    1
   143   102   103    1
   144   114   113    2
   145   110   109    1
   146   110   111    2
   147   113   115   am
   148   113   112    1
   149   109   112    1
   150    25    26    1
   151    26    29    1
   152    26    27    1
   153    29    30    1
   154     4     3    2
   155    27    28    2
   156    30    31    1
   157     3     2    1
   158    32    31    2
   159    31    33   am
   160     8     9    1
   161     8     7    1
   162     6     7    1
   163     6     5    1
   164     2     5    1
   165     2     1    1
