@<TRIPOS>MOLECULE
tmp/3wzoC00.pdb
 148 140 0 0 0
SMALL
GASTEIGER

@<TRIPOS>ATOM
      1  N        -17.0890  -17.4620   -2.2690 N.3    15  LEU15      -0.1245
      2  CA       -17.1220  -17.1720   -0.8510 C.3    15  LEU15       0.1561
      3  C        -18.5320  -17.3510   -0.3260 C.2    15  LEU15       0.2260
      4  O        -18.7490  -17.2420    0.8660 O.2    15  LEU15      -0.2867
      5  CB       -16.7280  -15.6890   -0.6120 C.3    15  LEU15       0.0270
      6  CG       -15.2590  -15.3060   -0.3480 C.3    15  LEU15       0.0019
      7  CD1      -14.2540  -16.2790   -0.9550 C.3    15  LEU15       0.0001
      8  CD2      -14.9760  -13.8280   -0.6920 C.3    15  LEU15       0.0001
      9  N        -21.0350  -15.3330   -1.4740 N.3    17  ASP17      -0.1239
     10  CA       -21.7750  -14.1110   -1.7090 C.3    17  ASP17       0.1674
     11  C        -22.7950  -14.3990   -2.7980 C.2    17  ASP17       0.2266
     12  O        -22.4380  -14.9030   -3.8200 O.2    17  ASP17      -0.2867
     13  CB       -20.8580  -12.9920   -2.1600 C.3    17  ASP17       0.1410
     14  CG       -19.6340  -12.7800   -1.2540 C.2    17  ASP17       0.3668
     15  OD1      -19.8080  -12.6380   -0.0540 O.co2  17  ASP17      -0.2456
     16  OD2      -18.4830  -12.6960   -1.7570 O.co2  17  ASP17      -0.2456
     17  N        -28.9430   -8.5850   -2.8200 N.3    33  TYR33      -0.1241
     18  CA       -27.5840   -9.0520   -2.7280 C.3    33  TYR33       0.1605
     19  C        -27.3100   -9.3750   -1.2730 C.2    33  TYR33       0.2264
     20  O        -27.6550   -8.6010   -0.3790 O.2    33  TYR33      -0.2867
     21  CB       -26.6110   -7.9850   -3.2330 C.3    33  TYR33       0.0534
     22  CG       -25.2210   -8.5030   -3.4610 C.ar   33  TYR33      -0.0201
     23  CD1      -24.3280   -8.7160   -2.3780 C.ar   33  TYR33      -0.0009
     24  CD2      -24.7660   -8.7180   -4.7430 C.ar   33  TYR33      -0.0009
     25  CE1      -23.0320   -9.1870   -2.5950 C.ar   33  TYR33       0.0417
     26  CE2      -23.4940   -9.2290   -4.9910 C.ar   33  TYR33       0.0417
     27  CZ       -22.6290   -9.4670   -3.9390 C.ar   33  TYR33       0.1957
     28  OH       -21.4090   -9.9760   -4.2320 O.3    33  TYR33      -0.2866
     29  N        -23.9760  -10.3760    1.1250 N.3    35  SER35      -0.1217
     30  CA       -22.5290  -10.6460    1.2910 C.3    35  SER35       0.1889
     31  C        -22.3130  -11.6160    2.4120 C.2    35  SER35       0.2288
     32  O        -22.9210  -11.5090    3.4640 O.2    35  SER35      -0.2866
     33  CB       -21.7600   -9.3260    1.5610 C.3    35  SER35       0.2089
     34  OG       -20.4030   -9.5780    1.7410 O.3    35  SER35      -0.2183
     35  N        -19.2330  -11.7330    3.5600 N.3    37  VAL37      -0.1231
     36  CA       -18.1140  -11.0970    4.2250 C.3    37  VAL37       0.1692
     37  C        -18.4150   -9.6010    4.5300 C.2    37  VAL37       0.2593
     38  O        -19.3510   -8.9640    4.0090 O.2    37  VAL37      -0.2718
     39  CB       -16.8270  -11.2210    3.3940 C.3    37  VAL37       0.0266
     40  CG1      -16.5350  -12.6700    3.0610 C.3    37  VAL37       0.0020
     41  CG2      -16.9380  -10.5220    2.0670 C.3    37  VAL37       0.0020
     42  N        -17.5950   -9.0740    5.4280 N.am   38  GLY38      -0.1942
     43  CA       -17.6250   -7.6540    5.7150 C.3    38  GLY38       0.2014
     44  C        -18.7070   -7.2640    6.6780 C.2    38  GLY38       0.2639
     45  O        -19.3090   -8.0860    7.3460 O.2    38  GLY38      -0.2714
     46  N        -18.9620   -5.9750    6.7380 N.am   39  ASN39      -0.1958
     47  CA       -19.9160   -5.3860    7.6720 C.3    39  ASN39       0.1819
     48  C        -21.2980   -5.3710    7.0630 C.2    39  ASN39       0.2621
     49  O        -21.8040   -4.3770    6.7170 O.2    39  ASN39      -0.2715
     50  CB       -19.5210   -3.9660    8.0080 C.3    39  ASN39       0.1195
     51  CG       -20.2660   -3.4350    9.2160 C.2    39  ASN39       0.2630
     52  OD1      -21.0300   -4.1620    9.9000 O.2    39  ASN39      -0.2716
     53  ND2      -20.0590   -2.1550    9.4920 N.am   39  ASN39      -0.0877
     54  N        -21.8680   -6.5420    6.9430 N.am   40  ALA40      -0.1977
     55  CA       -23.0640   -6.7930    6.1660 C.3    40  ALA40       0.1597
     56  C        -23.8270   -7.9240    6.8070 C.2    40  ALA40       0.2287
     57  O        -23.2270   -8.9220    7.2080 O.2    40  ALA40      -0.2864
     58  CB       -22.6820   -7.1700    4.7620 C.3    40  ALA40       0.0319
     59  N        -24.9640   -0.3070    1.3480 N.3    69  TRP69      -0.1241
     60  CA       -24.9100   -1.2910    2.4410 C.3    69  TRP69       0.1605
     61  C        -25.6830   -0.8000    3.6560 C.2    69  TRP69       0.2264
     62  O        -25.1970   -0.8220    4.7990 O.2    69  TRP69      -0.2867
     63  CB       -23.4730   -1.6280    2.7780 C.3    69  TRP69       0.0550
     64  CG       -22.7600   -2.2690    1.6070 C.ar   69  TRP69       0.0003
     65  CD1      -21.8820   -1.7160    0.7950 C.ar   69  TRP69       0.0946
     66  CD2      -22.9480   -3.6190    1.1620 C.ar   69  TRP69       0.0152
     67  NE1      -21.4320   -2.6280   -0.1510 N.ar   69  TRP69      -0.2442
     68  CE2      -22.1010   -3.8150    0.0510 C.ar   69  TRP69       0.0810
     69  CE3      -23.7450   -4.6890    1.6050 C.ar   69  TRP69       0.0012
     70  CZ2      -22.0310   -5.0230   -0.6270 C.ar   69  TRP69       0.0191
     71  CZ3      -23.6740   -5.9020    0.9250 C.ar   69  TRP69       0.0001
     72  CH2      -22.8170   -6.0610   -0.1480 C.ar   69  TRP69       0.0015
     73  N        -23.5210    0.2310    6.9430 N.3    76  ALA76      -0.1245
     74  CA       -22.0790    0.2560    6.9260 C.3    76  ALA76       0.1562
     75  C        -21.5540    1.5000    6.2000 C.2    76  ALA76       0.2260
     76  O        -20.3680    1.5780    5.8800 O.2    76  ALA76      -0.2867
     77  CB       -21.5470   -0.9590    6.2140 C.3    76  ALA76       0.0290
     78  N        -21.5880    2.8210    3.1890 N.3    78  SER78      -0.1217
     79  CA       -20.7480    2.4900    2.0460 C.3    78  SER78       0.1889
     80  C        -21.6240    1.9550    0.9280 C.2    78  SER78       0.2288
     81  O        -22.8150    1.6230    1.1640 O.2    78  SER78      -0.2866
     82  CB       -19.6190    1.4830    2.4480 C.3    78  SER78       0.2089
     83  OG       -20.2000    0.4450    3.1820 O.3    78  SER78      -0.2183
     84  N        -21.2040   -0.2800   -3.0190 N.3    80  THR80      -0.1218
     85  CA       -20.3560   -1.0120   -3.9320 C.3    80  THR80       0.1862
     86  C        -21.0640   -1.0190   -5.3060 C.2    80  THR80       0.2287
     87  O        -22.2880   -1.1210   -5.4090 O.2    80  THR80      -0.2866
     88  CB       -20.1300   -2.4440   -3.4800 C.3    80  THR80       0.1770
     89  OG1      -19.5340   -2.4680   -2.1940 O.3    80  THR80      -0.2211
     90  CG2      -19.2480   -3.2550   -4.4770 C.3    80  THR80       0.0375
     91  N        -20.5040   -3.0090   -9.1370 N.3    82  TRP82      -0.1241
     92  CA       -19.8820   -4.1400   -9.8850 C.3    82  TRP82       0.1605
     93  C        -20.1130   -3.8210  -11.3890 C.2    82  TRP82       0.2264
     94  O        -21.2260   -3.5160  -11.8120 O.2    82  TRP82      -0.2867
     95  CB       -20.5390   -5.4650   -9.6040 C.3    82  TRP82       0.0550
     96  CG       -20.3150   -6.0330   -8.2630 C.ar   82  TRP82       0.0003
     97  CD1      -19.4760   -7.0840   -7.9450 C.ar   82  TRP82       0.0946
     98  CD2      -20.9870   -5.6870   -7.0650 C.ar   82  TRP82       0.0152
     99  NE1      -19.5880   -7.4030   -6.6310 N.ar   82  TRP82      -0.2442
    100  CE2      -20.5010   -6.5570   -6.0460 C.ar   82  TRP82       0.0810
    101  CE3      -21.9490   -4.7000   -6.7270 C.ar   82  TRP82       0.0012
    102  CZ2      -20.9670   -6.5230   -4.7490 C.ar   82  TRP82       0.0191
    103  CZ3      -22.4080   -4.6580   -5.4090 C.ar   82  TRP82       0.0001
    104  CH2      -21.9090   -5.5800   -4.4290 C.ar   82  TRP82       0.0015
    105  N        -15.1770   -4.6920   -8.9680 N.3    98  TRP98      -0.1241
    106  CA       -16.0210   -3.8770   -8.1150 C.3    98  TRP98       0.1605
    107  C        -15.2530   -2.7500   -7.4550 C.2    98  TRP98       0.2264
    108  O        -14.0170   -2.8440   -7.2730 O.2    98  TRP98      -0.2867
    109  CB       -16.7390   -4.7050   -7.0480 C.3    98  TRP98       0.0550
    110  CG       -15.8840   -5.6260   -6.2260 C.ar   98  TRP98       0.0003
    111  CD1      -15.7440   -6.9590   -6.4180 C.ar   98  TRP98       0.0946
    112  CD2      -15.1540   -5.2910   -5.0560 C.ar   98  TRP98       0.0152
    113  NE1      -14.9190   -7.4960   -5.4360 N.ar   98  TRP98      -0.2442
    114  CE2      -14.5200   -6.4970   -4.5870 C.ar   98  TRP98       0.0810
    115  CE3      -14.9180   -4.0820   -4.3780 C.ar   98  TRP98       0.0012
    116  CZ2      -13.7170   -6.5230   -3.4580 C.ar   98  TRP98       0.0191
    117  CZ3      -14.0910   -4.1220   -3.2360 C.ar   98  TRP98       0.0001
    118  CH2      -13.5050   -5.3440   -2.8060 C.ar   98  TRP98       0.0015
    119  N        -15.7960   -0.3900   -3.9300 N.3   100  LEU100     -0.1245
    120  CA       -16.5110   -0.1980   -2.6420 C.3   100  LEU100      0.1561
    121  C        -16.0570    1.1220   -2.0560 C.2   100  LEU100      0.2260
    122  O        -14.8810    1.3120   -1.7820 O.2   100  LEU100     -0.2867
    123  CB       -16.1880   -1.3870   -1.7350 C.3   100  LEU100      0.0270
    124  CG       -16.4480   -1.2970   -0.2300 C.3   100  LEU100      0.0019
    125  CD1      -17.8500   -0.8500    0.0880 C.3   100  LEU100      0.0001
    126  CD2      -16.1720   -2.6680    0.3560 C.3   100  LEU100      0.0001
    127  N        -16.5680    3.9840    0.9750 N.3   102  SER102     -0.1217
    128  CA       -17.1140    4.3800    2.2640 C.3   102  SER102      0.1889
    129  C        -17.2680    5.8830    2.3280 C.2   102  SER102      0.2288
    130  O        -16.3990    6.5860    1.8230 O.2   102  SER102     -0.2866
    131  CB       -16.1690    3.9150    3.3620 C.3   102  SER102      0.2089
    132  OG       -16.0910    2.4840    3.4080 O.3   102  SER102     -0.2183
    133  N        -12.1340    0.8210   -2.0400 N.3   114  LEU114     -0.1245
    134  CA       -11.5170   -0.4870   -2.2540 C.3   114  LEU114      0.1561
    135  C        -11.8760   -1.0430   -3.6380 C.2   114  LEU114      0.2260
    136  O        -12.9350   -0.7060   -4.1880 O.2   114  LEU114     -0.2867
    137  CB       -11.9730   -1.4780   -1.1760 C.3   114  LEU114      0.0270
    138  CG       -11.4340   -1.2430    0.2360 C.3   114  LEU114      0.0019
    139  CD1      -12.3710   -1.9200    1.2870 C.3   114  LEU114      0.0001
    140  CD2       -9.9990   -1.6850    0.4030 C.3   114  LEU114      0.0001
    141  N        -14.8540  -10.2630   -8.8020 N.3   118  ASP118     -0.1239
    142  CA       -15.8650  -11.2270   -8.3040 C.3   118  ASP118      0.1674
    143  C        -16.3680  -11.9400   -9.5560 C.2   118  ASP118      0.2266
    144  O        -16.8790  -11.2790  -10.4790 O.2   118  ASP118     -0.2867
    145  CB       -17.0260  -10.3480   -7.6780 C.3   118  ASP118      0.1410
    146  CG       -17.5990  -10.8760   -6.3920 C.2   118  ASP118      0.3668
    147  OD1      -17.5740  -12.1390   -6.2070 O.co2 118  ASP118     -0.2456
    148  OD2      -18.1770  -10.0350   -5.6010 O.co2 118  ASP118     -0.2456
@<TRIPOS>BOND
     1    94    93    2
     2    93    92    1
     3   144   143    2
     4    92    95    1
     5    92    91    1
     6    95    96    1
     7   143   142    1
     8   105   106    1
     9   141   142    1
    10   142   145    1
    11    96    97   ar
    12    96    98   ar
    13   106   107    1
    14   106   109    1
    15    97    99   ar
    16   145   146    1
    17   107   108    2
    18    98   101   ar
    19    98   100   ar
    20   109   110    1
    21   101   103   ar
    22    99   100   ar
    23   111   110   ar
    24   111   113   ar
    25   146   147   ar
    26   146   148   ar
    27   110   112   ar
    28   100   102   ar
    29   113   114   ar
    30    87    86    2
    31   103   104   ar
    32    86    85    1
    33   112   114   ar
    34   112   115   ar
    35    26    24   ar
    36    26    27   ar
    37   102   104   ar
    38    24    22   ar
    39   114   116   ar
    40    90    88    1
    41   115   117   ar
    42    28    27    1
    43   136   135    2
    44    27    25   ar
    45    85    88    1
    46    85    84    1
    47   119   120    1
    48    12    11    2
    49   135   134    1
    50    88    89    1
    51    22    21    1
    52    22    23   ar
    53   116   118   ar
    54   117   118   ar
    55    21    18    1
    56    17    18    1
    57    11    10    1
    58    18    19    1
    59   120   121    1
    60   120   123    1
    61    25    23   ar
    62     1     2    1
    63   134   133    1
    64   134   137    1
    65    13    10    1
    66    13    14    1
    67   121   122    2
    68    16    14   ar
    69   123   124    1
    70    10     9    1
    71    19    20    2
    72    14    15   ar
    73   137   138    1
    74     7     6    1
    75     2     5    1
    76     2     3    1
    77     8     6    1
    78    70    72   ar
    79    70    68   ar
    80     5     6    1
    81     3     4    2
    82   124   125    1
    83   124   126    1
    84    67    68   ar
    85    67    65   ar
    86    72    71   ar
    87    68    66   ar
    88   138   140    1
    89   138   139    1
    90    65    64   ar
    91    71    69   ar
    92    80    81    2
    93    80    79    1
    94   127   128    1
    95    29    30    1
    96    66    69   ar
    97    66    64   ar
    98    30    33    1
    99    30    31    1
   100    59    60    1
   101    33    34    1
   102    64    63    1
   103   130   129    2
   104    79    82    1
   105    79    78    1
   106    41    39    1
   107   128   129    1
   108   128   131    1
   109    31    32    2
   110    60    63    1
   111    60    61    1
   112    82    83    1
   113    40    39    1
   114   131   132    1
   115    39    36    1
   116    35    36    1
   117    61    62    2
   118    38    37    2
   119    36    37    1
   120    37    42   am
   121    58    55    1
   122    42    43    1
   123    43    44    1
   124    76    75    2
   125    55    56    1
   126    55    54    1
   127    75    74    1
   128    77    74    1
   129    44    46   am
   130    44    45    2
   131    49    48    2
   132    46    47    1
   133    56    57    2
   134    74    73    1
   135    54    48   am
   136    48    47    1
   137    47    50    1
   138    50    51    1
   139    51    53   am
   140    51    52    2
