@<TRIPOS>MOLECULE
tmp/3wzoA01.pdb
 116 112 0 0 0
SMALL
GASTEIGER

@<TRIPOS>ATOM
      1  N         11.9710  -15.7370    4.5860 N.3     2  PRO2       -0.2102
      2  CA        10.8820  -16.3760    3.8560 C.3     2  PRO2        0.1504
      3  C         10.2760  -15.5450    2.7260 C.2     2  PRO2        0.2575
      4  O          9.8510  -16.1320    1.7570 O.2     2  PRO2       -0.2718
      5  CB         9.8330  -16.6880    4.9470 C.3     2  PRO2        0.0282
      6  CG        10.5790  -16.6080    6.2470 C.3     2  PRO2        0.0208
      7  CD        11.6770  -15.6220    6.0290 C.3     2  PRO2        0.0893
      8  N         10.2300  -14.2190    2.8050 N.am    3  ALA3       -0.1980
      9  CA         9.6860  -13.4670    1.6440 C.3     3  ALA3        0.1597
     10  C         10.6220  -13.6020    0.4330 C.2     3  ALA3        0.2287
     11  O         10.1420  -13.7840   -0.7050 O.2     3  ALA3       -0.2864
     12  CB         9.4510  -12.0050    1.9730 C.3     3  ALA3        0.0319
     13  N         12.8340  -16.0240   -0.2370 N.3     5  ALA5       -0.1231
     14  CA        12.8620  -17.3840   -0.7230 C.3     5  ALA5        0.1694
     15  C         11.5100  -17.7690   -1.3570 C.2     5  ALA5        0.2592
     16  O         11.4490  -18.5490   -2.3230 O.2     5  ALA5       -0.2718
     17  CB        13.2100  -18.3050    0.4210 C.3     5  ALA5        0.0304
     18  N         10.4240  -17.2580   -0.7920 N.am    6  GLY6       -0.1957
     19  CA         9.0980  -17.5060   -1.3300 C.3     6  GLY6        0.1869
     20  C          8.8330  -16.8440   -2.6640 C.2     6  GLY6        0.2309
     21  O          8.3200  -17.4990   -3.6090 O.2     6  GLY6       -0.2863
     22  N          7.7440   -8.9240    6.4130 N.3    54  PRO54      -0.2102
     23  CA         6.2700   -8.9510    6.5010 C.3    54  PRO54       0.1504
     24  C          5.7460   -9.2950    7.9050 C.2    54  PRO54       0.2575
     25  O          6.5500   -9.6970    8.7700 O.2    54  PRO54      -0.2718
     26  CB         5.8460   -9.9930    5.4420 C.3    54  PRO54       0.0282
     27  CG         7.0670  -10.8080    5.1970 C.3    54  PRO54       0.0208
     28  CD         8.2320   -9.8490    5.3740 C.3    54  PRO54       0.0893
     29  N          4.4230   -9.0820    8.1100 N.am   55  ALA55      -0.1980
     30  CA         3.7730   -9.2370    9.3880 C.3    55  ALA55       0.1597
     31  C          4.0030  -10.6910    9.7130 C.2    55  ALA55       0.2287
     32  O          4.1260  -11.5430    8.8280 O.2    55  ALA55      -0.2864
     33  CB         2.2780   -8.8900    9.3230 C.3    55  ALA55       0.0319
     34  N          0.7930  -14.9870    9.7720 N.3    58  GLY58      -0.1210
     35  CA        -0.1030  -15.4840    8.7350 C.3    58  GLY58       0.1956
     36  C         -0.6950  -14.4750    7.7700 C.2    58  GLY58       0.2613
     37  O         -1.6230  -14.8220    7.0580 O.2    58  GLY58      -0.2717
     38  N         -0.2080  -13.2340    7.7560 N.am   59  SER59      -0.1938
     39  CA        -0.5790  -12.3090    6.7000 C.3    59  SER59       0.2055
     40  C          0.2350  -12.6020    5.4270 C.2    59  SER59       0.2644
     41  O          1.2700  -13.3080    5.4320 O.2    59  SER59      -0.2714
     42  CB        -0.3240  -10.8460    7.1060 C.3    59  SER59       0.2130
     43  OG        -1.3570  -10.2980    7.9250 O.3    59  SER59      -0.2179
     44  N         -0.2210  -12.0160    4.3310 N.am   60  GLY60      -0.1939
     45  CA         0.5080  -12.0600    3.1070 C.3    60  GLY60       0.2014
     46  C          1.6210  -11.0120    3.1180 C.2    60  GLY60       0.2639
     47  O          1.6790  -10.1790    3.9990 O.2    60  GLY60      -0.2714
     48  N          2.4780  -11.0930    2.1270 N.am   61  THR61      -0.1950
     49  CA         3.5770  -10.1770    1.8970 C.3    61  THR61       0.1897
     50  C          3.2230   -9.2400    0.7290 C.2    61  THR61       0.2313
     51  O          3.0060   -9.6820   -0.3810 O.2    61  THR61      -0.2863
     52  CB         4.8900  -10.9470    1.5560 C.3    61  THR61       0.1794
     53  OG1        5.2530  -11.8660    2.6300 O.3    61  THR61      -0.2208
     54  CG2        6.0530  -10.0040    1.2640 C.3    61  THR61       0.0378
     55  N          1.9440  -11.7340   -1.7940 N.3    86  TYR86      -0.1227
     56  CA         2.4320  -13.1010   -1.8200 C.3    86  TYR86       0.1736
     57  C          1.9640  -13.9190   -0.6150 C.2    86  TYR86       0.2595
     58  O          2.0230  -13.4540    0.5230 O.2    86  TYR86      -0.2718
     59  CB         3.9570  -13.1640   -1.9300 C.3    86  TYR86       0.0548
     60  CG         4.5830  -14.4940   -1.5580 C.ar   86  TYR86      -0.0200
     61  CD1        4.7300  -15.4760   -2.4700 C.ar   86  TYR86      -0.0009
     62  CD2        5.0510  -14.7330   -0.2630 C.ar   86  TYR86      -0.0009
     63  CE1        5.3190  -16.6770   -2.1270 C.ar   86  TYR86       0.0417
     64  CE2        5.6280  -15.9310    0.1040 C.ar   86  TYR86       0.0417
     65  CZ         5.7730  -16.8870   -0.8420 C.ar   86  TYR86       0.1957
     66  OH         6.2870  -18.1240   -0.4760 O.3    86  TYR86      -0.2866
     67  N          1.5330  -15.1440   -0.8970 N.am   87  VAL87      -0.1966
     68  CA         1.3370  -16.2060    0.1490 C.3    87  VAL87       0.1727
     69  C          2.0290  -17.5060   -0.1840 C.2    87  VAL87       0.2617
     70  O          1.9880  -17.9720   -1.3230 O.2    87  VAL87      -0.2715
     71  CB        -0.1480  -16.5000    0.4800 C.3    87  VAL87       0.0290
     72  CG1       -0.8000  -15.2340    0.9920 C.3    87  VAL87       0.0023
     73  CG2       -0.9180  -17.0170   -0.7130 C.3    87  VAL87       0.0023
     74  N          2.7180  -18.0690    0.8040 N.am   88  GLY88      -0.1940
     75  CA         3.5180  -19.3140    0.5780 C.3    88  GLY88       0.2014
     76  C          2.6900  -20.5410    0.7770 C.2    88  GLY88       0.2639
     77  O          1.5000  -20.4510    0.7080 O.2    88  GLY88      -0.2714
     78  N          3.3500  -21.6610    1.0660 N.am   89  GLY89      -0.1939
     79  CA         2.7170  -22.9840    1.1170 C.3    89  GLY89       0.2014
     80  C          3.0140  -23.6800   -0.1900 C.2    89  GLY89       0.2638
     81  O          3.6300  -23.0860   -1.0590 O.2    89  GLY89      -0.2714
     82  N          2.5690  -24.9330   -0.3340 N.am   90  ALA90      -0.1977
     83  CA         2.8890  -25.7900   -1.5370 C.3    90  ALA90       0.1597
     84  C          2.2280  -25.1570   -2.8010 C.2    90  ALA90       0.2287
     85  O          2.8270  -25.1480   -3.8840 O.2    90  ALA90      -0.2864
     86  CB         2.3000  -27.1630   -1.2900 C.3    90  ALA90       0.0319
     87  N          1.7710  -21.9330   -3.6240 N.3    92  ALA92      -0.1245
     88  CA         2.0900  -20.5330   -3.3760 C.3    92  ALA92       0.1562
     89  C          1.4670  -19.6480   -4.4440 C.2    92  ALA92       0.2260
     90  O          1.4380  -19.9830   -5.5950 O.2    92  ALA92      -0.2867
     91  CB         3.5910  -20.3690   -3.3040 C.3    92  ALA92       0.0290
     92  N          3.1070  -20.4000   -8.2000 N.3   122  LYS122     -0.1245
     93  CA         4.5380  -20.5970   -8.3610 C.3   122  LYS122      0.1561
     94  C          4.7780  -22.0010   -8.9240 C.2   122  LYS122      0.2260
     95  O          4.1640  -23.0370   -8.4870 O.2   122  LYS122     -0.2867
     96  CB         5.2870  -20.4170   -7.0360 C.3   122  LYS122      0.0271
     97  CG         6.7990  -20.3860   -7.2030 C.3   122  LYS122      0.0035
     98  CD         7.4450  -20.2340   -5.8670 C.3   122  LYS122      0.0206
     99  CE         8.8860  -19.7990   -6.0150 C.3   122  LYS122      0.1093
    100  NZ         9.4990  -19.6940   -4.6790 N.3   122  LYS122     -0.1314
    101  N          6.4620  -25.2750   -8.8710 N.3   124  LYS124     -0.1231
    102  CA         7.1110  -26.0500   -7.7950 C.3   124  LYS124      0.1678
    103  C          8.3440  -26.7930   -8.3390 C.2   124  LYS124      0.2434
    104  O          8.3850  -27.1270   -9.5340 O.2   124  LYS124     -0.2733
    105  CB         6.1570  -27.1100   -7.2340 C.3   124  LYS124      0.0284
    106  CG         4.8200  -26.6350   -6.6950 C.3   124  LYS124      0.0035
    107  CD         4.0180  -27.8180   -6.1600 C.3   124  LYS124      0.0206
    108  CE         2.5880  -27.4750   -5.7510 C.3   124  LYS124      0.1093
    109  NZ         1.9720  -26.3710   -6.5290 N.3   124  LYS124     -0.1314
    110  N          9.3410  -27.0800   -7.4610 N.am  125  PRO125     -0.2729
    111  CA        10.4790  -27.9240   -7.9170 C.3   125  PRO125      0.1401
    112  C         10.0030  -29.2580   -8.5000 C.2   125  PRO125      0.2269
    113  O         10.5740  -29.7060   -9.4540 O.2   125  PRO125     -0.2865
    114  CB        11.2940  -28.1580   -6.6190 C.3   125  PRO125      0.0296
    115  CG        11.0360  -26.8790   -5.7990 C.3   125  PRO125      0.0237
    116  CD         9.5560  -26.6190   -6.0550 C.3   125  PRO125      0.0939
@<TRIPOS>BOND
     1   104   103    2
     2   113   112    2
     3    94    95    2
     4    94    93    1
     5   101   102    1
     6   112   111    1
     7    93    92    1
     8    93    96    1
     9   103   102    1
    10   103   110   am
    11   111   110    1
    12   111   114    1
    13   102   105    1
    14   110   116    1
    15   105   106    1
    16    97    96    1
    17    97    98    1
    18   106   107    1
    19   114   115    1
    20   109   108    1
    21   107   108    1
    22   116   115    1
    23    99    98    1
    24    99   100    1
    25    90    89    2
    26    89    88    1
    27    85    84    2
    28    87    88    1
    29    21    20    2
    30    88    91    1
    31    84    83    1
    32    20    19    1
    33    61    63   ar
    34    61    60   ar
    35    16    15    2
    36    63    65   ar
    37    59    56    1
    38    59    60    1
    39    56    55    1
    40    56    57    1
    41    60    62   ar
    42    83    86    1
    43    83    82    1
    44    15    18   am
    45    15    14    1
    46    19    18    1
    47    70    69    2
    48    81    80    2
    49    67    57   am
    50    67    68    1
    51    65    66    1
    52    65    64   ar
    53    14    13    1
    54    14    17    1
    55    73    71    1
    56    11    10    2
    57    57    58    2
    58    51    50    2
    59    82    80   am
    60    62    64   ar
    61    80    79    1
    62    69    68    1
    63    69    74   am
    64    68    71    1
    65    10     9    1
    66    71    72    1
    67    75    76    1
    68    75    74    1
    69    77    76    2
    70    50    49    1
    71    76    78   am
    72    78    79    1
    73    54    52    1
    74    52    49    1
    75    52    53    1
    76     9    12    1
    77     9     8    1
    78     4     3    2
    79    49    48    1
    80    48    46   am
    81     3     8   am
    82     3     2    1
    83    45    46    1
    84    45    44    1
    85    46    47    2
    86     2     1    1
    87     2     5    1
    88    44    40   am
    89     1     7    1
    90     5     6    1
    91    27    28    1
    92    27    26    1
    93    28    22    1
    94    40    41    2
    95    40    39    1
    96    26    23    1
    97     7     6    1
    98    22    23    1
    99    23    24    1
   100    39    42    1
   101    39    38    1
   102    37    36    2
   103    42    43    1
   104    38    36   am
   105    36    35    1
   106    24    29   am
   107    24    25    2
   108    29    30    1
   109    35    34    1
   110    32    31    2
   111    33    30    1
   112    30    31    1
