@<TRIPOS>MOLECULE
tmp/3wzsA00.pdb
 151 143 0 0 0
SMALL
GASTEIGER

@<TRIPOS>ATOM
      1  N         38.8360   47.2240   13.7250 N.3    25  ARG25      -0.1231
      2  CA        37.6040   47.5290   14.4660 C.3    25  ARG25       0.1694
      3  C         36.7050   48.5330   13.7310 C.2    25  ARG25       0.2592
      4  O         35.4840   48.3800   13.7400 O.2    25  ARG25      -0.2718
      5  CB        37.9250   48.0600   15.8760 C.3    25  ARG25       0.0321
      6  CG        37.7590   47.0290   16.9880 C.3    25  ARG25       0.0489
      7  CD        38.2850   47.5390   18.3280 C.3    25  ARG25       0.2205
      8  NE        38.8180   46.4630   19.1690 N.pl3  25  ARG25      -0.0865
      9  CZ        39.9640   45.8090   18.9500 C.cat  25  ARG25       0.5346
     10  NH1       40.7330   46.1000   17.9030 N.pl3  25  ARG25       0.1354
     11  NH2       40.3460   44.8490   19.7870 N.pl3  25  ARG25       0.1354
     12  N         37.3110   49.5490   13.1090 N.am   26  ASP26      -0.1960
     13  CA        36.5740   50.5710   12.3480 C.3    26  ASP26       0.1840
     14  C         35.9260   50.0390   11.0680 C.2    26  ASP26       0.2622
     15  O         34.9570   50.6170   10.5860 O.2    26  ASP26      -0.2715
     16  CB        37.4970   51.7400   11.9600 C.3    26  ASP26       0.1450
     17  CG        37.9480   52.5660   13.1600 C.2    26  ASP26       0.3671
     18  OD1       37.1060   52.8910   14.0240 O.co2  26  ASP26      -0.2456
     19  OD2       39.1500   52.8980   13.2330 O.co2  26  ASP26      -0.2456
     20  N         36.4730   48.9630   10.5070 N.am   27  ASP27      -0.1957
     21  CA        35.8750   48.3200    9.3360 C.3    27  ASP27       0.1840
     22  C         34.7480   47.3260    9.7000 C.2    27  ASP27       0.2622
     23  O         34.1260   46.7580    8.7990 O.2    27  ASP27      -0.2715
     24  CB        36.9560   47.6140    8.5070 C.3    27  ASP27       0.1450
     25  CG        37.9980   48.5830    7.9560 C.2    27  ASP27       0.3671
     26  OD1       37.9940   49.7640    8.3760 O.co2  27  ASP27      -0.2456
     27  OD2       38.8250   48.1640    7.1160 O.co2  27  ASP27      -0.2456
     28  N         34.5050   47.1130   10.9950 N.am   28  TRP28      -0.1960
     29  CA        33.5300   46.1040   11.4530 C.3    28  TRP28       0.1771
     30  C         32.1070   46.5760   11.1630 C.2    28  TRP28       0.2619
     31  O         31.7670   47.7430   11.4180 O.2    28  TRP28      -0.2715
     32  CB        33.6870   45.8190   12.9490 C.3    28  TRP28       0.0590
     33  CG        32.9620   44.5690   13.3900 C.ar   28  TRP28       0.0006
     34  CD1       33.3990   43.2760   13.2700 C.ar   28  TRP28       0.0946
     35  CD2       31.6790   44.5030   14.0040 C.ar   28  TRP28       0.0152
     36  NE1       32.4720   42.4160   13.7810 N.ar   28  TRP28      -0.2442
     37  CE2       31.4000   43.1400   14.2360 C.ar   28  TRP28       0.0810
     38  CE3       30.7300   45.4660   14.3780 C.ar   28  TRP28       0.0012
     39  CZ2       30.2030   42.7070   14.8240 C.ar   28  TRP28       0.0191
     40  CZ3       29.5570   45.0400   14.9780 C.ar   28  TRP28       0.0001
     41  CH2       29.3060   43.6650   15.1940 C.ar   28  TRP28       0.0015
     42  N         31.2720   45.6710   10.6410 N.am   29  ALA29      -0.1977
     43  CA        29.8250   45.9070   10.5660 C.3    29  ALA29       0.1597
     44  C         29.1000   44.5620   10.7370 C.2    29  ALA29       0.2287
     45  O         29.6390   43.5330   10.3960 O.2    29  ALA29      -0.2864
     46  CB        29.4590   46.5310    9.2350 C.3    29  ALA29       0.0319
     47  N         25.9760   42.5120    9.4690 N.3    31  LEU31      -0.1245
     48  CA        24.9280   42.4280    8.4730 C.3    31  LEU31       0.1561
     49  C         24.2050   41.0710    8.5450 C.2    31  LEU31       0.2260
     50  O         24.8390   40.0430    8.4310 O.2    31  LEU31      -0.2867
     51  CB        25.5430   42.5860    7.1020 C.3    31  LEU31       0.0270
     52  CG        24.5850   42.3850    5.9350 C.3    31  LEU31       0.0019
     53  CD1       23.4650   43.4150    5.9850 C.3    31  LEU31       0.0001
     54  CD2       25.3580   42.4480    4.6230 C.3    31  LEU31       0.0001
     55  N         21.1810   38.9860    6.5920 N.3    33  VAL33      -0.1245
     56  CA        20.2340   38.9360    5.4520 C.3    33  VAL33       0.1561
     57  C         19.1630   37.9050    5.8040 C.2    33  VAL33       0.2260
     58  O         19.4980   36.7660    6.1170 O.2    33  VAL33      -0.2867
     59  CB        20.9040   38.6540    4.1120 C.3    33  VAL33       0.0252
     60  CG1       19.9130   38.6160    2.9890 C.3    33  VAL33       0.0019
     61  CG2       21.9190   39.7070    3.8300 C.3    33  VAL33       0.0019
     62  N         19.2640   38.0380   -3.2080 N.3    45  LEU45      -0.1245
     63  CA        19.7010   38.9470   -2.1520 C.3    45  LEU45       0.1561
     64  C         20.8580   38.3490   -1.3550 C.2    45  LEU45       0.2260
     65  O         21.8590   39.0420   -1.0920 O.2    45  LEU45      -0.2867
     66  CB        18.5600   39.3120   -1.2100 C.3    45  LEU45       0.0270
     67  CG        17.5210   40.2250   -1.8410 C.3    45  LEU45       0.0019
     68  CD1       16.3230   40.4060   -0.9110 C.3    45  LEU45       0.0001
     69  CD2       18.1300   41.5780   -2.1880 C.3    45  LEU45       0.0001
     70  N         24.0640   38.5680   -3.4170 N.3    48  TYR48      -0.1227
     71  CA        24.6490   39.9220   -3.3580 C.3    48  TYR48       0.1736
     72  C         25.3910   40.1610   -2.0400 C.2    48  TYR48       0.2595
     73  O         26.4990   40.7110   -2.0310 O.2    48  TYR48      -0.2718
     74  CB        23.5780   41.0070   -3.5630 C.3    48  TYR48       0.0548
     75  CG        23.0070   41.0650   -4.9420 C.ar   48  TYR48      -0.0200
     76  CD1       23.8130   40.8510   -6.0610 C.ar   48  TYR48      -0.0009
     77  CD2       21.6600   41.3250   -5.1410 C.ar   48  TYR48      -0.0009
     78  CE1       23.2710   40.8710   -7.3320 C.ar   48  TYR48       0.0417
     79  CE2       21.1260   41.3880   -6.4030 C.ar   48  TYR48       0.0417
     80  CZ        21.9170   41.1510   -7.4910 C.ar   48  TYR48       0.1957
     81  OH        21.3670   41.1950   -8.7550 O.3    48  TYR48      -0.2866
     82  N         24.7800   39.7580   -0.9280 N.am   49  ALA49      -0.1980
     83  CA        25.4250   39.8230    0.3790 C.3    49  ALA49       0.1597
     84  C         26.6910   39.0060    0.4900 C.2    49  ALA49       0.2287
     85  O         27.6570   39.4680    1.1290 O.2    49  ALA49      -0.2864
     86  CB        24.4660   39.3960    1.4650 C.3    49  ALA49       0.0319
     87  N         29.2800   40.9890   -1.3610 N.3    52  PHE52      -0.1241
     88  CA        29.6460   42.1360   -0.5280 C.3    52  PHE52       0.1605
     89  C         30.6350   41.6980    0.5380 C.2    52  PHE52       0.2264
     90  O         31.6880   42.3230    0.7090 O.2    52  PHE52      -0.2867
     91  CB        28.3870   42.7880    0.0640 C.3    52  PHE52       0.0534
     92  CG        28.6590   43.8080    1.1030 C.ar   52  PHE52      -0.0203
     93  CD1       29.3450   44.9920    0.7950 C.ar   52  PHE52      -0.0042
     94  CD2       28.2770   43.5860    2.3940 C.ar   52  PHE52      -0.0042
     95  CE1       29.5980   45.9120    1.7840 C.ar   52  PHE52      -0.0003
     96  CE2       28.4940   44.5110    3.3770 C.ar   52  PHE52      -0.0003
     97  CZ        29.1450   45.6920    3.0740 C.ar   52  PHE52      -0.0000
     98  N         34.5780   42.8080    1.4790 N.3    56  ASN56      -0.1240
     99  CA        34.5320   43.6710    2.6530 C.3    56  ASN56       0.1653
    100  C         34.6650   42.8450    3.9180 C.2    56  ASN56       0.2266
    101  O         33.6650   42.4970    4.5570 O.2    56  ASN56      -0.2867
    102  CB        33.2200   44.4460    2.6870 C.3    56  ASN56       0.1155
    103  CG        33.1160   45.4460    1.5670 C.2    56  ASN56       0.2627
    104  OD1       33.4680   46.6350    1.7370 O.2    56  ASN56      -0.2716
    105  ND2       32.6430   44.9830    0.3950 N.am   56  ASN56      -0.0877
    106  N         33.1140   42.7120    7.7180 N.3    59  VAL59      -0.1245
    107  CA        31.6830   42.4680    7.8840 C.3    59  VAL59       0.1561
    108  C         31.4800   41.0670    8.4420 C.2    59  VAL59       0.2260
    109  O         32.0500   40.0960    7.9500 O.2    59  VAL59      -0.2867
    110  CB        30.9400   42.6140    6.5250 C.3    59  VAL59       0.0252
    111  CG1       29.4950   42.1080    6.6260 C.3    59  VAL59       0.0019
    112  CG2       30.9910   44.0690    6.0400 C.3    59  VAL59       0.0019
    113  N         17.0320   43.1440    5.5600 N.3   131  VAL131     -0.1245
    114  CA        18.3720   43.0710    6.1470 C.3   131  VAL131      0.1561
    115  C         18.3250   43.7620    7.5180 C.2   131  VAL131      0.2260
    116  O         17.4350   44.5580    7.8120 O.2   131  VAL131     -0.2867
    117  CB        19.4890   43.6460    5.2770 C.3   131  VAL131      0.0252
    118  CG1       19.5860   42.9420    3.9250 C.3   131  VAL131      0.0019
    119  CG2       19.3710   45.1390    5.1420 C.3   131  VAL131      0.0019
    120  N         21.1910   45.8420    9.5910 N.3   133  LEU133     -0.1231
    121  CA        22.5380   46.4110    9.5600 C.3   133  LEU133      0.1693
    122  C         22.7830   47.1550   10.8880 C.2   133  LEU133      0.2592
    123  O         22.2020   48.1890   11.1140 O.2   133  LEU133     -0.2718
    124  CB        22.6910   47.3830    8.3790 C.3   133  LEU133      0.0284
    125  CG        24.0510   48.0650    8.2010 C.3   133  LEU133      0.0019
    126  CD1       25.0990   46.9720    8.0630 C.3   133  LEU133      0.0001
    127  CD2       24.0250   49.0130    6.9990 C.3   133  LEU133      0.0001
    128  N         23.6590   46.6000   11.7110 N.am  134  ASN134     -0.1974
    129  CA        24.0420   47.1770   13.0160 C.3   134  ASN134      0.1688
    130  C         22.7930   47.5940   13.7660 C.2   134  ASN134      0.2292
    131  O         22.6580   48.7430   14.2240 O.2   134  ASN134     -0.2864
    132  CB        24.9490   48.3740   12.7850 C.3   134  ASN134      0.1181
    133  CG        26.2230   47.9970   12.1080 C.2   134  ASN134      0.2629
    134  OD1       26.7820   46.9280   12.3520 O.2   134  ASN134     -0.2716
    135  ND2       26.7010   48.8690   11.2190 N.am  134  ASN134     -0.0877
    136  N         15.9650   47.0300    7.7340 N.3   138  LEU138     -0.1245
    137  CA        15.6210   47.7020    6.4950 C.3   138  LEU138      0.1561
    138  C         14.8360   46.7530    5.6190 C.2   138  LEU138      0.2260
    139  O         15.3220   45.6420    5.3100 O.2   138  LEU138     -0.2867
    140  CB        16.8780   48.1420    5.7590 C.3   138  LEU138      0.0270
    141  CG        17.8140   49.0850    6.5260 C.3   138  LEU138      0.0019
    142  CD1       19.1220   49.1980    5.7860 C.3   138  LEU138      0.0001
    143  CD2       17.1550   50.4400    6.7510 C.3   138  LEU138      0.0001
    144  N         12.0270   44.3150    1.3470 N.3   141  ILE141     -0.1245
    145  CA        12.3610   44.5840   -0.0200 C.3   141  ILE141      0.1561
    146  C         11.3210   43.8320   -0.8560 C.2   141  ILE141      0.2260
    147  O         11.3270   42.5890   -0.9240 O.2   141  ILE141     -0.2867
    148  CB        13.7750   44.0640   -0.3240 C.3   141  ILE141      0.0252
    149  CG1       14.7750   44.6870    0.6780 C.3   141  ILE141      0.0019
    150  CG2       14.1260   44.2830   -1.7770 C.3   141  ILE141      0.0019
    151  CD1       16.1030   43.9450    0.8030 C.3   141  ILE141      0.0001
@<TRIPOS>BOND
     1    81    80    1
     2    80    78   ar
     3    80    79   ar
     4    78    76   ar
     5    79    77   ar
     6    76    75   ar
     7    77    75   ar
     8    75    74    1
     9    74    71    1
    10    70    71    1
    11    71    72    1
    12    62    63    1
    13    69    67    1
    14    63    64    1
    15    63    66    1
    16    72    73    2
    17    72    82   am
    18    67    66    1
    19    67    68    1
    20   150   148    1
    21    87    88    1
    22    64    65    2
    23    82    83    1
    24   147   146    2
    25   146   145    1
    26    88    91    1
    27    88    89    1
    28   148   145    1
    29   148   149    1
    30   145   144    1
    31    91    92    1
    32    83    84    1
    33    83    86    1
    34   105   103   am
    35    84    85    2
    36    89    90    2
    37   149   151    1
    38    93    92   ar
    39    93    95   ar
    40    92    94   ar
    41    98    99    1
    42   103   104    2
    43   103   102    1
    44    95    97   ar
    45    94    96   ar
    46    99   102    1
    47    99   100    1
    48    60    59    1
    49    97    96   ar
    50    61    59    1
    51   100   101    2
    52   118   117    1
    53    59    56    1
    54    54    52    1
    55   119   117    1
    56   117   114    1
    57   139   138    2
    58    56    57    1
    59    56    55    1
    60   113   114    1
    61   138   137    1
    62   140   137    1
    63   140   141    1
    64   142   141    1
    65    57    58    2
    66    52    53    1
    67    52    51    1
    68   112   110    1
    69   114   115    1
    70   137   136    1
    71   110   111    1
    72   110   107    1
    73   141   143    1
    74   127   125    1
    75    51    48    1
    76    27    25   ar
    77   115   116    2
    78   106   107    1
    79   107   108    1
    80   109   108    2
    81    25    26   ar
    82    25    24    1
    83   126   125    1
    84   125   124    1
    85   124   121    1
    86    50    49    2
    87    48    49    1
    88    48    47    1
    89    24    21    1
    90    23    22    2
    91    46    43    1
    92    21    22    1
    93    21    20    1
    94   121   120    1
    95   121   122    1
    96    22    28   am
    97    45    44    2
    98    20    14   am
    99    43    42    1
   100    43    44    1
   101    15    14    2
   102    42    30   am
   103   122   123    2
   104   122   128   am
   105    28    29    1
   106    14    13    1
   107    30    31    2
   108    30    29    1
   109   135   133   am
   110    29    32    1
   111   128   129    1
   112    16    13    1
   113    16    17    1
   114   133   134    2
   115   133   132    1
   116    13    12    1
   117   132   129    1
   118    32    33    1
   119   129   130    1
   120    12     3   am
   121    17    19   ar
   122    17    18   ar
   123    34    33   ar
   124    34    36   ar
   125    33    35   ar
   126     1     2    1
   127     3     4    2
   128     3     2    1
   129   130   131    2
   130    36    37   ar
   131    35    37   ar
   132    35    38   ar
   133    37    39   ar
   134    38    40   ar
   135     2     5    1
   136    39    41   ar
   137    40    41   ar
   138     5     6    1
   139     6     7    1
   140    10     9    1
   141     7     8    1
   142     9     8    2
   143     9    11    1
