@<TRIPOS>MOLECULE
tmp/3wzuA00.pdb
 149 138 0 0 0
SMALL
GASTEIGER

@<TRIPOS>ATOM
      1  N        -11.9270  -10.5960    6.4510 N.3    23  MET23      -0.1230
      2  CA       -10.8590  -11.5620    6.2080 C.3    23  MET23       0.1702
      3  C         -9.7320  -11.0200    5.3150 C.2    23  MET23       0.2592
      4  O         -8.7390  -11.7280    5.0320 O.2    23  MET23      -0.2718
      5  CB       -11.4560  -12.8250    5.5870 C.3    23  MET23       0.0401
      6  CG       -12.5380  -13.4930    6.4340 C.3    23  MET23       0.0596
      7  SD       -13.4250  -14.8640    5.6470 S.3    23  MET23      -0.1393
      8  CE       -13.8620  -15.7890    7.1230 C.3    23  MET23       0.0692
      9  N         -9.8950   -9.7710    4.8710 N.am   24  GLY24      -0.1957
     10  CA        -8.8980   -9.0940    4.0420 C.3    24  GLY24       0.1869
     11  C         -9.3730   -8.8010    2.6260 C.2    24  GLY24       0.2309
     12  O         -9.6550   -9.7300    1.8830 O.2    24  GLY24      -0.2863
     13  N         -6.6830   -7.7940    2.5890 N.3    26  GLY26      -0.1210
     14  CA        -5.3080   -8.1430    2.2590 C.3    26  GLY26       0.1956
     15  C         -5.2630   -8.4350    0.7760 C.2    26  GLY26       0.2612
     16  O         -5.1310   -9.5940    0.3720 O.2    26  GLY26      -0.2717
     17  N         -5.3810   -7.3620   -0.0150 N.am   27  THR27      -0.1952
     18  CA        -5.5040   -7.3690   -1.4920 C.3    27  THR27       0.1897
     19  C         -6.6780   -8.2150   -2.0190 C.2    27  THR27       0.2313
     20  O         -6.7640   -9.4040   -1.7060 O.2    27  THR27      -0.2863
     21  CB        -4.1720   -7.7060   -2.2230 C.3    27  THR27       0.1794
     22  OG1       -3.6260   -8.9310   -1.7170 O.3    27  THR27      -0.2208
     23  CG2       -3.1440   -6.5810   -2.0430 C.3    27  THR27       0.0378
     24  N        -12.7010   -8.4750    1.7120 N.3    31  VAL31      -0.1245
     25  CA       -13.4720   -9.7240    1.6890 C.3    31  VAL31       0.1561
     26  C        -14.1390   -9.9430    3.0490 C.2    31  VAL31       0.2260
     27  O        -13.5330   -9.7040    4.0920 O.2    31  VAL31      -0.2867
     28  CB       -12.6380  -10.9410    1.2570 C.3    31  VAL31       0.0252
     29  CG1      -13.1760  -12.2230    1.8560 C.3    31  VAL31       0.0019
     30  CG2      -12.6200  -11.0710   -0.2550 C.3    31  VAL31       0.0019
     31  N        -18.7480  -16.0720    1.7200 N.3    44  ALA44      -0.1245
     32  CA       -17.7540  -15.0360    1.4930 C.3    44  ALA44       0.1562
     33  C        -18.4580  -13.9940    0.6720 C.2    44  ALA44       0.2260
     34  O        -19.3810  -14.3050   -0.1050 O.2    44  ALA44      -0.2867
     35  CB       -16.5350  -15.5580    0.7420 C.3    44  ALA44       0.0290
     36  N        -16.7940  -10.5660   -1.3650 N.3    46  LYS46      -0.1245
     37  CA       -15.6830   -9.7210   -1.7110 C.3    46  LYS46       0.1561
     38  C        -16.2110   -8.4020   -2.2170 C.2    46  LYS46       0.2260
     39  O        -16.7050   -8.3230   -3.3500 O.2    46  LYS46      -0.2867
     40  CB       -14.8670  -10.4230   -2.8040 C.3    46  LYS46       0.0271
     41  CG       -13.8850   -9.5640   -3.6000 C.3    46  LYS46       0.0035
     42  CD       -12.6910   -9.1360   -2.7640 C.3    46  LYS46       0.0206
     43  CE       -11.3820   -9.2560   -3.5370 C.3    46  LYS46       0.1093
     44  NZ       -10.1920   -9.0170   -2.6620 N.3    46  LYS46      -0.1314
     45  N        -14.4010  -22.4770   -6.7900 N.3    66  VAL66      -0.1245
     46  CA       -15.1910  -21.9380   -5.7040 C.3    66  VAL66       0.1561
     47  C        -16.4930  -21.4690   -6.3380 C.2    66  VAL66       0.2260
     48  O        -16.5080  -20.8570   -7.4080 O.2    66  VAL66      -0.2867
     49  CB       -14.4740  -20.8710   -4.8350 C.3    66  VAL66       0.0252
     50  CG1      -12.9730  -20.8550   -5.0970 C.3    66  VAL66       0.0019
     51  CG2      -15.0780  -19.4960   -5.0260 C.3    66  VAL66       0.0019
     52  N        -19.3810  -15.6040   -2.4510 N.3    82  MET82      -0.1230
     53  CA       -18.7440  -16.8600   -2.7770 C.3    82  MET82       0.1702
     54  C        -18.8160  -17.7770   -1.5590 C.2    82  MET82       0.2592
     55  O        -19.0830  -17.3120   -0.4320 O.2    82  MET82      -0.2718
     56  CB       -17.3010  -16.6320   -3.2800 C.3    82  MET82       0.0401
     57  CG       -16.4550  -15.6500   -2.4680 C.3    82  MET82       0.0596
     58  SD       -15.1330  -14.8450   -3.4230 S.3    82  MET82      -0.1393
     59  CE       -13.6020  -15.7070   -3.0000 C.3    82  MET82       0.0692
     60  N        -18.6350  -19.0780   -1.8090 N.am   83  GLU83      -0.1966
     61  CA       -18.5300  -20.0640   -0.7340 C.3    83  GLU83       0.1733
     62  C        -17.3360  -19.7820    0.1470 C.2    83  GLU83       0.2616
     63  O        -16.2640  -19.4030   -0.3240 O.2    83  GLU83      -0.2715
     64  CB       -18.4530  -21.4780   -1.2800 C.3    83  GLU83       0.0429
     65  CG       -17.1320  -21.8690   -1.9100 C.3    83  GLU83       0.1163
     66  CD       -17.1960  -23.2480   -2.5550 C.2    83  GLU83       0.3649
     67  OE1      -16.3400  -24.1110   -2.2400 O.co2  83  GLU83      -0.2457
     68  OE2      -18.1140  -23.4840   -3.3730 O.co2  83  GLU83      -0.2457
     69  N        -17.5450  -19.9440    1.4380 N.am   84  LEU84      -0.1963
     70  CA       -16.5490  -19.5960    2.4220 C.3    84  LEU84       0.1728
     71  C        -15.4810  -20.6710    2.4390 C.2    84  LEU84       0.2616
     72  O        -15.8120  -21.8560    2.4600 O.2    84  LEU84      -0.2715
     73  CB       -17.2580  -19.5350    3.7540 C.3    84  LEU84       0.0311
     74  CG       -16.5160  -19.4000    5.0630 C.3    84  LEU84       0.0022
     75  CD1      -15.6250  -18.1730    5.0760 C.3    84  LEU84       0.0001
     76  CD2      -17.5690  -19.3610    6.1590 C.3    84  LEU84       0.0001
     77  N        -14.2050  -20.2820    2.4290 N.am   85  MET85      -0.1963
     78  CA       -13.1100  -21.2610    2.2630 C.3    85  MET85       0.1740
     79  C        -11.7570  -20.8680    2.8540 C.2    85  MET85       0.2656
     80  O        -11.1360  -19.9190    2.3890 O.2    85  MET85      -0.2711
     81  CB       -12.8650  -21.5200    0.7740 C.3    85  MET85       0.0427
     82  CG       -13.8160  -22.4760    0.0930 C.3    85  MET85       0.0599
     83  SD       -12.9360  -23.3080   -1.2410 S.3    85  MET85      -0.1393
     84  CE       -12.8130  -24.9690   -0.5840 C.3    85  MET85       0.0692
     85  N        -11.2750  -21.6300    3.8280 N.am   86  GLY86      -0.1716
     86  CA        -9.9010  -21.5000    4.3540 C.2    86  GLY86       0.1480
     87  C         -8.9370  -20.3410    4.0310 C.2    86  GLY86       0.2821
     88  O         -8.7660  -19.4630    4.8730 O.2    86  GLY86      -0.2669
     89  N         -8.2770  -20.3580    2.8570 N.am   87  THR87      -0.1902
     90  CA        -7.1320  -19.4550    2.5480 C.3    87  THR87       0.2031
     91  C         -6.5620  -19.6270    1.1250 C.2    87  THR87       0.2642
     92  O         -6.8310  -20.6280    0.4580 O.2    87  THR87      -0.2714
     93  CB        -5.9320  -19.6910    3.4990 C.3    87  THR87       0.1808
     94  OG1       -6.3890  -20.1530    4.7750 O.3    87  THR87      -0.2208
     95  CG2       -5.0940  -18.4150    3.6770 C.3    87  THR87       0.0379
     96  N         -5.7550  -18.6600    0.6770 N.am   88  CYS88      -0.1967
     97  CA        -5.0730  -18.7500   -0.6150 C.3    88  CYS88       0.1712
     98  C         -3.9560  -19.7550   -0.4910 C.2    88  CYS88       0.2296
     99  O         -3.6190  -20.2070    0.6080 O.2    88  CYS88      -0.2864
    100  CB        -4.4570  -17.4110   -1.0570 C.3    88  CYS88       0.0983
    101  SG        -5.2890  -15.9290   -0.4550 S.3    88  CYS88      -0.0798
    102  N         -0.8570  -17.2060    0.4360 N.3    91  LYS91      -0.1245
    103  CA        -0.7860  -16.9080    1.8450 C.3    91  LYS91       0.1561
    104  C         -0.3840  -18.0880    2.7210 C.2    91  LYS91       0.2260
    105  O         -0.0780  -17.8890    3.8830 O.2    91  LYS91      -0.2867
    106  CB        -2.0980  -16.2710    2.3390 C.3    91  LYS91       0.0271
    107  CG        -2.3150  -14.8060    1.9170 C.3    91  LYS91       0.0035
    108  CD        -1.1340  -13.8530    2.2060 C.3    91  LYS91       0.0206
    109  CE        -1.5470  -12.3890    2.3940 C.3    91  LYS91       0.1093
    110  NZ        -2.4330  -11.8370    1.3240 N.3    91  LYS91      -0.1314
    111  N         -2.4760  -17.2330   -5.4220 N.3   133  SER133     -0.1202
    112  CA        -3.5390  -16.3850   -4.8510 C.3   133  SER133      0.2020
    113  C         -4.9090  -16.9880   -5.1420 C.2   133  SER133      0.2618
    114  O         -5.7760  -16.9660   -4.2990 O.2   133  SER133     -0.2717
    115  CB        -3.4740  -14.9580   -5.4220 C.3   133  SER133      0.2103
    116  OG        -2.1660  -14.6280   -5.8750 O.3   133  SER133     -0.2182
    117  N         -5.0470  -17.5400   -6.3450 N.am  134  ASN134     -0.1974
    118  CA        -6.2980  -18.0590   -6.8970 C.3   134  ASN134      0.1688
    119  C         -6.6220  -19.5120   -6.5180 C.2   134  ASN134      0.2292
    120  O         -7.6390  -20.0680   -6.9470 O.2   134  ASN134     -0.2864
    121  CB        -6.2610  -17.9440   -8.4310 C.3   134  ASN134      0.1181
    122  CG        -6.4900  -16.5170   -8.9330 C.2   134  ASN134      0.2629
    123  OD1       -6.5440  -15.5470   -8.1540 O.2   134  ASN134     -0.2716
    124  ND2       -6.6300  -16.3850  -10.2520 N.am  134  ASN134     -0.0877
    125  N         -7.5870  -21.8910   -3.6020 N.3   136  LEU136     -0.1245
    126  CA        -8.0870  -21.8460   -2.2540 C.3   136  LEU136      0.1561
    127  C         -8.1690  -23.2050   -1.5920 C.2   136  LEU136      0.2260
    128  O         -8.7380  -24.1460   -2.1310 O.2   136  LEU136     -0.2867
    129  CB        -9.4460  -21.1690   -2.2260 C.3   136  LEU136      0.0270
    130  CG        -9.4990  -19.6390   -2.2310 C.3   136  LEU136      0.0019
    131  CD1       -9.1990  -19.0720   -3.6030 C.3   136  LEU136      0.0001
    132  CD2      -10.8940  -19.2370   -1.8020 C.3   136  LEU136      0.0001
    133  N        -10.2080  -20.1710   -7.6400 N.3   146  CYS146     -0.1235
    134  CA       -10.9570  -18.9260   -7.7120 C.3   146  CYS146      0.1677
    135  C        -10.7500  -18.3930   -9.1140 C.2   146  CYS146      0.2270
    136  O         -9.6310  -18.0650   -9.5030 O.2   146  CYS146     -0.2867
    137  CB       -10.4640  -17.9210   -6.6830 C.3   146  CYS146      0.0956
    138  SG       -11.7730  -16.8550   -6.0360 S.3   146  CYS146     -0.0801
    139  N        -10.9060  -15.4990  -11.2950 N.3   148  PHE148     -0.1241
    140  CA       -10.9640  -14.0660  -10.9690 C.3   148  PHE148      0.1605
    141  C        -10.2800  -13.0880  -11.9500 C.2   148  PHE148      0.2264
    142  O        -10.8300  -12.7980  -13.0190 O.2   148  PHE148     -0.2867
    143  CB       -10.4820  -13.8330   -9.5280 C.3   148  PHE148      0.0534
    144  CG       -11.2150  -12.7310   -8.8210 C.ar  148  PHE148     -0.0203
    145  CD1      -12.3250  -13.0170   -8.0340 C.ar  148  PHE148     -0.0042
    146  CD2      -10.8050  -11.4020   -8.9540 C.ar  148  PHE148     -0.0042
    147  CE1      -13.0080  -12.0040   -7.3870 C.ar  148  PHE148     -0.0003
    148  CE2      -11.4870  -10.3830   -8.3100 C.ar  148  PHE148     -0.0003
    149  CZ       -12.5900  -10.6860   -7.5230 C.ar  148  PHE148     -0.0000
@<TRIPOS>BOND
     1   142   141    2
     2   141   140    1
     3   139   140    1
     4   140   143    1
     5   124   122   am
     6   143   144    1
     7   136   135    2
     8   135   134    1
     9   146   144   ar
    10   146   148   ar
    11   122   121    1
    12   122   123    2
    13   144   145   ar
    14   121   118    1
    15   148   149   ar
    16   145   147   ar
    17   134   133    1
    18   134   137    1
    19   149   147   ar
    20    48    47    2
    21   120   119    2
    22   118   119    1
    23   118   117    1
    24    45    46    1
    25   137   138    1
    26   117   113   am
    27    47    46    1
    28   116   115    1
    29    46    49    1
    30   115   112    1
    31   111   112    1
    32   113   112    1
    33   113   114    2
    34    50    49    1
    35    51    49    1
    36   131   130    1
    37   125   126    1
    38    41    40    1
    39    41    42    1
    40    43    42    1
    41    43    44    1
    42    58    59    1
    43    58    57    1
    44    68    66   ar
    45    39    38    2
    46    56    53    1
    47    56    57    1
    48    40    37    1
    49    53    52    1
    50    53    54    1
    51    66    67   ar
    52    66    65    1
    53   126   129    1
    54   126   127    1
    55   130   129    1
    56   130   132    1
    57    21    23    1
    58    21    22    1
    59    21    18    1
    60    38    37    1
    61   128   127    2
    62    19    20    2
    63    19    18    1
    64    65    64    1
    65    60    54   am
    66    60    61    1
    67    37    36    1
    68    54    55    2
    69    18    17    1
    70    64    61    1
    71    83    84    1
    72    83    82    1
    73   100    97    1
    74   100   101    1
    75    61    62    1
    76    97    98    1
    77    97    96    1
    78    98    99    2
    79    63    62    2
    80    30    28    1
    81    34    33    2
    82    17    15   am
    83    82    81    1
    84    62    69   am
    85    16    15    2
    86   102   103    1
    87    92    91    2
    88    33    32    1
    89    96    91   am
    90    35    32    1
    91    81    78    1
    92    15    14    1
    93    91    90    1
    94    28    25    1
    95    28    29    1
    96   110   109    1
    97    69    70    1
    98    32    31    1
    99    25    24    1
   100    25    26    1
   101   103   106    1
   102   103   104    1
   103    12    11    2
   104   107   108    1
   105   107   106    1
   106   108   109    1
   107    14    13    1
   108    78    77    1
   109    78    79    1
   110    80    79    2
   111    70    71    1
   112    70    73    1
   113    77    71   am
   114    71    72    2
   115    90    89    1
   116    90    93    1
   117    11    10    1
   118   104   105    2
   119    79    85    1
   120    89    87   am
   121    26    27    2
   122    93    95    1
   123    93    94    1
   124    73    74    1
   125    85    86    2
   126    87    86    1
   127    87    88    2
   128    10     9    1
   129     9     3   am
   130     4     3    2
   131    74    75    1
   132    74    76    1
   133     3     2    1
   134     5     2    1
   135     5     6    1
   136     7     6    1
   137     7     8    1
   138     2     1    1
