@<TRIPOS>MOLECULE
tmp/3x00C00.pdb
 135 127 0 0 0
SMALL
GASTEIGER

@<TRIPOS>ATOM
      1  N          6.4650  -66.9480   28.9870 N.3    13  ASP13      -0.1239
      2  CA         7.7200  -67.6120   28.7000 C.3    13  ASP13       0.1674
      3  C          7.8600  -68.9550   29.4220 C.2    13  ASP13       0.2266
      4  O          6.9680  -69.3550   30.1880 O.2    13  ASP13      -0.2867
      5  CB         8.9150  -66.6260   28.8080 C.3    13  ASP13       0.1410
      6  CG         9.2470  -66.2310   30.1930 C.2    13  ASP13       0.3668
      7  OD1        8.8960  -66.9680   31.1000 O.co2  13  ASP13      -0.2456
      8  OD2        9.8940  -65.1660   30.3630 O.co2  13  ASP13      -0.2456
      9  N          9.9950  -69.6450   31.6820 N.3    15  LEU15      -0.1245
     10  CA        10.1610  -69.3420   33.1420 C.3    15  LEU15       0.1561
     11  C          8.8090  -69.0050   33.8420 C.2    15  LEU15       0.2260
     12  O          8.7820  -68.7650   35.0530 O.2    15  LEU15      -0.2867
     13  CB        11.2230  -68.2360   33.3620 C.3    15  LEU15       0.0270
     14  CG        12.6520  -68.4860   32.7440 C.3    15  LEU15       0.0019
     15  CD1       13.6750  -67.2950   32.7940 C.3    15  LEU15       0.0001
     16  CD2       13.2760  -69.7670   33.3270 C.3    15  LEU15       0.0001
     17  N          7.0970  -66.2290   33.2610 N.3    17  ASP17      -0.1239
     18  CA         6.8620  -64.7710   33.2830 C.3    17  ASP17       0.1674
     19  C          5.9060  -64.3850   32.1480 C.2    17  ASP17       0.2266
     20  O          5.7580  -65.1120   31.1780 O.2    17  ASP17      -0.2867
     21  CB         8.1900  -64.0590   33.0880 C.3    17  ASP17       0.1410
     22  CG         9.0340  -64.0090   34.3700 C.2    17  ASP17       0.3668
     23  OD1        8.5900  -64.3440   35.4960 O.co2  17  ASP17      -0.2456
     24  OD2       10.1790  -63.6020   34.2260 O.co2  17  ASP17      -0.2456
     25  N          5.9320  -56.2130   30.8090 N.3    33  TYR33      -0.1241
     26  CA         6.4920  -57.4830   31.2940 C.3    33  TYR33       0.1605
     27  C          6.0130  -57.6020   32.7810 C.2    33  TYR33       0.2264
     28  O          5.9830  -56.6280   33.5060 O.2    33  TYR33      -0.2867
     29  CB         8.0310  -57.5290   31.0110 C.3    33  TYR33       0.0534
     30  CG         8.5910  -58.8930   30.4830 C.ar   33  TYR33      -0.0201
     31  CD1        9.0810  -59.8850   31.3620 C.ar   33  TYR33      -0.0009
     32  CD2        8.6080  -59.1940   29.1140 C.ar   33  TYR33      -0.0009
     33  CE1        9.5600  -61.1180   30.8910 C.ar   33  TYR33       0.0417
     34  CE2        9.1410  -60.4150   28.6510 C.ar   33  TYR33       0.0417
     35  CZ         9.5540  -61.3970   29.5430 C.ar   33  TYR33       0.1957
     36  OH        10.0630  -62.6340   29.0300 O.3    33  TYR33      -0.2866
     37  N         14.8540  -52.2210   33.4090 N.3    69  TRP69      -0.1241
     38  CA        14.3700  -52.7820   34.6780 C.3    69  TRP69       0.1605
     39  C         14.2820  -51.7350   35.7950 C.2    69  TRP69       0.2264
     40  O         14.7010  -51.9860   36.9280 O.2    69  TRP69      -0.2867
     41  CB        15.2520  -53.9470   35.0580 C.3    69  TRP69       0.0550
     42  CG        15.1540  -55.0660   34.0320 C.ar   69  TRP69       0.0003
     43  CD1       16.0940  -55.4250   33.1080 C.ar   69  TRP69       0.0946
     44  CD2       14.0210  -55.9090   33.7860 C.ar   69  TRP69       0.0152
     45  NE1       15.6380  -56.4730   32.3320 N.ar   69  TRP69      -0.2442
     46  CE2       14.3720  -56.8090   32.7310 C.ar   69  TRP69       0.0810
     47  CE3       12.8150  -56.0630   34.3950 C.ar   69  TRP69       0.0012
     48  CZ2       13.5010  -57.7640   32.2540 C.ar   69  TRP69       0.0191
     49  CZ3       11.9360  -57.0310   33.9300 C.ar   69  TRP69       0.0001
     50  CH2       12.3040  -57.9220   32.8910 C.ar   69  TRP69       0.0015
     51  N         16.8890  -52.0820   38.8170 N.3    76  ALA76      -0.1245
     52  CA        17.9470  -53.0590   38.7310 C.3    76  ALA76       0.1562
     53  C         19.1100  -52.6180   37.7870 C.2    76  ALA76       0.2260
     54  O         19.9510  -53.4050   37.4370 O.2    76  ALA76      -0.2867
     55  CB        17.3100  -54.3840   38.2690 C.3    76  ALA76       0.0290
     56  N         19.6470  -51.9930   34.6090 N.3    78  SER78      -0.1217
     57  CA        19.8510  -52.9600   33.5170 C.3    78  SER78       0.1889
     58  C         18.7150  -52.9260   32.5590 C.2    78  SER78       0.2288
     59  O         17.6700  -52.3050   32.8030 O.2    78  SER78      -0.2866
     60  CB        19.9750  -54.4010   34.1050 C.3    78  SER78       0.2089
     61  OG        18.8710  -54.7440   34.9360 O.3    78  SER78      -0.2183
     62  N         16.9790  -55.4510   29.1860 N.3    80  THR80      -0.1218
     63  CA        16.9840  -56.6430   28.3210 C.3    80  THR80       0.1862
     64  C         16.3910  -56.3210   26.9690 C.2    80  THR80       0.2287
     65  O         15.3420  -55.6990   26.9290 O.2    80  THR80      -0.2866
     66  CB        16.1530  -57.7590   28.9350 C.3    80  THR80       0.1770
     67  OG1       16.7430  -58.0890   30.2450 O.3    80  THR80      -0.2211
     68  CG2       16.1850  -59.0300   28.0770 C.3    80  THR80       0.0375
     69  N         14.9430  -58.4290   23.6530 N.3    82  TRP82      -0.1241
     70  CA        14.5920  -59.7020   23.0000 C.3    82  TRP82       0.1605
     71  C         14.5590  -59.4650   21.5110 C.2    82  TRP82       0.2264
     72  O         13.8720  -58.5910   21.0560 O.2    82  TRP82      -0.2867
     73  CB        13.2450  -60.1850   23.5120 C.3    82  TRP82       0.0550
     74  CG        13.1660  -60.7440   24.9260 C.ar   82  TRP82       0.0003
     75  CD1       13.1440  -62.0500   25.3020 C.ar   82  TRP82       0.0946
     76  CD2       13.0760  -59.9680   26.1180 C.ar   82  TRP82       0.0152
     77  NE1       13.0520  -62.1280   26.6640 N.ar   82  TRP82      -0.2442
     78  CE2       12.9000  -60.8600   27.1640 C.ar   82  TRP82       0.0810
     79  CE3       12.9930  -58.5760   26.3650 C.ar   82  TRP82       0.0012
     80  CZ2       12.7690  -60.4340   28.4970 C.ar   82  TRP82       0.0191
     81  CZ3       12.7520  -58.1430   27.7080 C.ar   82  TRP82       0.0001
     82  CH2       12.6810  -59.0670   28.7180 C.ar   82  TRP82       0.0015
     83  N         17.9560  -63.2640   23.7400 N.3    98  TRP98      -0.1241
     84  CA        17.9930  -61.9400   24.4320 C.3    98  TRP98       0.1605
     85  C         19.3490  -61.6080   24.9480 C.2    98  TRP98       0.2264
     86  O         20.1880  -62.4790   25.1250 O.2    98  TRP98      -0.2867
     87  CB        16.9180  -61.8920   25.5690 C.3    98  TRP98       0.0550
     88  CG        17.0080  -63.0020   26.6020 C.ar   98  TRP98       0.0003
     89  CD1       16.1460  -64.0600   26.6890 C.ar   98  TRP98       0.0946
     90  CD2       17.9280  -63.1350   27.7010 C.ar   98  TRP98       0.0152
     91  NE1       16.4830  -64.8350   27.7970 N.ar   98  TRP98      -0.2442
     92  CE2       17.5800  -64.3000   28.4090 C.ar   98  TRP98       0.0810
     93  CE3       18.9860  -62.3780   28.1560 C.ar   98  TRP98       0.0012
     94  CZ2       18.3220  -64.7500   29.5100 C.ar   98  TRP98       0.0191
     95  CZ3       19.7320  -62.8200   29.2710 C.ar   98  TRP98       0.0001
     96  CH2       19.3680  -63.9880   29.9390 C.ar   98  TRP98       0.0015
     97  N         20.9410  -59.0260   28.0550 N.3   100  LEU100     -0.1245
     98  CA        20.6220  -58.2650   29.2660 C.3   100  LEU100      0.1561
     99  C         21.8710  -57.5670   29.7320 C.2   100  LEU100      0.2260
    100  O         22.8490  -58.2170   30.1520 O.2   100  LEU100     -0.2867
    101  CB        20.0450  -59.2430   30.3030 C.3   100  LEU100      0.0270
    102  CG        19.9310  -58.8600   31.7420 C.3   100  LEU100      0.0019
    103  CD1       19.4150  -57.4810   31.9010 C.3   100  LEU100      0.0001
    104  CD2       19.0950  -59.8450   32.5370 C.3   100  LEU100      0.0001
    105  N         23.7870  -54.9130   32.1700 N.3   102  SER102     -0.1217
    106  CA        23.7470  -54.1340   33.4250 C.3   102  SER102      0.1889
    107  C         24.6970  -52.9690   33.2530 C.2   102  SER102      0.2288
    108  O         25.7770  -53.0660   32.6570 O.2   102  SER102     -0.2866
    109  CB        24.2220  -55.0200   34.5740 C.3   102  SER102      0.2089
    110  OG        23.2890  -55.9790   34.8860 O.3   102  SER102     -0.2183
    111  N         31.7200  -58.3710   32.2940 N.3   111  LYS111     -0.1245
    112  CA        30.6870  -59.1100   33.0350 C.3   111  LYS111      0.1561
    113  C         29.3520  -58.3920   32.8720 C.2   111  LYS111      0.2260
    114  O         28.4210  -58.6960   33.5890 O.2   111  LYS111     -0.2867
    115  CB        31.0120  -59.0740   34.5630 C.3   111  LYS111      0.0271
    116  CG        32.1200  -59.9060   34.9830 C.3   111  LYS111      0.0035
    117  CD        32.3890  -59.6940   36.4360 C.3   111  LYS111      0.0206
    118  CE        33.2840  -58.5140   36.6690 C.3   111  LYS111      0.1093
    119  NZ        33.7180  -58.5230   38.0750 N.3   111  LYS111     -0.1314
    120  N         24.5470  -60.5320   29.8150 N.3   114  LEU114     -0.1245
    121  CA        24.0550  -61.9090   29.7980 C.3   114  LEU114      0.1561
    122  C         23.3860  -62.1480   28.4670 C.2   114  LEU114      0.2260
    123  O         22.7910  -61.2350   27.9000 O.2   114  LEU114     -0.2867
    124  CB        23.0770  -62.1840   30.9650 C.3   114  LEU114      0.0270
    125  CG        23.7090  -62.2310   32.3490 C.3   114  LEU114      0.0019
    126  CD1       22.6150  -62.0610   33.3850 C.3   114  LEU114      0.0001
    127  CD2       24.4830  -63.5210   32.5380 C.3   114  LEU114      0.0001
    128  N         14.3460  -67.2460   25.1240 N.3   118  ASP118     -0.1239
    129  CA        12.9910  -67.3760   25.7080 C.3   118  ASP118      0.1674
    130  C         12.0210  -67.7280   24.5720 C.2   118  ASP118      0.2266
    131  O         12.1390  -67.1640   23.4510 O.2   118  ASP118     -0.2867
    132  CB        12.4500  -66.0660   26.3600 C.3   118  ASP118      0.1410
    133  CG        13.0170  -65.7490   27.7550 C.2   118  ASP118      0.3668
    134  OD1       13.5390  -66.6920   28.3700 O.co2 118  ASP118     -0.2456
    135  OD2       13.0020  -64.5550   28.1960 O.co2 118  ASP118     -0.2456
@<TRIPOS>BOND
     1    72    71    2
     2    71    70    1
     3    70    73    1
     4    70    69    1
     5   131   130    2
     6    73    74    1
     7    83    84    1
     8    84    85    1
     9    84    87    1
    10   130   129    1
    11    74    75   ar
    12    74    76   ar
    13    85    86    2
    14   128   129    1
    15    75    77   ar
    16    87    88    1
    17   129   132    1
    18    76    79   ar
    19    76    78   ar
    20   132   133    1
    21    79    81   ar
    22    88    89   ar
    23    88    90   ar
    24    77    78   ar
    25    89    91   ar
    26    65    64    2
    27    64    63    1
    28    78    80   ar
    29    90    93   ar
    30    90    92   ar
    31    81    82   ar
    32   133   135   ar
    33   133   134   ar
    34    91    92   ar
    35   123   122    2
    36    97    98    1
    37    68    66    1
    38    93    95   ar
    39    63    66    1
    40    63    62    1
    41    92    94   ar
    42   122   121    1
    43    80    82   ar
    44    34    32   ar
    45    34    35   ar
    46     2     5    1
    47     2     1    1
    48     2     3    1
    49     5     6    1
    50    66    67    1
    51    36    35    1
    52    32    30   ar
    53    98    99    1
    54    98   101    1
    55    95    96   ar
    56     3     4    2
    57    94    96   ar
    58    35    33   ar
    59    99   100    2
    60   121   120    1
    61   121   124    1
    62     6     8   ar
    63     6     7   ar
    64   101   102    1
    65    30    29    1
    66    30    31   ar
    67    25    26    1
    68    33    31   ar
    69   124   125    1
    70    29    26    1
    71    20    19    2
    72    26    27    1
    73     9    10    1
    74   102   103    1
    75   102   104    1
    76    19    18    1
    77   105   106    1
    78    48    46   ar
    79    48    50   ar
    80   111   112    1
    81    45    46   ar
    82    45    43   ar
    83   125   127    1
    84   125   126    1
    85    58    59    2
    86    58    57    1
    87   108   107    2
    88    46    44   ar
    89    14    15    1
    90    14    16    1
    91    14    13    1
    92    27    28    2
    93   113   112    1
    94   113   114    2
    95    50    49   ar
    96   112   115    1
    97    21    18    1
    98    21    22    1
    99    43    42   ar
   100    10    13    1
   101    10    11    1
   102   107   106    1
   103    17    18    1
   104    37    38    1
   105   106   109    1
   106    57    60    1
   107    57    56    1
   108    44    42   ar
   109    44    47   ar
   110    11    12    2
   111    49    47   ar
   112    42    41    1
   113    60    61    1
   114    24    22   ar
   115    22    23   ar
   116   115   116    1
   117   109   110    1
   118    38    41    1
   119    38    39    1
   120   116   117    1
   121    39    40    2
   122   117   118    1
   123   118   119    1
   124    54    53    2
   125    53    52    1
   126    55    52    1
   127    52    51    1
