@<TRIPOS>MOLECULE
tmp/3x02A01.pdb
 130 125 0 0 0
SMALL
GASTEIGER

@<TRIPOS>ATOM
      1  N         58.4900   41.1120  -15.7100 N.3    40  PHE40      -0.1227
      2  CA        58.2740   42.5560  -15.8510 C.3    40  PHE40       0.1736
      3  C         57.6390   42.9760  -17.1810 C.2    40  PHE40       0.2595
      4  O         57.1840   44.1170  -17.3360 O.2    40  PHE40      -0.2718
      5  CB        59.5720   43.3260  -15.5620 C.3    40  PHE40       0.0547
      6  CG        59.9770   43.2650  -14.1140 C.ar   40  PHE40      -0.0202
      7  CD1       60.7860   42.2480  -13.6480 C.ar   40  PHE40      -0.0042
      8  CD2       59.4910   44.1880  -13.2090 C.ar   40  PHE40      -0.0042
      9  CE1       61.1330   42.1780  -12.3020 C.ar   40  PHE40      -0.0003
     10  CE2       59.8360   44.1220  -11.8640 C.ar   40  PHE40      -0.0003
     11  CZ        60.6570   43.1200  -11.4120 C.ar   40  PHE40      -0.0000
     12  N         57.5870   42.0470  -18.1300 N.am   41  LYS41      -0.1980
     13  CA        56.9070   42.2820  -19.4050 C.3    41  LYS41       0.1596
     14  C         55.6730   41.3910  -19.5090 C.2    41  LYS41       0.2287
     15  O         54.9540   41.4320  -20.5040 O.2    41  LYS41      -0.2864
     16  CB        57.8400   41.9990  -20.5790 C.3    41  LYS41       0.0298
     17  CG        59.2380   42.5600  -20.4170 C.3    41  LYS41       0.0038
     18  CD        60.1340   42.2470  -21.6260 C.3    41  LYS41       0.0206
     19  CE        59.7910   43.1140  -22.8470 C.3    41  LYS41       0.1093
     20  NZ        60.6530   42.8020  -24.0440 N.3    41  LYS41      -0.1314
     21  N         51.9950   39.4080  -18.6470 N.3    43  TYR43      -0.1241
     22  CA        50.6130   39.7680  -18.3330 C.3    43  TYR43       0.1605
     23  C         49.7070   38.5460  -18.4440 C.2    43  TYR43       0.2264
     24  O         50.0500   37.5940  -19.1350 O.2    43  TYR43      -0.2867
     25  CB        50.1030   40.9370  -19.2130 C.3    43  TYR43       0.0534
     26  CG        49.9160   40.6490  -20.7020 C.ar   43  TYR43      -0.0201
     27  CD1       48.8250   39.9130  -21.1500 C.ar   43  TYR43      -0.0009
     28  CD2       50.8170   41.1420  -21.6590 C.ar   43  TYR43      -0.0009
     29  CE1       48.6270   39.6480  -22.4960 C.ar   43  TYR43       0.0417
     30  CE2       50.6370   40.8820  -23.0380 C.ar   43  TYR43       0.0417
     31  CZ        49.5310   40.1350  -23.4400 C.ar   43  TYR43       0.1957
     32  OH        49.2990   39.8540  -24.7620 O.3    43  TYR43      -0.2866
     33  N         42.6030   42.0070  -17.8230 N.3    65  LYS65      -0.1245
     34  CA        44.0240   41.8990  -18.0530 C.3    65  LYS65       0.1561
     35  C         44.7500   42.2710  -16.7630 C.2    65  LYS65       0.2260
     36  O         44.4920   43.3330  -16.1920 O.2    65  LYS65      -0.2867
     37  CB        44.4200   42.8840  -19.1520 C.3    65  LYS65       0.0271
     38  CG        45.9110   42.9120  -19.4640 C.3    65  LYS65       0.0035
     39  CD        46.1990   43.6160  -20.8080 C.3    65  LYS65       0.0206
     40  CE        47.6780   43.4600  -21.1860 C.3    65  LYS65       0.1093
     41  NZ        48.1160   44.3830  -22.2570 N.3    65  LYS65      -0.1314
     42  N         48.5060   43.1640  -15.3450 N.3    67  TYR67      -0.1241
     43  CA        49.8910   43.4420  -15.7440 C.3    67  TYR67       0.1605
     44  C         50.8730   42.8840  -14.7280 C.2    67  TYR67       0.2264
     45  O         50.6880   43.0710  -13.5340 O.2    67  TYR67      -0.2867
     46  CB        50.1370   44.9450  -15.9330 C.3    67  TYR67       0.0534
     47  CG        49.2620   45.6060  -16.9900 C.ar   67  TYR67      -0.0201
     48  CD1       48.0750   46.2430  -16.6360 C.ar   67  TYR67      -0.0009
     49  CD2       49.6130   45.5780  -18.3420 C.ar   67  TYR67      -0.0009
     50  CE1       47.2710   46.8440  -17.5850 C.ar   67  TYR67       0.0417
     51  CE2       48.8190   46.1850  -19.2970 C.ar   67  TYR67       0.0417
     52  CZ        47.6450   46.8180  -18.9140 C.ar   67  TYR67       0.1957
     53  OH        46.8360   47.4370  -19.8510 O.3    67  TYR67      -0.2866
     54  N         46.2920   55.3330  -19.9980 N.3   114  SER114     -0.1202
     55  CA        47.1840   54.3850  -20.6490 C.3   114  SER114      0.2020
     56  C         48.6470   54.7840  -20.4480 C.2   114  SER114      0.2618
     57  O         49.5330   53.9370  -20.2780 O.2   114  SER114     -0.2717
     58  CB        46.8330   54.3240  -22.1420 C.3   114  SER114      0.2103
     59  OG        47.9340   53.9130  -22.9210 O.3   114  SER114     -0.2182
     60  N         48.8900   56.0860  -20.4660 N.am  115  GLU115     -0.1979
     61  CA        50.2240   56.6240  -20.2400 C.3   115  GLU115      0.1602
     62  C         50.7060   56.2760  -18.8290 C.2   115  GLU115      0.2287
     63  O         51.8820   55.9610  -18.6300 O.2   115  GLU115     -0.2864
     64  CB        50.2270   58.1410  -20.4530 C.3   115  GLU115      0.0415
     65  CG        49.9150   58.5950  -21.8810 C.3   115  GLU115      0.1163
     66  CD        48.4510   58.4090  -22.2970 C.2   115  GLU115      0.3649
     67  OE1       47.6060   58.0700  -21.4360 O.co2 115  GLU115     -0.2457
     68  OE2       48.1490   58.6010  -23.5000 O.co2 115  GLU115     -0.2457
     69  N         49.9170   53.5940  -17.1080 N.3   117  VAL117     -0.1231
     70  CA        50.2890   52.1740  -17.2060 C.3   117  VAL117      0.1692
     71  C         51.6820   52.0220  -17.8300 C.2   117  VAL117      0.2591
     72  O         52.5430   51.2800  -17.3170 O.2   117  VAL117     -0.2718
     73  CB        49.2600   51.3900  -18.0430 C.3   117  VAL117      0.0266
     74  CG1       49.6910   49.9430  -18.2180 C.3   117  VAL117      0.0020
     75  CG2       47.8740   51.4600  -17.3910 C.3   117  VAL117      0.0020
     76  N         51.8950   52.7500  -18.9240 N.am  118  ALA118     -0.1980
     77  CA        53.2060   52.8380  -19.5730 C.3   118  ALA118      0.1597
     78  C         54.3050   53.1980  -18.5810 C.2   118  ALA118      0.2287
     79  O         55.3390   52.5250  -18.4920 O.2   118  ALA118     -0.2864
     80  CB        53.1710   53.8680  -20.6880 C.3   118  ALA118      0.0319
     81  N         55.2130   50.5680  -16.1400 N.3   121  HIS121     -0.1226
     82  CA        56.1240   49.5990  -16.7430 C.3   121  HIS121      0.1752
     83  C         57.5620   50.0960  -16.7840 C.2   121  HIS121      0.2596
     84  O         58.5000   49.3550  -16.4590 O.2   121  HIS121     -0.2718
     85  CB        55.6680   49.2100  -18.1570 C.3   121  HIS121      0.0759
     86  CG        54.6490   48.1140  -18.1720 C.ar  121  HIS121      0.0818
     87  ND1       53.2930   48.3590  -18.2260 N.ar  121  HIS121     -0.2268
     88  CD2       54.7880   46.7700  -18.0990 C.ar  121  HIS121      0.1154
     89  CE1       52.6410   47.2110  -18.2100 C.ar  121  HIS121      0.1986
     90  NE2       53.5230   46.2320  -18.1260 N.ar  121  HIS121     -0.2212
     91  N         57.7330   51.3470  -17.2040 N.am  122  ASN122     -0.1974
     92  CA        59.0700   51.9260  -17.2880 C.3   122  ASN122      0.1688
     93  C         59.7710   51.8470  -15.9450 C.2   122  ASN122      0.2292
     94  O         60.9280   51.4260  -15.8680 O.2   122  ASN122     -0.2864
     95  CB        59.0300   53.3850  -17.7680 C.3   122  ASN122      0.1181
     96  CG        58.7220   53.5110  -19.2490 C.2   122  ASN122      0.2629
     97  OD1       59.0360   52.6180  -20.0430 O.2   122  ASN122     -0.2716
     98  ND2       58.1000   54.6260  -19.6310 N.am  122  ASN122     -0.0877
     99  N         43.6370   46.0990  -16.4640 N.3   148  ARG148     -0.1245
    100  CA        42.8410   46.6780  -17.5390 C.3   148  ARG148      0.1563
    101  C         41.5420   45.8910  -17.6860 C.2   148  ARG148      0.2260
    102  O         41.5640   44.6820  -17.8710 O.2   148  ARG148     -0.2867
    103  CB        43.6160   46.6600  -18.8500 C.3   148  ARG148      0.0307
    104  CG        42.9260   47.4100  -19.9850 C.3   148  ARG148      0.0489
    105  CD        43.6270   47.1550  -21.3110 C.3   148  ARG148      0.2205
    106  NE        43.2720   45.8420  -21.8440 N.pl3 148  ARG148     -0.0865
    107  CZ        43.8020   45.3160  -22.9410 C.cat 148  ARG148      0.5346
    108  NH1       44.7330   45.9840  -23.6380 N.pl3 148  ARG148      0.1354
    109  NH2       43.4070   44.1210  -23.3400 N.pl3 148  ARG148      0.1354
    110  N         37.8560   50.3820  -22.6320 N.3   155  GLU155     -0.1245
    111  CA        38.9540   49.9590  -21.7760 C.3   155  GLU155      0.1567
    112  C         39.1850   50.9060  -20.5940 C.2   155  GLU155      0.2260
    113  O         39.2330   52.1260  -20.7640 O.2   155  GLU155     -0.2867
    114  CB        40.2300   49.7850  -22.6070 C.3   155  GLU155      0.0388
    115  CG        40.1990   48.5480  -23.4910 C.3   155  GLU155      0.1160
    116  CD        41.4460   48.3840  -24.3490 C.2   155  GLU155      0.3649
    117  OE1       41.6830   47.2440  -24.8110 O.co2 155  GLU155     -0.2457
    118  OE2       42.1740   49.3820  -24.5830 O.co2 155  GLU155     -0.2457
    119  N         41.7520   51.4280  -17.1740 N.3   157  TYR157     -0.1241
    120  CA        42.9950   51.0560  -16.5090 C.3   157  TYR157      0.1605
    121  C         42.8750   51.3870  -15.0290 C.2   157  TYR157      0.2264
    122  O         42.3260   52.4300  -14.6580 O.2   157  TYR157     -0.2867
    123  CB        44.1760   51.8130  -17.1330 C.3   157  TYR157      0.0534
    124  CG        44.3990   51.5160  -18.6190 C.ar  157  TYR157     -0.0201
    125  CD1       43.9260   52.3780  -19.6150 C.ar  157  TYR157     -0.0009
    126  CD2       45.0770   50.3710  -19.0200 C.ar  157  TYR157     -0.0009
    127  CE1       44.1300   52.1000  -20.9750 C.ar  157  TYR157      0.0417
    128  CE2       45.2980   50.0900  -20.3580 C.ar  157  TYR157      0.0417
    129  CZ        44.8110   50.9450  -21.3360 C.ar  157  TYR157      0.1957
    130  OH        45.0270   50.6320  -22.6610 O.3   157  TYR157     -0.2866
@<TRIPOS>BOND
     1   117   116   ar
     2    32    31    1
     3   118   116   ar
     4   116   115    1
     5    20    19    1
     6   108   107    1
     7    68    66   ar
     8   115   114    1
     9    31    30   ar
    10    31    29   ar
    11   109   107    1
    12    30    28   ar
    13   107   106    2
    14    59    58    1
    15    19    18    1
    16   130   129    1
    17   110   111    1
    18   114   111    1
    19    29    27   ar
    20    66    65    1
    21    66    67   ar
    22    41    40    1
    23    58    55    1
    24    65    64    1
    25   106   105    1
    26   111   112    1
    27    28    26   ar
    28    18    17    1
    29   129   127   ar
    30   129   128   ar
    31   105   104    1
    32    40    39    1
    33    27    26   ar
    34   127   125   ar
    35    39    38    1
    36   113   112    2
    37    26    25    1
    38    80    77    1
    39    55    56    1
    40    55    54    1
    41    16    17    1
    42    16    13    1
    43    15    14    2
    44    60    56   am
    45    60    61    1
    46    64    61    1
    47    56    57    2
    48   128   126   ar
    49    61    62    1
    50    97    96    2
    51   104   103    1
    52    53    52    1
    53    98    96   am
    54   125   124   ar
    55    77    76    1
    56    77    78    1
    57    14    13    1
    58    38    37    1
    59    13    12    1
    60    51    52   ar
    61    51    49   ar
    62    96    95    1
    63    25    22    1
    64    37    34    1
    65    24    23    2
    66   126   124   ar
    67    76    71   am
    68    52    50   ar
    69   103   100    1
    70    62    63    2
    71    21    22    1
    72   124   123    1
    73    78    79    2
    74    23    22    1
    75    49    47   ar
    76    87    89   ar
    77    87    86   ar
    78    74    73    1
    79    89    90   ar
    80    86    85    1
    81    86    88   ar
    82    85    82    1
    83    12     3   am
    84    90    88   ar
    85    34    33    1
    86    34    35    1
    87    73    75    1
    88    73    70    1
    89   102   101    2
    90    71    72    2
    91    71    70    1
    92    95    92    1
    93   101   100    1
    94    50    48   ar
    95   100    99    1
    96     4     3    2
    97    92    91    1
    98    92    93    1
    99    70    69    1
   100    91    83   am
   101     3     2    1
   102   119   120    1
   103   123   120    1
   104    47    48   ar
   105    47    46    1
   106    83    82    1
   107    83    84    2
   108    35    36    2
   109    82    81    1
   110   120   121    1
   111    93    94    2
   112    46    43    1
   113     2     1    1
   114     2     5    1
   115    43    42    1
   116    43    44    1
   117     5     6    1
   118   121   122    2
   119    44    45    2
   120     6     7   ar
   121     6     8   ar
   122     7     9   ar
   123     8    10   ar
   124     9    11   ar
   125    10    11   ar
