@<TRIPOS>MOLECULE
tmp/3x02A00.pdb
 126 118 0 0 0
SMALL
GASTEIGER

@<TRIPOS>ATOM
      1  N         37.7030   57.2870   -8.4750 N.3    99  PHE99      -0.1241
      2  CA        38.4530   57.0410   -7.2620 C.3    99  PHE99       0.1605
      3  C         37.6640   56.1190   -6.3590 C.2    99  PHE99       0.2264
      4  O         36.6540   56.5070   -5.7900 O.2    99  PHE99      -0.2867
      5  CB        38.7420   58.3510   -6.5320 C.3    99  PHE99       0.0534
      6  CG        39.5890   58.1820   -5.3110 C.ar   99  PHE99      -0.0203
      7  CD1       39.0250   57.7790   -4.1060 C.ar   99  PHE99      -0.0042
      8  CD2       40.9500   58.4280   -5.3640 C.ar   99  PHE99      -0.0042
      9  CE1       39.7970   57.6140   -2.9830 C.ar   99  PHE99      -0.0003
     10  CE2       41.7330   58.2720   -4.2410 C.ar   99  PHE99      -0.0003
     11  CZ        41.1540   57.8620   -3.0460 C.ar   99  PHE99      -0.0000
     12  N         37.5400   53.1430   -3.1090 N.3   101  THR101     -0.1218
     13  CA        38.1180   52.5740   -1.9140 C.3   101  THR101      0.1862
     14  C         37.4790   51.1770   -1.7970 C.2   101  THR101      0.2287
     15  O         36.3610   50.9700   -2.2730 O.2   101  THR101     -0.2866
     16  CB        37.7530   53.4910   -0.7580 C.3   101  THR101      0.1770
     17  OG1       38.9280   54.0930   -0.2210 O.3   101  THR101     -0.2211
     18  CG2       37.0400   52.7790    0.2940 C.3   101  THR101      0.0375
     19  N         42.9730   51.4210   -2.0090 N.3   108  VAL108     -0.1245
     20  CA        42.5380   52.4380   -2.9610 C.3   108  VAL108      0.1561
     21  C         42.6960   51.9580   -4.4040 C.2   108  VAL108      0.2260
     22  O         43.6980   51.3580   -4.7600 O.2   108  VAL108     -0.2867
     23  CB        43.2670   53.7780   -2.7120 C.3   108  VAL108      0.0252
     24  CG1       43.1730   54.7000   -3.9250 C.3   108  VAL108      0.0019
     25  CG2       42.6700   54.4460   -1.4810 C.3   108  VAL108      0.0019
     26  N         42.5430   53.3640   -8.2260 N.3   110  LYS110     -0.1245
     27  CA        42.5540   54.5720   -9.0320 C.3   110  LYS110      0.1561
     28  C         42.3980   54.1880  -10.4880 C.2   110  LYS110      0.2260
     29  O         43.0750   53.2810  -10.9770 O.2   110  LYS110     -0.2867
     30  CB        43.8820   55.3170   -8.8710 C.3   110  LYS110      0.0271
     31  CG        44.0070   56.2280   -7.6650 C.3   110  LYS110      0.0035
     32  CD        45.4950   56.5190   -7.3640 C.3   110  LYS110      0.0206
     33  CE        46.3270   56.6450   -8.6620 C.3   110  LYS110      0.1093
     34  NZ        47.6870   56.0080   -8.5930 N.3   110  LYS110     -0.1314
     35  N         46.4590   50.6300   -4.6780 N.3   161  THR161     -0.1203
     36  CA        47.4590   50.9800   -3.6620 C.3   161  THR161      0.1994
     37  C         46.9520   50.7740   -2.2480 C.2   161  THR161      0.2618
     38  O         45.7500   50.6700   -1.9970 O.2   161  THR161     -0.2717
     39  CB        47.9180   52.4490   -3.7600 C.3   161  THR161      0.1784
     40  OG1       46.7780   53.3120   -3.8930 O.3   161  THR161     -0.2211
     41  CG2       48.8340   52.6430   -4.9360 C.3   161  THR161      0.0376
     42  N         47.8750   50.6980   -1.3040 N.am  162  ARG162     -0.1965
     43  CA        47.4430   50.8080    0.0670 C.3   162  ARG162      0.1729
     44  C         46.9300   52.2400    0.2960 C.2   162  ARG162      0.2616
     45  O         47.5200   53.2110   -0.2170 O.2   162  ARG162     -0.2715
     46  CB        48.5570   50.4230    1.0150 C.3   162  ARG162      0.0348
     47  CG        48.2610   50.8170    2.4300 C.3   162  ARG162      0.0492
     48  CD        48.5850   49.7230    3.3740 C.3   162  ARG162      0.2205
     49  NE        49.9270   49.2060    3.2020 N.pl3 162  ARG162     -0.0865
     50  CZ        50.3590   48.1290    3.8410 C.cat 162  ARG162      0.5346
     51  NH1       49.5500   47.5060    4.6850 N.pl3 162  ARG162      0.1354
     52  NH2       51.5800   47.6830    3.6400 N.pl3 162  ARG162      0.1354
     53  N         45.7980   52.3500    0.9980 N.am  163  ASN163     -0.1958
     54  CA        45.2100   53.6340    1.4080 C.3   163  ASN163      0.1819
     55  C         46.2260   54.3900    2.2350 C.2   163  ASN163      0.2621
     56  O         46.8820   53.8060    3.0820 O.2   163  ASN163     -0.2715
     57  CB        43.9660   53.3900    2.2720 C.3   163  ASN163      0.1195
     58  CG        43.0500   54.6150    2.3850 C.2   163  ASN163      0.2630
     59  OD1       43.4560   55.7610    2.1960 O.2   163  ASN163     -0.2716
     60  ND2       41.7990   54.3600    2.7260 N.am  163  ASN163     -0.0877
     61  N         46.3820   55.6820    1.9790 N.am  164  VAL164     -0.1963
     62  CA        47.3270   56.4610    2.7570 C.3   164  VAL164      0.1727
     63  C         46.7040   56.6490    4.1440 C.2   164  VAL164      0.2616
     64  O         47.3760   56.6310    5.1820 O.2   164  VAL164     -0.2715
     65  CB        47.6300   57.8160    2.0830 C.3   164  VAL164      0.0290
     66  CG1       48.4030   58.7250    3.0340 C.3   164  VAL164      0.0023
     67  CG2       48.3990   57.6040    0.7520 C.3   164  VAL164      0.0023
     68  N         45.3890   56.7940    4.1350 N.am  165  PHE165     -0.1974
     69  CA        44.6320   57.0360    5.3380 C.3   165  PHE165      0.1639
     70  C         44.3160   55.7540    6.0910 C.2   165  PHE165      0.2290
     71  O         44.4260   54.6480    5.5510 O.2   165  PHE165     -0.2864
     72  CB        43.3460   57.7770    4.9800 C.3   165  PHE165      0.0560
     73  CG        43.5900   59.1640    4.4770 C.ar  165  PHE165     -0.0200
     74  CD1       42.6350   59.8230    3.7140 C.ar  165  PHE165     -0.0042
     75  CD2       44.7980   59.8110    4.7610 C.ar  165  PHE165     -0.0042
     76  CE1       42.8720   61.1030    3.2550 C.ar  165  PHE165     -0.0003
     77  CE2       45.0390   61.0870    4.2990 C.ar  165  PHE165     -0.0003
     78  CZ        44.0800   61.7400    3.5570 C.ar  165  PHE165     -0.0000
     79  N         42.6360   67.6050    5.3950 N.3   174  LYS174     -0.1245
     80  CA        43.6400   67.0720    4.4840 C.3   174  LYS174      0.1561
     81  C         44.3290   68.1190    3.5990 C.2   174  LYS174      0.2260
     82  O         43.7240   69.1140    3.1900 O.2   174  LYS174     -0.2867
     83  CB        43.0830   65.9070    3.6700 C.3   174  LYS174      0.0271
     84  CG        42.4090   66.2480    2.3510 C.3   174  LYS174      0.0035
     85  CD        42.0400   64.9530    1.6250 C.3   174  LYS174      0.0206
     86  CE        41.3360   65.2020    0.3080 C.3   174  LYS174      0.1093
     87  NZ        40.9790   63.9090   -0.3570 N.3   174  LYS174     -0.1314
     88  N         47.2630   68.5850    0.2440 N.3   176  ASP176     -0.1239
     89  CA        48.1180   68.1050   -0.8350 C.3   176  ASP176      0.1674
     90  C         49.2430   69.1170   -0.9400 C.2   176  ASP176      0.2266
     91  O         49.0040   70.2820   -1.2600 O.2   176  ASP176     -0.2867
     92  CB        47.3370   68.0660   -2.1450 C.3   176  ASP176      0.1410
     93  CG        48.1410   67.5030   -3.2960 C.2   176  ASP176      0.3668
     94  OD1       48.8580   68.2760   -3.9580 O.co2 176  ASP176     -0.2456
     95  OD2       48.0420   66.2860   -3.5560 O.co2 176  ASP176     -0.2456
     96  N         40.4800   69.5620   -0.2720 N.3   196  THR196     -0.1218
     97  CA        41.9020   69.3100   -0.4320 C.3   196  THR196      0.1862
     98  C         42.6380   70.6390   -0.3180 C.2   196  THR196      0.2287
     99  O         42.7670   71.3720   -1.2940 O.2   196  THR196     -0.2866
    100  CB        42.2280   68.6610   -1.7930 C.3   196  THR196      0.1770
    101  OG1       41.6090   67.3760   -1.8770 O.3   196  THR196     -0.2211
    102  CG2       43.7190   68.4740   -1.9500 C.3   196  THR196      0.0375
    103  N         50.5730   63.7550    0.5160 N.3   241  LEU241     -0.1245
    104  CA        49.2370   63.7370    1.0750 C.3   241  LEU241      0.1561
    105  C         49.3690   63.6630    2.5890 C.2   241  LEU241      0.2260
    106  O         50.1180   62.8180    3.1400 O.2   241  LEU241     -0.2867
    107  CB        48.4190   62.5730    0.5300 C.3   241  LEU241      0.0270
    108  CG        46.9210   62.5720    0.8800 C.3   241  LEU241      0.0019
    109  CD1       46.2210   63.7850    0.3130 C.3   241  LEU241      0.0001
    110  CD2       46.2460   61.3110    0.3710 C.3   241  LEU241      0.0001
    111  N         52.1660   60.8720   -2.9720 N.3   293  ILE293     -0.1231
    112  CA        51.2290   60.4050   -4.0030 C.3   293  ILE293      0.1692
    113  C         51.5120   61.0340   -5.3670 C.2   293  ILE293      0.2592
    114  O         52.2820   61.9860   -5.4600 O.2   293  ILE293     -0.2718
    115  CB        49.7470   60.6580   -3.6370 C.3   293  ILE293      0.0266
    116  CG1       49.4750   62.1560   -3.5180 C.3   293  ILE293      0.0019
    117  CG2       49.3730   59.9210   -2.3490 C.3   293  ILE293      0.0020
    118  CD1       47.9910   62.5060   -3.4820 C.3   293  ILE293      0.0001
    119  N         50.8650   60.4930   -6.4020 N.am  294  ASP294     -0.1974
    120  CA        50.9840   60.9410   -7.7940 C.3   294  ASP294      0.1709
    121  C         52.4140   60.8980   -8.3140 C.2   294  ASP294      0.2293
    122  O         52.9640   61.9260   -8.6610 O.2   294  ASP294     -0.2864
    123  CB        50.4340   62.3610   -7.9940 C.3   294  ASP294      0.1436
    124  CG        48.9960   62.5100   -7.5390 C.2   294  ASP294      0.3671
    125  OD1       48.2900   61.4800   -7.4270 O.co2 294  ASP294     -0.2456
    126  OD2       48.5770   63.6670   -7.2970 O.co2 294  ASP294     -0.2456
@<TRIPOS>BOND
     1    29    28    2
     2    28    27    1
     3    27    30    1
     4    27    26    1
     5    30    31    1
     6    33    34    1
     7    33    32    1
     8   122   121    2
     9     1     2    1
    10   121   120    1
    11   123   120    1
    12   123   124    1
    13   120   119    1
    14    31    32    1
    15   124   125   ar
    16   124   126   ar
    17     2     5    1
    18     2     3    1
    19     5     6    1
    20   119   113   am
    21     3     4    2
    22   114   113    2
    23   113   112    1
    24     8     6   ar
    25     8    10   ar
    26     6     7   ar
    27    41    39    1
    28    22    21    2
    29    35    36    1
    30    21    20    1
    31    10    11   ar
    32     7     9   ar
    33   112   115    1
    34   112   111    1
    35    94    93   ar
    36    24    23    1
    37    40    39    1
    38    39    36    1
    39    36    37    1
    40   115   116    1
    41   115   117    1
    42    95    93   ar
    43   116   118    1
    44    93    92    1
    45    12    13    1
    46    11     9   ar
    47    20    23    1
    48    20    19    1
    49    23    25    1
    50    15    14    2
    51    37    38    2
    52    37    42   am
    53    92    89    1
    54   102   100    1
    55    13    14    1
    56    13    16    1
    57   101   100    1
    58   100    97    1
    59    42    43    1
    60    99    98    2
    61    91    90    2
    62    90    89    1
    63    89    88    1
    64    16    17    1
    65    16    18    1
    66    97    98    1
    67    97    96    1
    68    87    86    1
    69    45    44    2
    70    43    44    1
    71    43    46    1
    72    44    53   am
    73    86    85    1
    74   109   108    1
    75   110   108    1
    76   103   104    1
    77   107   108    1
    78   107   104    1
    79    67    65    1
    80    53    54    1
    81    46    47    1
    82   104   105    1
    83    54    55    1
    84    54    57    1
    85    85    84    1
    86    61    55   am
    87    61    62    1
    88    65    62    1
    89    65    66    1
    90    59    58    2
    91    55    56    2
    92    57    58    1
    93    84    83    1
    94    58    60   am
    95    47    48    1
    96   105   106    2
    97    62    63    1
    98    82    81    2
    99    49    48    1
   100    49    50    2
   101    76    78   ar
   102    76    74   ar
   103    78    77   ar
   104    81    80    1
   105    52    50    1
   106    83    80    1
   107    74    73   ar
   108    50    51    1
   109    68    63   am
   110    68    69    1
   111    63    64    2
   112    77    75   ar
   113    73    75   ar
   114    73    72    1
   115    80    79    1
   116    72    69    1
   117    69    70    1
   118    71    70    2
