@<TRIPOS>MOLECULE
tmp/3x03B00.pdb
 139 130 0 0 0
SMALL
GASTEIGER

@<TRIPOS>ATOM
      1  N         39.2480    7.6000  -25.1450 N.3    98  PHE98      -0.1241
      2  CA        38.4860    7.1820  -23.9590 C.3    98  PHE98       0.1605
      3  C         39.2860    7.2780  -22.6480 C.2    98  PHE98       0.2264
      4  O         40.2190    6.5130  -22.4060 O.2    98  PHE98      -0.2867
      5  CB        38.0240    5.7350  -24.1880 C.3    98  PHE98       0.0534
      6  CG        37.5060    5.0380  -22.9550 C.ar   98  PHE98      -0.0203
      7  CD1       38.3330    4.1690  -22.2220 C.ar   98  PHE98      -0.0042
      8  CD2       36.1840    5.2090  -22.5550 C.ar   98  PHE98      -0.0042
      9  CE1       37.8510    3.4940  -21.0930 C.ar   98  PHE98      -0.0003
     10  CE2       35.6970    4.5430  -21.4310 C.ar   98  PHE98      -0.0003
     11  CZ        36.5320    3.6760  -20.6960 C.ar   98  PHE98      -0.0000
     12  N         34.2270    8.6940  -16.6060 N.3   107  VAL107     -0.1245
     13  CA        34.7360    8.4390  -17.9260 C.3   107  VAL107      0.1561
     14  C         34.6420    9.6920  -18.7410 C.2   107  VAL107      0.2260
     15  O         33.6170   10.3690  -18.7340 O.2   107  VAL107     -0.2867
     16  CB        33.9330    7.3290  -18.6260 C.3   107  VAL107      0.0252
     17  CG1       34.3950    7.2110  -20.0630 C.3   107  VAL107      0.0019
     18  CG2       34.0980    5.9530  -17.8810 C.3   107  VAL107      0.0019
     19  N         34.7760   10.9730  -22.6320 N.3   109  LYS109     -0.1245
     20  CA        34.6990   10.4650  -24.0060 C.3   109  LYS109      0.1561
     21  C         34.8200   11.6320  -24.9510 C.2   109  LYS109      0.2260
     22  O         34.1100   12.6500  -24.8120 O.2   109  LYS109     -0.2867
     23  CB        33.3800    9.7410  -24.2830 C.3   109  LYS109      0.0271
     24  CG        33.5430    8.2820  -24.6010 C.3   109  LYS109      0.0035
     25  CD        33.7590    7.9960  -26.0720 C.3   109  LYS109      0.0206
     26  CE        32.4280    7.7030  -26.7380 C.3   109  LYS109      0.1093
     27  NZ        32.5240    7.1450  -28.1460 N.3   109  LYS109     -0.1314
     28  N         30.7670   11.1310  -18.3020 N.3   160  THR160     -0.1203
     29  CA        29.7350   10.2540  -17.7340 C.3   160  THR160      0.1994
     30  C         30.2380    9.4640  -16.5950 C.2   160  THR160      0.2618
     31  O         31.4590    9.3110  -16.4500 O.2   160  THR160     -0.2717
     32  CB        29.3450    9.1620  -18.6750 C.3   160  THR160      0.1784
     33  OG1       30.5530    8.5710  -19.2020 O.3   160  THR160     -0.2211
     34  CG2       28.5030    9.7230  -19.7410 C.3   160  THR160      0.0376
     35  N         29.2950    8.9070  -15.8310 N.am  161  ARG161     -0.1965
     36  CA        29.6610    8.0000  -14.7600 C.3   161  ARG161      0.1729
     37  C         30.1540    6.6910  -15.3300 C.2   161  ARG161      0.2616
     38  O         29.5680    6.1430  -16.2570 O.2   161  ARG161     -0.2715
     39  CB        28.5040    7.7430  -13.8170 C.3   161  ARG161      0.0348
     40  CG        28.9470    7.2860  -12.4280 C.3   161  ARG161      0.0492
     41  CD        27.7950    6.6410  -11.7460 C.3   161  ARG161      0.2205
     42  NE        26.8950    7.5630  -11.0520 N.pl3 161  ARG161     -0.0865
     43  CZ        27.0450    7.9380   -9.7850 C.cat 161  ARG161      0.5346
     44  NH1       28.1020    7.5270   -9.0870 N.pl3 161  ARG161      0.1354
     45  NH2       26.1540    8.7410   -9.2190 N.pl3 161  ARG161      0.1354
     46  N         31.2530    6.1990  -14.7790 N.am  162  ASN162     -0.1958
     47  CA        31.7870    4.9090  -15.1680 C.3   162  ASN162      0.1819
     48  C         30.7320    3.8430  -14.8250 C.2   162  ASN162      0.2621
     49  O         30.0200    3.9530  -13.7910 O.2   162  ASN162     -0.2715
     50  CB        33.0650    4.6820  -14.3790 C.3   162  ASN162      0.1195
     51  CG        33.8060    3.4330  -14.7680 C.2   162  ASN162      0.2630
     52  OD1       33.2600    2.4680  -15.3570 O.2   162  ASN162     -0.2716
     53  ND2       35.0850    3.4210  -14.4060 N.am  162  ASN162     -0.0877
     54  N         30.6040    2.8470  -15.7010 N.am  163  VAL163     -0.1963
     55  CA        29.6650    1.7690  -15.5130 C.3   163  VAL163      0.1727
     56  C         30.2600    0.7860  -14.5590 C.2   163  VAL163      0.2616
     57  O         29.5660    0.3040  -13.6700 O.2   163  VAL163     -0.2715
     58  CB        29.3880    0.9790  -16.7930 C.3   163  VAL163      0.0290
     59  CG1       28.6290   -0.3150  -16.4460 C.3   163  VAL163      0.0023
     60  CG2       28.6140    1.8400  -17.7890 C.3   163  VAL163      0.0023
     61  N         31.5440    0.4910  -14.7540 N.am  164  PHE164     -0.1974
     62  CA        32.2730   -0.4080  -13.8610 C.3   164  PHE164      0.1639
     63  C         32.5650    0.2130  -12.4820 C.2   164  PHE164      0.2290
     64  O         32.4910    1.4470  -12.2990 O.2   164  PHE164     -0.2864
     65  CB        33.5730   -0.8530  -14.5260 C.3   164  PHE164      0.0560
     66  CG        33.3660   -1.4820  -15.8590 C.ar  164  PHE164     -0.0200
     67  CD1       34.3390   -1.3990  -16.8430 C.ar  164  PHE164     -0.0042
     68  CD2       32.1940   -2.1750  -16.1340 C.ar  164  PHE164     -0.0042
     69  CE1       34.1410   -1.9900  -18.0910 C.ar  164  PHE164     -0.0003
     70  CE2       31.9890   -2.7730  -17.3710 C.ar  164  PHE164     -0.0003
     71  CZ        32.9620   -2.6790  -18.3520 C.ar  164  PHE164     -0.0000
     72  N         34.4280   -8.0450  -20.1320 N.3   173  LYS173     -0.1245
     73  CA        33.4990   -7.1670  -20.8340 C.3   173  LYS173      0.1561
     74  C         32.5040   -7.9860  -21.6800 C.2   173  LYS173      0.2260
     75  O         32.8180   -9.0690  -22.1820 O.2   173  LYS173     -0.2867
     76  CB        34.2660   -6.2200  -21.7670 C.3   173  LYS173      0.0271
     77  CG        34.6300   -4.9020  -21.1750 C.3   173  LYS173      0.0035
     78  CD        35.5880   -4.0770  -22.0470 C.3   173  LYS173      0.0206
     79  CE        36.0060   -2.8350  -21.2320 C.3   173  LYS173      0.1093
     80  NZ        37.1780   -2.0280  -21.7060 N.3   173  LYS173     -0.1314
     81  N         29.8320   -6.3610  -24.6820 N.3   175  ASP175     -0.1239
     82  CA        28.9590   -5.3770  -25.3160 C.3   175  ASP175      0.1674
     83  C         27.7830   -6.1050  -25.9970 C.2   175  ASP175      0.2266
     84  O         27.9400   -6.8210  -26.9990 O.2   175  ASP175     -0.2867
     85  CB        29.7060   -4.4970  -26.3100 C.3   175  ASP175      0.1410
     86  CG        28.8080   -3.4590  -26.9210 C.2   175  ASP175      0.3668
     87  OD1       28.6530   -2.4020  -26.3060 O.co2 175  ASP175     -0.2456
     88  OD2       28.2300   -3.6940  -27.9950 O.co2 175  ASP175     -0.2456
     89  N         27.6010  -10.4600  -34.6620 N.3   181  ARG181     -0.1245
     90  CA        28.8900   -9.8130  -34.4040 C.3   181  ARG181      0.1563
     91  C         29.5870  -10.4780  -33.1960 C.2   181  ARG181      0.2260
     92  O         28.9730  -10.7740  -32.1530 O.2   181  ARG181     -0.2867
     93  CB        28.7290   -8.3090  -34.1460 C.3   181  ARG181      0.0307
     94  CG        28.5150   -7.4500  -35.3860 C.3   181  ARG181      0.0489
     95  CD        27.8900   -6.0870  -35.0030 C.3   181  ARG181      0.2205
     96  NE        28.5520   -5.4030  -33.8880 N.pl3 181  ARG181     -0.0865
     97  CZ        28.3650   -4.1200  -33.5820 C.cat 181  ARG181      0.5346
     98  NH1       27.5490   -3.3670  -34.3050 N.pl3 181  ARG181      0.1354
     99  NH2       28.9970   -3.5790  -32.5530 N.pl3 181  ARG181      0.1354
    100  N         36.4930   -7.4160  -25.4150 N.3   194  THR194     -0.1218
    101  CA        35.1840   -6.8020  -25.5440 C.3   194  THR194      0.1862
    102  C         34.3120   -7.7200  -26.4050 C.2   194  THR194      0.2287
    103  O         34.2910   -7.6300  -27.6340 O.2   194  THR194     -0.2866
    104  CB        35.2780   -5.3860  -26.1490 C.3   194  THR194      0.1770
    105  OG1       36.4850   -4.7470  -25.7000 O.3   194  THR194     -0.2211
    106  CG2       34.0750   -4.5400  -25.7320 C.3   194  THR194      0.0375
    107  N         30.7950   -9.6840  -27.7450 N.3   196  LYS196     -0.1245
    108  CA        29.4480   -9.2780  -28.1480 C.3   196  LYS196      0.1561
    109  C         28.4070  -10.3580  -27.9050 C.2   196  LYS196      0.2260
    110  O         28.6920  -11.3510  -27.2430 O.2   196  LYS196     -0.2867
    111  CB        29.4280   -8.8070  -29.6010 C.3   196  LYS196      0.0271
    112  CG        29.7800   -7.3530  -29.6990 C.3   196  LYS196      0.0035
    113  CD        30.2850   -6.9810  -31.0520 C.3   196  LYS196      0.0206
    114  CE        31.1610   -5.7530  -30.9330 C.3   196  LYS196      0.1093
    115  NZ        31.8000   -5.3970  -32.2250 N.3   196  LYS196     -0.1314
    116  N         26.2240   -2.4620  -21.6550 N.3   236  LEU236     -0.1245
    117  CA        27.5590   -2.8420  -21.3380 C.3   236  LEU236      0.1561
    118  C         27.4740   -3.6560  -20.1220 C.2   236  LEU236      0.2260
    119  O         26.7100   -3.3460  -19.2440 O.2   236  LEU236     -0.2867
    120  CB        28.4050   -1.6370  -21.0670 C.3   236  LEU236      0.0270
    121  CG        29.8540   -2.0010  -20.9010 C.3   236  LEU236      0.0019
    122  CD1       30.3250   -2.7210  -22.1400 C.3   236  LEU236      0.0001
    123  CD2       30.6690   -0.7520  -20.7330 C.3   236  LEU236      0.0001
    124  N         24.8550    2.0710  -22.7120 N.3   281  ILE281     -0.1231
    125  CA        25.8950    2.9860  -23.1990 C.3   281  ILE281      0.1692
    126  C         25.7550    3.2790  -24.6880 C.2   281  ILE281      0.2592
    127  O         25.1190    2.5340  -25.4160 O.2   281  ILE281     -0.2718
    128  CB        27.3180    2.4270  -22.9320 C.3   281  ILE281      0.0266
    129  CG1       27.6530    1.3060  -23.9200 C.3   281  ILE281      0.0019
    130  CG2       27.4360    1.9400  -21.4810 C.3   281  ILE281      0.0020
    131  CD1       29.0330    0.7240  -23.7470 C.3   281  ILE281      0.0001
    132  N         26.3760    4.3620  -25.1300 N.am  282  ASP282     -0.1974
    133  CA        26.4170    4.7580  -26.5510 C.3   282  ASP282      0.1709
    134  C         25.0370    5.0910  -27.1840 C.2   282  ASP282      0.2293
    135  O         24.5810    4.4060  -28.1070 O.2   282  ASP282     -0.2864
    136  CB        27.1920    3.7160  -27.3850 C.3   282  ASP282      0.1436
    137  CG        28.6710    3.5960  -26.9630 C.2   282  ASP282      0.3671
    138  OD1       29.2620    4.5880  -26.4520 O.co2 282  ASP282     -0.2456
    139  OD2       29.2530    2.5010  -27.1440 O.co2 282  ASP282     -0.2456
@<TRIPOS>BOND
     1    94    95    1
     2    94    93    1
     3    95    96    1
     4    89    90    1
     5    90    93    1
     6    90    91    1
     7    98    97    1
     8    96    97    2
     9    97    99    1
    10    91    92    2
    11   115   114    1
    12   113   114    1
    13   113   112    1
    14   112   111    1
    15   111   108    1
    16   108   109    1
    17   108   107    1
    18    27    26    1
    19   135   134    2
    20    88    86   ar
    21   109   110    2
    22   103   102    2
    23   136   137    1
    24   136   133    1
    25   134   133    1
    26   139   137   ar
    27    84    83    2
    28   137   138   ar
    29    86    85    1
    30    86    87   ar
    31    26    25    1
    32   133   132    1
    33   102   101    1
    34    85    82    1
    35   104   106    1
    36   104   105    1
    37   104   101    1
    38    25    24    1
    39    83    82    1
    40   101   100    1
    41   127   126    2
    42    82    81    1
    43     1     2    1
    44   132   126   am
    45    21    22    2
    46    21    20    1
    47   126   125    1
    48    24    23    1
    49    23    20    1
    50     5     2    1
    51     5     6    1
    52    20    19    1
    53     2     3    1
    54   129   131    1
    55   129   128    1
    56   125   128    1
    57   125   124    1
    58     6     8   ar
    59     6     7   ar
    60   128   130    1
    61     3     4    2
    62     8    10   ar
    63     7     9   ar
    64    75    74    2
    65   122   121    1
    66    78    79    1
    67    78    77    1
    68    76    77    1
    69    76    73    1
    70    80    79    1
    71    74    73    1
    72   116   117    1
    73    10    11   ar
    74   117   120    1
    75   117   118    1
    76     9    11   ar
    77   120   121    1
    78   121   123    1
    79    73    72    1
    80   118   119    2
    81    17    16    1
    82    34    32    1
    83    33    32    1
    84    14    15    2
    85    14    13    1
    86    32    29    1
    87    16    13    1
    88    16    18    1
    89    71    69   ar
    90    71    70   ar
    91    28    29    1
    92    69    67   ar
    93    13    12    1
    94    60    58    1
    95    29    30    1
    96    70    68   ar
    97    67    66   ar
    98    58    59    1
    99    58    55    1
   100    30    31    2
   101    30    35   am
   102    38    37    2
   103    68    66   ar
   104    66    65    1
   105    35    36    1
   106    54    55    1
   107    54    48   am
   108    55    56    1
   109    52    51    2
   110    37    46   am
   111    37    36    1
   112    47    48    1
   113    47    46    1
   114    47    50    1
   115    48    49    2
   116    51    53   am
   117    51    50    1
   118    36    39    1
   119    61    56   am
   120    61    62    1
   121    56    57    2
   122    65    62    1
   123    62    63    1
   124    39    40    1
   125    63    64    2
   126    40    41    1
   127    41    42    1
   128    42    43    2
   129    43    45    1
   130    43    44    1
