@<TRIPOS>MOLECULE
tmp/3x04A01.pdb
 130 124 0 0 0
SMALL
GASTEIGER

@<TRIPOS>ATOM
      1  N         59.2810   40.4780  -15.5110 N.3    39  PHE39      -0.1227
      2  CA        59.0570   41.9190  -15.5940 C.3    39  PHE39       0.1736
      3  C         58.4910   42.3490  -16.9310 C.2    39  PHE39       0.2595
      4  O         58.1400   43.5170  -17.1220 O.2    39  PHE39      -0.2718
      5  CB        60.3420   42.6740  -15.2700 C.3    39  PHE39       0.0547
      6  CG        60.7530   42.5320  -13.8450 C.ar   39  PHE39      -0.0202
      7  CD1       61.4360   41.4070  -13.4250 C.ar   39  PHE39      -0.0042
      8  CD2       60.4000   43.4930  -12.9100 C.ar   39  PHE39      -0.0042
      9  CE1       61.7910   41.2570  -12.1120 C.ar   39  PHE39      -0.0003
     10  CE2       60.7500   43.3520  -11.5960 C.ar   39  PHE39      -0.0003
     11  CZ        61.4480   42.2380  -11.1910 C.ar   39  PHE39      -0.0000
     12  N         58.3970   41.3910  -17.8490 N.am   40  LYS40      -0.1980
     13  CA        57.8540   41.6440  -19.1770 C.3    40  LYS40       0.1596
     14  C         56.6260   40.7780  -19.4080 C.2    40  LYS40       0.2287
     15  O         56.0540   40.7890  -20.4990 O.2    40  LYS40      -0.2864
     16  CB        58.9030   41.3810  -20.2740 C.3    40  LYS40       0.0298
     17  CG        60.0510   42.3810  -20.3140 C.3    40  LYS40       0.0038
     18  CD        61.1140   42.0040  -21.3660 C.3    40  LYS40       0.0206
     19  CE        60.7790   42.5140  -22.7770 C.3    40  LYS40       0.1093
     20  NZ        61.7640   42.0580  -23.8390 N.3    40  LYS40      -0.1314
     21  N         52.6800   39.0820  -18.6990 N.3    42  TYR42      -0.1241
     22  CA        51.3030   39.4660  -18.3460 C.3    42  TYR42       0.1605
     23  C         50.3190   38.2920  -18.3750 C.2    42  TYR42       0.2264
     24  O         50.6090   37.2420  -18.9330 O.2    42  TYR42      -0.2867
     25  CB        50.7990   40.6350  -19.2070 C.3    42  TYR42       0.0534
     26  CG        50.6260   40.3170  -20.6710 C.ar   42  TYR42      -0.0201
     27  CD1       49.5000   39.6450  -21.1210 C.ar   42  TYR42      -0.0009
     28  CD2       51.5710   40.7140  -21.6110 C.ar   42  TYR42      -0.0009
     29  CE1       49.3270   39.3550  -22.4510 C.ar   42  TYR42       0.0417
     30  CE2       51.4080   40.4290  -22.9520 C.ar   42  TYR42       0.0417
     31  CZ        50.2800   39.7440  -23.3690 C.ar   42  TYR42       0.1957
     32  OH        50.0820   39.4410  -24.7080 O.3    42  TYR42      -0.2866
     33  N         46.2350   37.3880  -19.4040 N.3    44  LYS44      -0.1245
     34  CA        45.0920   37.9270  -20.0970 C.3    44  LYS44       0.1561
     35  C         43.9950   36.8790  -20.1750 C.2    44  LYS44       0.2260
     36  O         44.2340   35.7060  -20.4770 O.2    44  LYS44      -0.2867
     37  CB        45.4920   38.3860  -21.4920 C.3    44  LYS44       0.0271
     38  CG        44.7830   39.6370  -21.9410 C.3    44  LYS44       0.0035
     39  CD        45.7100   40.4690  -22.8250 C.3    44  LYS44       0.0206
     40  CE        45.8200   39.8980  -24.2230 C.3    44  LYS44       0.1093
     41  NZ        45.7200   40.9970  -25.2320 N.3    44  LYS44      -0.1314
     42  N         43.2460   41.9330  -17.8830 N.3    64  LYS64      -0.1245
     43  CA        44.6870   41.7530  -18.0140 C.3    64  LYS64       0.1561
     44  C         45.4120   42.1440  -16.7080 C.2    64  LYS64       0.2260
     45  O         45.1530   43.2120  -16.1340 O.2    64  LYS64      -0.2867
     46  CB        45.1990   42.5810  -19.2090 C.3    64  LYS64       0.0271
     47  CG        46.6740   42.4250  -19.5720 C.3    64  LYS64       0.0035
     48  CD        47.0010   43.2820  -20.8030 C.3    64  LYS64       0.0206
     49  CE        48.4120   42.9870  -21.3350 C.3    64  LYS64       0.1093
     50  NZ        48.9830   44.0510  -22.2220 N.3    64  LYS64      -0.1314
     51  N         49.2330   42.8990  -15.1940 N.3    66  TYR66      -0.1241
     52  CA        50.6350   43.1590  -15.5700 C.3    66  TYR66       0.1605
     53  C         51.6180   42.5670  -14.5770 C.2    66  TYR66       0.2264
     54  O         51.4730   42.7690  -13.3640 O.2    66  TYR66      -0.2867
     55  CB        50.9030   44.6620  -15.7190 C.3    66  TYR66       0.0534
     56  CG        50.0980   45.3140  -16.8240 C.ar   66  TYR66      -0.0201
     57  CD1       48.8630   45.9090  -16.5560 C.ar   66  TYR66      -0.0009
     58  CD2       50.5600   45.3090  -18.1510 C.ar   66  TYR66      -0.0009
     59  CE1       48.1140   46.4860  -17.5690 C.ar   66  TYR66       0.0417
     60  CE2       49.8230   45.8870  -19.1770 C.ar   66  TYR66       0.0417
     61  CZ        48.6100   46.4790  -18.8890 C.ar   66  TYR66       0.1957
     62  OH        47.8940   47.0660  -19.9100 O.3    66  TYR66      -0.2866
     63  N         47.6200   54.6700  -20.3370 N.3   113  SER113     -0.1217
     64  CA        48.5890   53.8220  -21.0270 C.3   113  SER113      0.1889
     65  C         50.0250   54.3180  -20.7900 C.2   113  SER113      0.2288
     66  O         50.9520   53.5180  -20.6150 O.2   113  SER113     -0.2866
     67  CB        48.2710   53.7800  -22.5230 C.3   113  SER113      0.2089
     68  OG        49.1450   52.9090  -23.2190 O.3   113  SER113     -0.2183
     69  N         51.0900   53.1990  -17.4140 N.3   116  VAL116     -0.1231
     70  CA        51.4040   51.7720  -17.3910 C.3   116  VAL116      0.1692
     71  C         52.8120   51.5310  -17.9620 C.2   116  VAL116      0.2591
     72  O         53.6240   50.7540  -17.4130 O.2   116  VAL116     -0.2718
     73  CB        50.3320   50.9430  -18.1500 C.3   116  VAL116      0.0266
     74  CG1       50.6560   49.4610  -18.1160 C.3   116  VAL116      0.0020
     75  CG2       48.9540   51.1840  -17.5650 C.3   116  VAL116      0.0020
     76  N         53.1010   52.2330  -19.0520 N.am  117  ALA117     -0.1980
     77  CA        54.4160   52.1680  -19.6720 C.3   117  ALA117      0.1597
     78  C         55.5190   52.5880  -18.7020 C.2   117  ALA117      0.2287
     79  O         56.5070   51.8740  -18.5410 O.2   117  ALA117     -0.2864
     80  CB        54.4530   53.0130  -20.9250 C.3   117  ALA117      0.0319
     81  N         56.2400   49.9130  -16.1070 N.3   120  HIS120     -0.1226
     82  CA        57.1910   48.9490  -16.6760 C.3   120  HIS120      0.1752
     83  C         58.6350   49.4780  -16.7450 C.2   120  HIS120      0.2596
     84  O         59.5990   48.7610  -16.4440 O.2   120  HIS120     -0.2718
     85  CB        56.7450   48.5150  -18.0780 C.3   120  HIS120      0.0759
     86  CG        55.6250   47.5180  -18.0830 C.ar  120  HIS120      0.0818
     87  ND1       55.8420   46.1560  -18.0300 N.ar  120  HIS120     -0.2268
     88  CD2       54.2800   47.6850  -18.1380 C.ar  120  HIS120      0.1154
     89  CE1       54.6780   45.5270  -18.0510 C.ar  120  HIS120      0.1986
     90  NE2       53.7160   46.4310  -18.1240 N.ar  120  HIS120     -0.2212
     91  N         58.7840   50.7340  -17.1470 N.am  121  ASN121     -0.1974
     92  CA        60.1110   51.3000  -17.2930 C.3   121  ASN121      0.1688
     93  C         60.8330   51.3230  -15.9620 C.2   121  ASN121      0.2292
     94  O         62.0280   51.0380  -15.8880 O.2   121  ASN121     -0.2864
     95  CB        60.0680   52.7020  -17.9230 C.3   121  ASN121      0.1181
     96  CG        59.9590   52.6600  -19.4440 C.2   121  ASN121      0.2629
     97  OD1       60.5950   51.8350  -20.1030 O.2   121  ASN121     -0.2716
     98  ND2       59.1460   53.5510  -20.0050 N.am  121  ASN121     -0.0877
     99  N         44.3720   45.9750  -16.5100 N.3   147  ARG147     -0.1245
    100  CA        43.6440   46.6010  -17.6140 C.3   147  ARG147      0.1563
    101  C         42.3140   45.8890  -17.8040 C.2   147  ARG147      0.2260
    102  O         42.2730   44.6860  -18.0790 O.2   147  ARG147     -0.2867
    103  CB        44.4480   46.5780  -18.9170 C.3   147  ARG147      0.0307
    104  CG        43.7810   47.3650  -20.0620 C.3   147  ARG147      0.0489
    105  CD        44.4470   47.0990  -21.4190 C.3   147  ARG147      0.2205
    106  NE        44.1150   45.7600  -21.8860 N.pl3 147  ARG147     -0.0865
    107  CZ        44.5930   45.1920  -22.9890 C.cat 147  ARG147      0.5346
    108  NH1       45.4480   45.8410  -23.7570 N.pl3 147  ARG147      0.1354
    109  NH2       44.2080   43.9640  -23.3220 N.pl3 147  ARG147      0.1354
    110  N         38.8320   50.3120  -22.8850 N.3   154  GLU154     -0.1245
    111  CA        39.9390   49.8490  -22.0610 C.3   154  GLU154      0.1567
    112  C         40.2390   50.7860  -20.8880 C.2   154  GLU154      0.2260
    113  O         40.3210   51.9970  -21.0650 O.2   154  GLU154     -0.2867
    114  CB        41.1810   49.6290  -22.9310 C.3   154  GLU154      0.0388
    115  CG        41.0390   48.4240  -23.8330 C.3   154  GLU154      0.1160
    116  CD        42.3300   48.0230  -24.5170 C.2   154  GLU154      0.3649
    117  OE1       42.4480   46.8260  -24.8730 O.co2 154  GLU154     -0.2457
    118  OE2       43.2130   48.8910  -24.7060 O.co2 154  GLU154     -0.2457
    119  N         42.8500   51.3040  -17.4600 N.3   156  TYR156     -0.1241
    120  CA        44.0220   50.8840  -16.7180 C.3   156  TYR156      0.1605
    121  C         43.8650   51.2410  -15.2300 C.2   156  TYR156      0.2264
    122  O         43.3330   52.3010  -14.8910 O.2   156  TYR156     -0.2867
    123  CB        45.2710   51.5490  -17.3090 C.3   156  TYR156      0.0534
    124  CG        45.5020   51.2850  -18.7930 C.ar  156  TYR156     -0.0201
    125  CD1       45.1380   52.2190  -19.7560 C.ar  156  TYR156     -0.0009
    126  CD2       46.0970   50.1070  -19.2230 C.ar  156  TYR156     -0.0009
    127  CE1       45.3630   51.9860  -21.1090 C.ar  156  TYR156      0.0417
    128  CE2       46.3190   49.8630  -20.5570 C.ar  156  TYR156      0.0417
    129  CZ        45.9540   50.8050  -21.5060 C.ar  156  TYR156      0.1957
    130  OH        46.1860   50.5640  -22.8380 O.3   156  TYR156     -0.2866
@<TRIPOS>BOND
     1    41    40    1
     2   117   116   ar
     3    32    31    1
     4   118   116   ar
     5   116   115    1
     6    40    39    1
     7    20    19    1
     8   115   114    1
     9   108   107    1
    10    31    30   ar
    11    31    29   ar
    12   109   107    1
    13    68    67    1
    14   107   106    2
    15    30    28   ar
    16   114   111    1
    17   110   111    1
    18   130   129    1
    19    39    38    1
    20    19    18    1
    21    67    64    1
    22    29    27   ar
    23    50    49    1
    24   111   112    1
    25    38    37    1
    26   106   105    1
    27    28    26   ar
    28   129   127   ar
    29   129   128   ar
    30    37    34    1
    31   105   104    1
    32    18    17    1
    33    49    48    1
    34    27    26   ar
    35   127   125   ar
    36   113   112    2
    37    64    65    1
    38    64    63    1
    39    80    77    1
    40    48    47    1
    41    65    66    2
    42    26    25    1
    43   128   126   ar
    44    15    14    2
    45    36    35    2
    46    17    16    1
    47    16    13    1
    48    35    34    1
    49    97    96    2
    50    34    33    1
    51   104   103    1
    52    98    96   am
    53    62    61    1
    54   125   124   ar
    55    77    76    1
    56    77    78    1
    57    47    46    1
    58    96    95    1
    59    14    13    1
    60   126   124   ar
    61    46    43    1
    62    25    22    1
    63    60    61   ar
    64    60    58   ar
    65    13    12    1
    66    76    71   am
    67    24    23    2
    68   103   100    1
    69    61    59   ar
    70   124   123    1
    71    78    79    2
    72    21    22    1
    73    23    22    1
    74    58    56   ar
    75    73    74    1
    76    73    75    1
    77    73    70    1
    78    88    90   ar
    79    88    86   ar
    80    90    89   ar
    81    86    85    1
    82    86    87   ar
    83   102   101    2
    84    85    82    1
    85    89    87   ar
    86    43    42    1
    87    43    44    1
    88    71    72    2
    89    71    70    1
    90    95    92    1
    91    12     3   am
    92   101   100    1
    93   100    99    1
    94    59    57   ar
    95   119   120    1
    96    69    70    1
    97   123   120    1
    98    92    91    1
    99    92    93    1
   100    91    83   am
   101     4     3    2
   102     3     2    1
   103    56    57   ar
   104    56    55    1
   105    83    82    1
   106    83    84    2
   107   120   121    1
   108    44    45    2
   109    82    81    1
   110    93    94    2
   111    55    52    1
   112     2     1    1
   113     2     5    1
   114    52    51    1
   115    52    53    1
   116     5     6    1
   117   121   122    2
   118    53    54    2
   119     6     7   ar
   120     6     8   ar
   121     7     9   ar
   122     8    10   ar
   123     9    11   ar
   124    10    11   ar
