@<TRIPOS>MOLECULE
tmp/3x05A01.pdb
 130 125 0 0 0
SMALL
GASTEIGER

@<TRIPOS>ATOM
      1  N         58.7610   40.2630  -15.6590 N.3    39  PHE39      -0.1227
      2  CA        58.5490   41.7080  -15.7540 C.3    39  PHE39       0.1736
      3  C         58.0280   42.1190  -17.1170 C.2    39  PHE39       0.2595
      4  O         57.7980   43.3040  -17.3680 O.2    39  PHE39      -0.2718
      5  CB        59.8520   42.4600  -15.4610 C.3    39  PHE39       0.0547
      6  CG        60.2590   42.4010  -14.0240 C.ar   39  PHE39      -0.0202
      7  CD1       60.9150   41.2930  -13.5280 C.ar   39  PHE39      -0.0042
      8  CD2       59.9530   43.4400  -13.1610 C.ar   39  PHE39      -0.0042
      9  CE1       61.2740   41.2280  -12.1970 C.ar   39  PHE39      -0.0003
     10  CE2       60.3110   43.3820  -11.8320 C.ar   39  PHE39      -0.0003
     11  CZ        60.9720   42.2770  -11.3480 C.ar   39  PHE39      -0.0000
     12  N         57.8670   41.1340  -17.9950 N.am   40  LYS40      -0.1980
     13  CA        57.3450   41.3660  -19.3360 C.3    40  LYS40       0.1596
     14  C         56.0710   40.5540  -19.5150 C.2    40  LYS40       0.2287
     15  O         55.4340   40.6110  -20.5680 O.2    40  LYS40      -0.2864
     16  CB        58.3520   40.9230  -20.4040 C.3    40  LYS40       0.0298
     17  CG        59.6820   41.6300  -20.3940 C.3    40  LYS40       0.0038
     18  CD        60.4580   41.2940  -21.6760 C.3    40  LYS40       0.0206
     19  CE        61.8680   41.8970  -21.6880 C.3    40  LYS40       0.1093
     20  NZ        62.8130   41.2630  -20.7080 N.3    40  LYS40      -0.1314
     21  N         52.2170   38.6020  -18.7380 N.3    42  TYR42      -0.1241
     22  CA        50.8210   39.0030  -18.5300 C.3    42  TYR42       0.1605
     23  C         49.8380   37.8500  -18.6610 C.2    42  TYR42       0.2264
     24  O         50.1230   36.8320  -19.2840 O.2    42  TYR42      -0.2867
     25  CB        50.4110   40.1650  -19.4510 C.3    42  TYR42       0.0534
     26  CG        50.2190   39.7890  -20.9010 C.ar   42  TYR42      -0.0201
     27  CD1       49.1350   39.0230  -21.3010 C.ar   42  TYR42      -0.0009
     28  CD2       51.1180   40.2150  -21.8800 C.ar   42  TYR42      -0.0009
     29  CE1       48.9620   38.6800  -22.6290 C.ar   42  TYR42       0.0417
     30  CE2       50.9460   39.8710  -23.2160 C.ar   42  TYR42       0.0417
     31  CZ        49.8690   39.1050  -23.5800 C.ar   42  TYR42       0.1957
     32  OH        49.6800   38.7590  -24.8980 O.3    42  TYR42      -0.2866
     33  N         42.7730   41.6020  -18.1940 N.3    64  LYS64      -0.1245
     34  CA        44.2090   41.4220  -18.3440 C.3    64  LYS64       0.1561
     35  C         44.9420   41.8160  -17.0730 C.2    64  LYS64       0.2260
     36  O         44.7230   42.9180  -16.5430 O.2    64  LYS64      -0.2867
     37  CB        44.7290   42.3000  -19.4720 C.3    64  LYS64       0.0271
     38  CG        46.2210   42.1820  -19.7010 C.3    64  LYS64       0.0035
     39  CD        46.6510   42.9850  -20.9170 C.3    64  LYS64       0.0206
     40  CE        48.1190   42.7290  -21.2580 C.3    64  LYS64       0.1093
     41  NZ        48.5660   43.5250  -22.4260 N.3    64  LYS64      -0.1314
     42  N         48.7790   42.5580  -15.6330 N.3    66  TYR66      -0.1241
     43  CA        50.2010   42.7440  -15.9500 C.3    66  TYR66       0.1605
     44  C         51.1240   42.1430  -14.8980 C.2    66  TYR66       0.2264
     45  O         50.9130   42.3280  -13.7120 O.2    66  TYR66      -0.2867
     46  CB        50.5180   44.2280  -16.1270 C.3    66  TYR66       0.0534
     47  CG        49.6280   44.9130  -17.1380 C.ar   66  TYR66      -0.0201
     48  CD1       48.3740   45.4050  -16.7730 C.ar   66  TYR66      -0.0009
     49  CD2       50.0240   45.0410  -18.4700 C.ar   66  TYR66      -0.0009
     50  CE1       47.5490   46.0250  -17.7110 C.ar   66  TYR66       0.0417
     51  CE2       49.2160   45.6600  -19.4010 C.ar   66  TYR66       0.0417
     52  CZ        47.9890   46.1540  -19.0250 C.ar   66  TYR66       0.1957
     53  OH        47.1950   46.7740  -19.9600 O.3    66  TYR66      -0.2866
     54  N         46.9180   54.7570  -20.2500 N.3   114  SER114     -0.1202
     55  CA        47.8040   53.7640  -20.8390 C.3   114  SER114      0.2020
     56  C         49.2600   54.2590  -20.8190 C.2   114  SER114      0.2618
     57  O         50.2010   53.4770  -20.9360 O.2   114  SER114     -0.2717
     58  CB        47.3310   53.3950  -22.2510 C.3   114  SER114      0.2103
     59  OG        48.2830   53.7450  -23.2340 O.3   114  SER114     -0.2182
     60  N         49.4440   55.5630  -20.6560 N.am  115  GLU115     -0.1979
     61  CA        50.7930   56.1110  -20.5340 C.3   115  GLU115      0.1602
     62  C         51.3070   55.7350  -19.1500 C.2   115  GLU115      0.2287
     63  O         52.5040   55.4440  -18.9720 O.2   115  GLU115     -0.2864
     64  CB        50.8080   57.6380  -20.7180 C.3   115  GLU115      0.0415
     65  CG        50.1170   58.1610  -21.9950 C.3   115  GLU115      0.1163
     66  CD        48.5850   58.0480  -21.9490 C.2   115  GLU115      0.3649
     67  OE1       47.9010   59.0890  -21.8070 O.co2 115  GLU115     -0.2457
     68  OE2       48.0640   56.9170  -22.0600 O.co2 115  GLU115     -0.2457
     69  N         50.4330   52.9930  -17.4590 N.3   117  VAL117     -0.1231
     70  CA        50.7390   51.5690  -17.4240 C.3   117  VAL117      0.1692
     71  C         52.0920   51.3340  -18.0620 C.2   117  VAL117      0.2591
     72  O         52.7840   50.3770  -17.7280 O.2   117  VAL117     -0.2718
     73  CB        49.6570   50.7110  -18.1210 C.3   117  VAL117      0.0266
     74  CG1       50.0890   49.2510  -18.1970 C.3   117  VAL117      0.0020
     75  CG2       48.3240   50.8180  -17.3870 C.3   117  VAL117      0.0020
     76  N         52.4700   52.2210  -18.9780 N.am  118  ALA118     -0.1980
     77  CA        53.7700   52.1330  -19.6340 C.3   118  ALA118      0.1597
     78  C         54.8880   52.5530  -18.6660 C.2   118  ALA118      0.2287
     79  O         55.9040   51.8620  -18.5310 O.2   118  ALA118     -0.2864
     80  CB        53.7930   52.9780  -20.8970 C.3   118  ALA118      0.0319
     81  N         55.6730   49.6700  -16.2570 N.3   121  HIS121     -0.1226
     82  CA        56.6540   48.7570  -16.8480 C.3   121  HIS121      0.1752
     83  C         58.0810   49.3460  -16.8510 C.2   121  HIS121      0.2596
     84  O         59.0480   48.6730  -16.4760 O.2   121  HIS121     -0.2718
     85  CB        56.2120   48.3110  -18.2530 C.3   121  HIS121      0.0759
     86  CG        55.0600   47.3460  -18.2460 C.ar  121  HIS121      0.0818
     87  ND1       53.7420   47.7540  -18.3070 N.ar  121  HIS121     -0.2268
     88  CD2       55.0280   45.9930  -18.1680 C.ar  121  HIS121      0.1154
     89  CE1       52.9510   46.6940  -18.2860 C.ar  121  HIS121      0.1986
     90  NE2       53.7050   45.6140  -18.1880 N.ar  121  HIS121     -0.2212
     91  N         58.2060   50.6120  -17.2370 N.am  122  ASN122     -0.1974
     92  CA        59.5240   51.2280  -17.3200 C.3   122  ASN122      0.1688
     93  C         60.2070   51.1280  -15.9780 C.2   122  ASN122      0.2292
     94  O         61.3500   50.7160  -15.8890 O.2   122  ASN122     -0.2864
     95  CB        59.4530   52.7050  -17.7390 C.3   122  ASN122      0.1181
     96  CG        58.9260   52.9000  -19.1570 C.2   122  ASN122      0.2629
     97  OD1       58.9500   51.9780  -19.9840 O.2   122  ASN122     -0.2716
     98  ND2       58.4450   54.1110  -19.4440 N.am  122  ASN122     -0.0877
     99  N         44.0250   45.5800  -16.8620 N.3   148  ARG148     -0.1245
    100  CA        43.2540   46.1750  -17.9480 C.3   148  ARG148      0.1563
    101  C         41.9280   45.4420  -18.0610 C.2   148  ARG148      0.2260
    102  O         41.9050   44.2210  -18.2160 O.2   148  ARG148     -0.2867
    103  CB        44.0100   46.1100  -19.2810 C.3   148  ARG148      0.0307
    104  CG        43.3630   46.9830  -20.3600 C.3   148  ARG148      0.0489
    105  CD        43.9300   46.6920  -21.7390 C.3   148  ARG148      0.2205
    106  NE        43.5860   45.3540  -22.2230 N.pl3 148  ARG148     -0.0865
    107  CZ        44.1530   44.7870  -23.2840 C.cat 148  ARG148      0.5346
    108  NH1       45.0900   45.4410  -23.9540 N.pl3 148  ARG148      0.1354
    109  NH2       43.7940   43.5690  -23.6700 N.pl3 148  ARG148      0.1354
    110  N         38.3590   49.7320  -23.1460 N.3   155  GLU155     -0.1245
    111  CA        39.4960   49.3670  -22.3080 C.3   155  GLU155      0.1567
    112  C         39.6720   50.3400  -21.1460 C.2   155  GLU155      0.2260
    113  O         39.6570   51.5540  -21.3400 O.2   155  GLU155     -0.2867
    114  CB        40.7720   49.3020  -23.1490 C.3   155  GLU155      0.0388
    115  CG        40.9520   47.9880  -23.9060 C.3   155  GLU155      0.1160
    116  CD        42.2130   47.9920  -24.7650 C.2   155  GLU155      0.3649
    117  OE1       42.5540   46.9310  -25.3490 O.co2 155  GLU155     -0.2457
    118  OE2       42.8610   49.0650  -24.8580 O.co2 155  GLU155     -0.2457
    119  N         42.2690   50.9190  -17.6810 N.3   157  TYR157     -0.1241
    120  CA        43.4410   50.4960  -16.9260 C.3   157  TYR157      0.1605
    121  C         43.3160   50.8480  -15.4380 C.2   157  TYR157      0.2264
    122  O         42.8700   51.9360  -15.0890 O.2   157  TYR157     -0.2867
    123  CB        44.6990   51.1270  -17.5110 C.3   157  TYR157      0.0534
    124  CG        44.9180   50.8580  -18.9880 C.ar  157  TYR157     -0.0201
    125  CD1       45.6100   49.7330  -19.4130 C.ar  157  TYR157     -0.0009
    126  CD2       44.4610   51.7500  -19.9590 C.ar  157  TYR157     -0.0009
    127  CE1       45.8430   49.4960  -20.7620 C.ar  157  TYR157      0.0417
    128  CE2       44.6790   51.5190  -21.3100 C.ar  157  TYR157      0.0417
    129  CZ        45.3730   50.3880  -21.7060 C.ar  157  TYR157      0.1957
    130  OH        45.6050   50.1440  -23.0390 O.3   157  TYR157     -0.2866
@<TRIPOS>BOND
     1   117   116   ar
     2    32    31    1
     3   118   116   ar
     4   116   115    1
     5   108   107    1
     6   115   114    1
     7   109   107    1
     8    31    30   ar
     9    31    29   ar
    10   107   106    2
    11    59    58    1
    12    30    28   ar
    13   114   111    1
    14   110   111    1
    15   130   129    1
    16    29    27   ar
    17    41    40    1
    18   111   112    1
    19    58    55    1
    20   106   105    1
    21    68    66   ar
    22    65    66    1
    23    65    64    1
    24    66    67   ar
    25    28    26   ar
    26   105   104    1
    27   129   128   ar
    28   129   127   ar
    29    19    18    1
    30    19    20    1
    31    18    17    1
    32   113   112    2
    33   128   126   ar
    34    27    26   ar
    35    40    39    1
    36    57    56    2
    37    39    38    1
    38    26    25    1
    39    80    77    1
    40    55    56    1
    41    55    54    1
    42    56    60   am
    43   127   125   ar
    44    64    61    1
    45    60    61    1
    46    15    14    2
    47    61    62    1
    48    16    17    1
    49    16    13    1
    50   104   103    1
    51    97    96    2
    52    53    52    1
    53   126   124   ar
    54    38    37    1
    55    77    76    1
    56    77    78    1
    57    14    13    1
    58    37    34    1
    59    25    22    1
    60    98    96   am
    61   125   124   ar
    62    51    52   ar
    63    51    49   ar
    64    13    12    1
    65    24    23    2
    66   103   100    1
    67    96    95    1
    68    62    63    2
    69    52    50   ar
    70   124   123    1
    71    76    71   am
    72    21    22    1
    73    78    79    2
    74    23    22    1
    75    49    47   ar
    76    34    33    1
    77    34    35    1
    78    87    89   ar
    79    87    86   ar
    80    89    90   ar
    81    85    86    1
    82    85    82    1
    83    86    88   ar
    84   102   101    2
    85    74    73    1
    86    90    88   ar
    87    73    70    1
    88    73    75    1
    89    71    72    2
    90    71    70    1
    91   101   100    1
    92    12     3   am
    93   100    99    1
    94    95    92    1
    95    50    48   ar
    96   119   120    1
    97   123   120    1
    98    69    70    1
    99     4     3    2
   100    92    91    1
   101    92    93    1
   102    91    83   am
   103    47    48   ar
   104    47    46    1
   105     3     2    1
   106    35    36    2
   107   120   121    1
   108    83    82    1
   109    83    84    2
   110    82    81    1
   111    46    43    1
   112    93    94    2
   113    43    42    1
   114    43    44    1
   115     2     1    1
   116     2     5    1
   117     5     6    1
   118   121   122    2
   119    44    45    2
   120     6     7   ar
   121     6     8   ar
   122     7     9   ar
   123     8    10   ar
   124     9    11   ar
   125    10    11   ar
