@<TRIPOS>MOLECULE
tmp/3x05A00.pdb
 127 120 0 0 0
SMALL
GASTEIGER

@<TRIPOS>ATOM
      1  N         38.2330   56.5870   -8.9630 N.3    99  PHE99      -0.1241
      2  CA        38.9950   56.3110   -7.7490 C.3    99  PHE99       0.1605
      3  C         38.1240   55.6430   -6.6740 C.2    99  PHE99       0.2264
      4  O         37.2580   56.2750   -6.0590 O.2    99  PHE99      -0.2867
      5  CB        39.6570   57.5780   -7.1920 C.3    99  PHE99       0.0534
      6  CG        40.6750   57.2980   -6.1210 C.ar   99  PHE99      -0.0203
      7  CD1       40.2790   57.0580   -4.8080 C.ar   99  PHE99      -0.0042
      8  CD2       42.0300   57.2460   -6.4340 C.ar   99  PHE99      -0.0042
      9  CE1       41.2260   56.7870   -3.8150 C.ar   99  PHE99      -0.0003
     10  CE2       42.9770   56.9720   -5.4610 C.ar   99  PHE99      -0.0003
     11  CZ        42.5730   56.7460   -4.1390 C.ar   99  PHE99      -0.0000
     12  N         42.9130   50.6860   -2.3170 N.3   108  VAL108     -0.1245
     13  CA        42.4730   51.7550   -3.1730 C.3   108  VAL108      0.1561
     14  C         42.7030   51.2740   -4.6100 C.2   108  VAL108      0.2260
     15  O         43.6440   50.5240   -4.8870 O.2   108  VAL108     -0.2867
     16  CB        43.2700   53.0250   -2.8400 C.3   108  VAL108      0.0252
     17  CG1       43.5130   53.8580   -4.0730 C.3   108  VAL108      0.0019
     18  CG2       42.5490   53.8100   -1.7500 C.3   108  VAL108      0.0019
     19  N         42.9510   52.8030   -8.4600 N.3   110  LYS110     -0.1245
     20  CA        43.0270   54.0230   -9.2540 C.3   110  LYS110      0.1561
     21  C         42.8820   53.6960  -10.7330 C.2   110  LYS110      0.2260
     22  O         43.5860   52.8470  -11.2680 O.2   110  LYS110     -0.2867
     23  CB        44.3480   54.7500   -8.9980 C.3   110  LYS110      0.0271
     24  CG        44.2950   56.2580   -9.1840 C.3   110  LYS110      0.0035
     25  CD        45.6550   56.7840   -9.5660 C.3   110  LYS110      0.0206
     26  CE        45.8070   58.2640   -9.2970 C.3   110  LYS110      0.1093
     27  NZ        44.6940   59.0460   -9.8800 N.3   110  LYS110     -0.1314
     28  N         53.9530   54.9050   -2.9890 N.3   141  PRO141     -0.2116
     29  CA        52.8080   54.0440   -3.2700 C.3   141  PRO141      0.1372
     30  C         53.2410   52.5890   -3.2740 C.2   141  PRO141      0.2244
     31  O         54.3100   52.2440   -3.7850 O.2   141  PRO141     -0.2868
     32  CB        52.3520   54.4940   -4.6630 C.3   141  PRO141      0.0268
     33  CG        52.8340   55.9300   -4.7700 C.3   141  PRO141      0.0207
     34  CD        54.1410   55.9600   -4.0030 C.3   141  PRO141      0.0892
     35  N         46.4240   49.7910   -5.0230 N.3   161  MET161     -0.1230
     36  CA        47.4440   50.1930   -4.0600 C.3   161  MET161      0.1702
     37  C         46.9380   50.1420   -2.6280 C.2   161  MET161      0.2592
     38  O         45.7450   50.0180   -2.3650 O.2   161  MET161     -0.2718
     39  CB        47.9300   51.6130   -4.3360 C.3   161  MET161      0.0401
     40  CG        48.3250   51.8550   -5.7520 C.3   161  MET161      0.0596
     41  SD        48.5310   53.6070   -6.0240 S.3   161  MET161     -0.1393
     42  CE        46.8450   54.1970   -5.9670 C.3   161  MET161      0.0692
     43  N         47.8630   50.2720   -1.6960 N.am  162  ARG162     -0.1966
     44  CA        47.4820   50.3500   -0.3030 C.3   162  ARG162      0.1729
     45  C         46.9150   51.7440    0.0220 C.2   162  ARG162      0.2616
     46  O         47.3540   52.7490   -0.5280 O.2   162  ARG162     -0.2715
     47  CB        48.6860   49.9750    0.5540 C.3   162  ARG162      0.0348
     48  CG        48.6270   50.4270    1.9510 C.3   162  ARG162      0.0492
     49  CD        48.6710   49.2430    2.8840 C.3   162  ARG162      0.2205
     50  NE        49.9780   48.6130    2.9230 N.pl3 162  ARG162     -0.0865
     51  CZ        50.2840   47.5810    3.6990 C.cat 162  ARG162      0.5346
     52  NH1       49.3790   47.0790    4.5300 N.pl3 162  ARG162      0.1354
     53  NH2       51.4980   47.0570    3.6360 N.pl3 162  ARG162      0.1354
     54  N         45.8960   51.7840    0.8740 N.am  163  ASN163     -0.1958
     55  CA        45.2950   53.0270    1.3360 C.3   163  ASN163      0.1819
     56  C         46.2970   53.7670    2.1920 C.2   163  ASN163      0.2621
     57  O         46.9360   53.1650    3.0520 O.2   163  ASN163     -0.2715
     58  CB        44.0840   52.6980    2.1940 C.3   163  ASN163      0.1195
     59  CG        43.1450   53.8790    2.3800 C.2   163  ASN163      0.2630
     60  OD1       43.4940   55.0320    2.1300 O.2   163  ASN163     -0.2716
     61  ND2       41.9380   53.5830    2.8430 N.am  163  ASN163     -0.0877
     62  N         46.4330   55.0660    1.9710 N.am  164  VAL164     -0.1963
     63  CA        47.3760   55.8550    2.7390 C.3   164  VAL164      0.1727
     64  C         46.7680   56.0120    4.1170 C.2   164  VAL164      0.2616
     65  O         47.4580   56.0330    5.1450 O.2   164  VAL164     -0.2715
     66  CB        47.5920   57.2440    2.1020 C.3   164  VAL164      0.0290
     67  CG1       48.4450   58.1330    3.0090 C.3   164  VAL164      0.0023
     68  CG2       48.2130   57.1040    0.7240 C.3   164  VAL164      0.0023
     69  N         45.4470   56.1000    4.1120 N.am  165  PHE165     -0.1974
     70  CA        44.6850   56.3490    5.3120 C.3   165  PHE165      0.1639
     71  C         44.4030   55.0570    6.0470 C.2   165  PHE165      0.2290
     72  O         44.6300   53.9610    5.4990 O.2   165  PHE165     -0.2864
     73  CB        43.3930   57.0730    4.9490 C.3   165  PHE165      0.0560
     74  CG        43.6340   58.4200    4.3630 C.ar  165  PHE165     -0.0200
     75  CD1       44.7780   59.1280    4.7060 C.ar  165  PHE165     -0.0042
     76  CD2       42.7610   58.9700    3.4420 C.ar  165  PHE165     -0.0042
     77  CE1       45.0240   60.3840    4.1690 C.ar  165  PHE165     -0.0003
     78  CE2       43.0070   60.2200    2.9010 C.ar  165  PHE165     -0.0003
     79  CZ        44.1400   60.9300    3.2720 C.ar  165  PHE165     -0.0000
     80  N         42.7610   66.9910    5.5600 N.3   174  LYS174     -0.1245
     81  CA        43.7360   66.4200    4.6430 C.3   174  LYS174      0.1561
     82  C         44.4410   67.4280    3.7100 C.2   174  LYS174      0.2260
     83  O         43.8800   68.4670    3.3400 O.2   174  LYS174     -0.2867
     84  CB        43.1130   65.2720    3.8660 C.3   174  LYS174      0.0271
     85  CG        42.5160   65.6370    2.5320 C.3   174  LYS174      0.0035
     86  CD        42.0080   64.3650    1.8570 C.3   174  LYS174      0.0206
     87  CE        41.8240   64.5550    0.3740 C.3   174  LYS174      0.1093
     88  NZ        41.7070   63.2280   -0.2840 N.3   174  LYS174     -0.1314
     89  N         47.3940   67.9240    0.2760 N.3   176  ASP176     -0.1239
     90  CA        48.2630   67.4400   -0.7930 C.3   176  ASP176      0.1674
     91  C         49.4120   68.4400   -0.8880 C.2   176  ASP176      0.2266
     92  O         49.1900   69.6200   -1.1580 O.2   176  ASP176     -0.2867
     93  CB        47.5040   67.3510   -2.1240 C.3   176  ASP176      0.1410
     94  CG        48.3520   66.7710   -3.2580 C.2   176  ASP176      0.3668
     95  OD1       49.2120   67.4980   -3.7930 O.co2 176  ASP176     -0.2456
     96  OD2       48.1550   65.5920   -3.6290 O.co2 176  ASP176     -0.2456
     97  N         40.4570   69.1450   -0.0800 N.3   197  THR197     -0.1218
     98  CA        41.8720   68.8370   -0.2840 C.3   197  THR197      0.1862
     99  C         42.6970   70.1150   -0.1950 C.2   197  THR197      0.2287
    100  O         42.9710   70.7620   -1.2070 O.2   197  THR197     -0.2866
    101  CB        42.1450   68.1700   -1.6490 C.3   197  THR197      0.1770
    102  OG1       41.6240   66.8370   -1.6570 O.3   197  THR197     -0.2211
    103  CG2       43.6350   68.1010   -1.9040 C.3   197  THR197      0.0375
    104  N         50.7460   62.9230    0.6060 N.3   242  LEU242     -0.1245
    105  CA        49.3530   62.9420    1.0340 C.3   242  LEU242      0.1561
    106  C         49.3660   62.9360    2.5470 C.2   242  LEU242      0.2260
    107  O         49.9330   62.0300    3.1520 O.2   242  LEU242     -0.2867
    108  CB        48.6010   61.7290    0.4950 C.3   242  LEU242      0.0270
    109  CG        47.1060   61.5870    0.8400 C.3   242  LEU242      0.0019
    110  CD1       46.3230   62.8010    0.3870 C.3   242  LEU242      0.0001
    111  CD2       46.5100   60.3130    0.2370 C.3   242  LEU242      0.0001
    112  N         52.1600   60.2690   -2.9480 N.3   295  ILE295     -0.1231
    113  CA        51.3070   59.7620   -4.0280 C.3   295  ILE295      0.1692
    114  C         51.6630   60.3870   -5.3750 C.2   295  ILE295      0.2592
    115  O         52.5170   61.2720   -5.4480 O.2   295  ILE295     -0.2718
    116  CB        49.8030   59.9740   -3.7550 C.3   295  ILE295      0.0266
    117  CG1       49.4790   61.4640   -3.7540 C.3   295  ILE295      0.0019
    118  CG2       49.4010   59.3060   -2.4570 C.3   295  ILE295      0.0020
    119  CD1       48.0150   61.7490   -3.6500 C.3   295  ILE295      0.0001
    120  N         50.9930   59.9090   -6.4250 N.am  296  ASP296     -0.1974
    121  CA        51.1100   60.4550   -7.7780 C.3   296  ASP296      0.1709
    122  C         52.5290   60.3860   -8.3480 C.2   296  ASP296      0.2293
    123  O         53.1430   61.4070   -8.6320 O.2   296  ASP296     -0.2864
    124  CB        50.5540   61.8880   -7.8410 C.3   296  ASP296      0.1436
    125  CG        49.0810   61.9510   -7.4570 C.2   296  ASP296      0.3671
    126  OD1       48.4430   60.8750   -7.4830 O.co2 296  ASP296     -0.2456
    127  OD2       48.5670   63.0510   -7.1270 O.co2 296  ASP296     -0.2456
@<TRIPOS>BOND
     1    22    21    2
     2    21    20    1
     3    27    26    1
     4    25    26    1
     5    25    24    1
     6    20    23    1
     7    20    19    1
     8    24    23    1
     9     1     2    1
    10   123   122    2
    11   122   121    1
    12   124   121    1
    13   124   125    1
    14   121   120    1
    15     2     5    1
    16     2     3    1
    17   126   125   ar
    18   125   127   ar
    19     5     6    1
    20     3     4    2
    21     8     6   ar
    22     8    10   ar
    23   120   114   am
    24     6     7   ar
    25    41    42    1
    26    41    40    1
    27    40    39    1
    28    10    11   ar
    29   115   114    2
    30   114   113    1
    31    35    36    1
    32    15    14    2
    33     7     9   ar
    34    33    32    1
    35    33    34    1
    36    32    29    1
    37    14    13    1
    38    39    36    1
    39    11     9   ar
    40    17    16    1
    41    36    37    1
    42   113   116    1
    43   113   112    1
    44    34    28    1
    45    95    94   ar
    46    31    30    2
    47   116   117    1
    48   116   118    1
    49   117   119    1
    50    96    94   ar
    51    30    29    1
    52    29    28    1
    53    94    93    1
    54    13    16    1
    55    13    12    1
    56    16    18    1
    57    37    38    2
    58    37    43   am
    59    93    90    1
    60   103   101    1
    61    43    44    1
    62   102   101    1
    63   101    98    1
    64   100    99    2
    65    92    91    2
    66    91    90    1
    67    90    89    1
    68    46    45    2
    69    44    45    1
    70    44    47    1
    71    98    99    1
    72    98    97    1
    73    88    87    1
    74    45    54   am
    75   111   109    1
    76    87    86    1
    77   110   109    1
    78   108   109    1
    79   108   105    1
    80    47    48    1
    81   104   105    1
    82    68    66    1
    83    54    55    1
    84   105   106    1
    85    55    56    1
    86    55    58    1
    87    86    85    1
    88    48    49    1
    89    62    56   am
    90    62    63    1
    91    66    63    1
    92    66    67    1
    93    60    59    2
    94    56    57    2
    95    58    59    1
    96    59    61   am
    97    85    84    1
    98   106   107    2
    99    63    64    1
   100    49    50    1
   101    78    79   ar
   102    78    76   ar
   103    50    51    2
   104    79    77   ar
   105    83    82    2
   106    76    74   ar
   107    53    51    1
   108    51    52    1
   109    82    81    1
   110    84    81    1
   111    69    64   am
   112    69    70    1
   113    64    65    2
   114    77    75   ar
   115    74    75   ar
   116    74    73    1
   117    81    80    1
   118    73    70    1
   119    70    71    1
   120    72    71    2
