@<TRIPOS>MOLECULE
tmp/3x0vB01.pdb
 148 137 0 0 0
SMALL
GASTEIGER

@<TRIPOS>ATOM
      1  N         17.3150   66.3710   48.4190 N.3    65  ARG65      -0.1245
      2  CA        16.9760   67.3080   49.5010 C.3    65  ARG65       0.1563
      3  C         16.0190   68.4140   49.0540 C.2    65  ARG65       0.2260
      4  O         16.0860   68.8750   47.9130 O.2    65  ARG65      -0.2867
      5  CB        18.2610   67.9410   50.0170 C.3    65  ARG65       0.0307
      6  CG        19.1270   68.4850   48.8750 C.3    65  ARG65       0.0489
      7  CD        20.5110   68.9240   49.3690 C.3    65  ARG65       0.2205
      8  NE        21.3920   69.3110   48.2640 N.pl3  65  ARG65      -0.0865
      9  CZ        22.6610   69.6770   48.4120 C.cat  65  ARG65       0.5346
     10  NH1       23.2060   69.7060   49.6190 N.pl3  65  ARG65       0.1354
     11  NH2       23.3870   70.0130   47.3520 N.pl3  65  ARG65       0.1354
     12  N         21.3930   70.5470   56.1710 N.3    91  LEU91      -0.1245
     13  CA        22.2660   71.1650   55.1820 C.3    91  LEU91       0.1561
     14  C         23.6010   71.4910   55.8360 C.2    91  LEU91       0.2260
     15  O         24.6580   71.2990   55.2460 O.2    91  LEU91      -0.2867
     16  CB        21.6400   72.4470   54.6220 C.3    91  LEU91       0.0270
     17  CG        22.4560   73.1500   53.5270 C.3    91  LEU91       0.0019
     18  CD1       22.5320   72.2940   52.2580 C.3    91  LEU91       0.0001
     19  CD2       21.8600   74.5080   53.2140 C.3    91  LEU91       0.0001
     20  N         32.0030   79.4290   46.7560 N.3   193  ASN193     -0.1225
     21  CA        30.5520   79.3860   46.5770 C.3   193  ASN193      0.1785
     22  C         29.9590   78.2710   45.7170 C.2   193  ASN193      0.2598
     23  O         28.8020   77.9050   45.8970 O.2   193  ASN193     -0.2718
     24  CB        30.0920   80.7280   46.0240 C.3   193  ASN193      0.1169
     25  CG        28.5910   80.8600   45.9920 C.2   193  ASN193      0.2627
     26  OD1       27.9460   80.9660   47.0370 O.2   193  ASN193     -0.2716
     27  ND2       28.0260   80.8870   44.7910 N.am  193  ASN193     -0.0877
     28  N         30.7520   77.6800   44.8310 N.am  194  THR194     -0.1939
     29  CA        30.1670   76.8080   43.8210 C.3   194  THR194      0.2028
     30  C         31.1850   75.8900   43.1470 C.2   194  THR194      0.2642
     31  O         32.2890   75.7090   43.6490 O.2   194  THR194     -0.2714
     32  CB        29.3220   77.6020   42.7840 C.3   194  THR194      0.1808
     33  OG1       28.5890   76.6900   41.9570 O.3   194  THR194     -0.2208
     34  CG2       30.1980   78.5150   41.9160 C.3   194  THR194      0.0379
     35  N         30.7740   75.2580   42.0500 N.am  195  GLY195     -0.1954
     36  CA        31.6410   74.3400   41.3230 C.3   195  GLY195      0.1869
     37  C         32.6010   75.0640   40.3980 C.2   195  GLY195      0.2309
     38  O         32.3400   76.1890   39.9790 O.2   195  GLY195     -0.2863
     39  N         31.8500   77.7560   37.3310 N.3   198  LEU198     -0.1245
     40  CA        30.4300   78.0970   37.1890 C.3   198  LEU198      0.1561
     41  C         30.1140   79.6000   37.2160 C.2   198  LEU198      0.2260
     42  O         29.0200   80.0190   36.8250 O.2   198  LEU198     -0.2867
     43  CB        29.5420   77.3120   38.1700 C.3   198  LEU198      0.0270
     44  CG        29.3470   75.8420   37.7560 C.3   198  LEU198      0.0019
     45  CD1       28.5470   75.0710   38.7960 C.3   198  LEU198      0.0001
     46  CD2       28.7210   75.7090   36.3550 C.3   198  LEU198      0.0001
     47  N         20.5410   80.1550   42.4330 N.3   209  ASP209     -0.1239
     48  CA        21.2030   79.1270   43.2140 C.3   209  ASP209      0.1674
     49  C         21.3910   79.5860   44.6600 C.2   209  ASP209      0.2266
     50  O         21.1600   78.8250   45.6010 O.2   209  ASP209     -0.2867
     51  CB        22.5550   78.7920   42.5910 C.3   209  ASP209      0.1410
     52  CG        23.3130   77.7640   43.3880 C.2   209  ASP209      0.3668
     53  OD1       22.8940   76.5810   43.3690 O.co2 209  ASP209     -0.2456
     54  OD2       24.3180   78.1410   44.0430 O.co2 209  ASP209     -0.2456
     55  N         19.7180   77.8230   47.9660 N.3   213  PHE213     -0.1241
     56  CA        20.5990   77.3080   49.0000 C.3   213  PHE213      0.1605
     57  C         20.8440   78.1880   50.2110 C.2   213  PHE213      0.2264
     58  O         21.1500   77.6670   51.2710 O.2   213  PHE213     -0.2867
     59  CB        21.9050   76.8090   48.4000 C.3   213  PHE213      0.0534
     60  CG        21.7500   75.5060   47.6900 C.ar  213  PHE213     -0.0203
     61  CD1       21.7720   74.3200   48.4020 C.ar  213  PHE213     -0.0042
     62  CD2       21.5330   75.4650   46.3260 C.ar  213  PHE213     -0.0042
     63  CE1       21.6080   73.1040   47.7560 C.ar  213  PHE213     -0.0003
     64  CE2       21.3670   74.2480   45.6700 C.ar  213  PHE213     -0.0003
     65  CZ        21.4030   73.0720   46.3910 C.ar  213  PHE213     -0.0000
     66  N         24.5750   71.8260   33.1100 N.3   312  ASP312     -0.1239
     67  CA        25.6780   71.4850   34.0160 C.3   312  ASP312      0.1674
     68  C         25.8310   69.9600   34.1100 C.2   312  ASP312      0.2266
     69  O         24.9110   69.2220   33.7730 O.2   312  ASP312     -0.2867
     70  CB        25.4190   72.0950   35.3990 C.3   312  ASP312      0.1410
     71  CG        26.6510   72.0970   36.2890 C.2   312  ASP312      0.3668
     72  OD1       27.7760   71.9430   35.7760 O.co2 312  ASP312     -0.2456
     73  OD2       26.4910   72.2950   37.5110 O.co2 312  ASP312     -0.2456
     74  N         27.6920   68.8730   55.3880 N.3   337  ALA337     -0.1245
     75  CA        28.5650   68.5380   54.2680 C.3   337  ALA337      0.1562
     76  C         29.9290   69.1590   54.4720 C.2   337  ALA337      0.2260
     77  O         30.0340   70.2680   54.9920 O.2   337  ALA337     -0.2867
     78  CB        27.9520   69.0230   52.9660 C.3   337  ALA337      0.0290
     79  N         33.3810   70.6450   52.7470 N.3   339  SER339     -0.1217
     80  CA        33.8020   71.2320   51.4720 C.3   339  SER339      0.1889
     81  C         35.3160   71.2930   51.3770 C.2   339  SER339      0.2288
     82  O         35.9980   71.4660   52.3780 O.2   339  SER339     -0.2866
     83  CB        33.2290   72.6390   51.3110 C.3   339  SER339      0.2089
     84  OG        31.8270   72.5880   51.1180 O.3   339  SER339     -0.2183
     85  N         33.0300   67.9320   47.6580 N.3   346  THR346     -0.1218
     86  CA        32.0200   67.9460   48.7100 C.3   346  THR346      0.1862
     87  C         31.7430   66.5470   49.1900 C.2   346  THR346      0.2287
     88  O         31.5100   65.6450   48.3720 O.2   346  THR346     -0.2866
     89  CB        30.6850   68.5430   48.1470 C.3   346  THR346      0.1770
     90  OG1       30.9290   69.8250   47.5660 O.3   346  THR346     -0.2211
     91  CG2       29.6790   68.7140   49.2610 C.3   346  THR346      0.0375
     92  N         29.0730   64.6300   51.6170 N.3   348  VAL348     -0.1245
     93  CA        27.7810   64.8280   52.2750 C.3   348  VAL348      0.1561
     94  C         27.4750   63.7070   53.2660 C.2   348  VAL348      0.2260
     95  O         27.4330   62.5400   52.8890 O.2   348  VAL348     -0.2867
     96  CB        26.6330   64.8770   51.2530 C.3   348  VAL348      0.0252
     97  CG1       25.2980   65.0990   51.9620 C.3   348  VAL348      0.0019
     98  CG2       26.8820   65.9770   50.2440 C.3   348  VAL348      0.0019
     99  N         30.3880   64.6960   45.8550 N.3   366  TYR366     -0.1241
    100  CA        29.2800   65.2880   45.1230 C.3   366  TYR366      0.1605
    101  C         29.8440   66.4930   44.3920 C.2   366  TYR366      0.2264
    102  O         30.2710   67.4530   45.0270 O.2   366  TYR366     -0.2867
    103  CB        28.2100   65.7140   46.1260 C.3   366  TYR366      0.0534
    104  CG        26.8970   66.1630   45.5380 C.ar  366  TYR366     -0.0201
    105  CD1       26.6620   66.1510   44.1640 C.ar  366  TYR366     -0.0009
    106  CD2       25.8830   66.6080   46.3730 C.ar  366  TYR366     -0.0009
    107  CE1       25.4300   66.5860   43.6440 C.ar  366  TYR366      0.0417
    108  CE2       24.6790   67.0390   45.8770 C.ar  366  TYR366      0.0417
    109  CZ        24.4490   67.0300   44.5180 C.ar  366  TYR366      0.1957
    110  OH        23.2150   67.4700   44.0750 O.3   366  TYR366     -0.2866
    111  N         30.0650   69.1650   40.6310 N.3   368  TRP368     -0.1241
    112  CA        29.3880   69.7650   39.4930 C.3   368  TRP368      0.1605
    113  C         30.4220   70.2010   38.4600 C.2   368  TRP368      0.2264
    114  O         31.6260   70.2510   38.7460 O.2   368  TRP368     -0.2867
    115  CB        28.5730   70.9840   39.9560 C.3   368  TRP368      0.0550
    116  CG        27.5600   70.6220   40.9980 C.ar  368  TRP368      0.0003
    117  CD1       26.2730   70.2040   40.7870 C.ar  368  TRP368      0.0946
    118  CD2       27.7600   70.6030   42.4210 C.ar  368  TRP368      0.0152
    119  NE1       25.6570   69.9410   41.9870 N.ar  368  TRP368     -0.2442
    120  CE2       26.5460   70.1700   43.0060 C.ar  368  TRP368      0.0810
    121  CE3       28.8500   70.8940   43.2560 C.ar  368  TRP368      0.0012
    122  CZ2       26.3880   70.0340   44.3900 C.ar  368  TRP368      0.0191
    123  CZ3       28.6910   70.7600   44.6340 C.ar  368  TRP368      0.0001
    124  CH2       27.4670   70.3350   45.1850 C.ar  368  TRP368      0.0015
    125  N         21.3650   68.8490   34.5740 N.3   436  PHE436     -0.1241
    126  CA        20.2160   69.7450   34.5440 C.3   436  PHE436      0.1605
    127  C         20.5940   71.0690   33.8900 C.2   436  PHE436      0.2264
    128  O         21.7730   71.3930   33.7800 O.2   436  PHE436     -0.2867
    129  CB        19.6750   70.0110   35.9550 C.3   436  PHE436      0.0534
    130  CG        20.7440   70.1600   37.0190 C.ar  436  PHE436     -0.0203
    131  CD1       20.8190   69.2580   38.0670 C.ar  436  PHE436     -0.0042
    132  CD2       21.6510   71.2130   36.9790 C.ar  436  PHE436     -0.0042
    133  CE1       21.7980   69.3810   39.0580 C.ar  436  PHE436     -0.0003
    134  CE2       22.6320   71.3500   37.9690 C.ar  436  PHE436     -0.0003
    135  CZ        22.7040   70.4300   39.0060 C.ar  436  PHE436     -0.0000
    136  N         21.6510   74.6280   33.3700 N.3   438  LEU438     -0.1245
    137  CA        22.2180   75.7760   34.0350 C.3   438  LEU438      0.1561
    138  C         22.6390   76.7470   32.9360 C.2   438  LEU438      0.2260
    139  O         23.7000   76.5890   32.3320 O.2   438  LEU438     -0.2867
    140  CB        23.4150   75.3320   34.8760 C.3   438  LEU438      0.0270
    141  CG        23.8560   76.2410   36.0180 C.3   438  LEU438      0.0019
    142  CD1       24.8370   75.4880   36.9170 C.3   438  LEU438      0.0001
    143  CD2       24.4670   77.5200   35.4810 C.3   438  LEU438      0.0001
    144  N         17.0350   72.5610   37.9480 N.3   472  ALA472     -0.1245
    145  CA        17.6850   71.6310   38.8610 C.3   472  ALA472      0.1562
    146  C         16.8930   71.3380   40.1260 C.2   472  ALA472      0.2260
    147  O         17.4640   70.8550   41.0990 O.2   472  ALA472     -0.2867
    148  CB        19.0860   72.1360   39.2310 C.3   472  ALA472      0.0290
@<TRIPOS>BOND
     1   139   138    2
     2   138   137    1
     3    66    67    1
     4   136   137    1
     5    69    68    2
     6   128   127    2
     7   127   126    1
     8    67    68    1
     9    67    70    1
    10   137   140    1
    11   126   125    1
    12   126   129    1
    13   140   141    1
    14    70    71    1
    15   143   141    1
    16    72    71   ar
    17   129   130    1
    18   141   142    1
    19    71    73   ar
    20    46    44    1
    21    42    41    2
    22   132   130   ar
    23   132   134   ar
    24   130   131   ar
    25    40    41    1
    26    40    39    1
    27    40    43    1
    28    44    43    1
    29    44    45    1
    30   144   145    1
    31   134   135   ar
    32   131   133   ar
    33   113   114    2
    34   113   112    1
    35   145   148    1
    36   145   146    1
    37   135   133   ar
    38   112   115    1
    39   112   111    1
    40   115   116    1
    41    38    37    2
    42   146   147    2
    43    37    36    1
    44   117   116   ar
    45   117   119   ar
    46   116   118   ar
    47    36    35    1
    48    34    32    1
    49    33    32    1
    50   119   120   ar
    51    35    30   am
    52   118   120   ar
    53   118   121   ar
    54    47    48    1
    55    51    48    1
    56    51    52    1
    57    32    29    1
    58   120   122   ar
    59    30    31    2
    60    30    29    1
    61    48    49    1
    62   121   123   ar
    63    53    52   ar
    64    52    54   ar
    65   107   105   ar
    66   107   109   ar
    67    29    28    1
    68   110   109    1
    69   105   104   ar
    70   122   124   ar
    71   101   102    2
    72   101   100    1
    73   109   108   ar
    74   123   124   ar
    75    49    50    2
    76    27    25   am
    77    28    22   am
    78   100    99    1
    79   100   103    1
    80   104   103    1
    81   104   106   ar
    82    64    62   ar
    83    64    65   ar
    84    22    23    2
    85    22    21    1
    86   108   106   ar
    87    25    24    1
    88    25    26    2
    89    24    21    1
    90    62    60   ar
    91    65    63   ar
    92    21    20    1
    93    11     9    1
    94    90    89    1
    95    85    86    1
    96    60    59    1
    97    60    61   ar
    98    63    61   ar
    99     4     3    2
   100    55    56    1
   101    89    86    1
   102    89    91    1
   103     8     9    2
   104     8     7    1
   105    88    87    2
   106    59    56    1
   107     9    10    1
   108     1     2    1
   109    86    87    1
   110     6     7    1
   111     6     5    1
   112    56    57    1
   113     3     2    1
   114     2     5    1
   115    57    58    2
   116    98    96    1
   117    84    83    1
   118    96    97    1
   119    96    93    1
   120    83    80    1
   121    81    80    1
   122    81    82    2
   123    80    79    1
   124    92    93    1
   125    18    17    1
   126    93    94    1
   127    95    94    2
   128    78    75    1
   129    19    17    1
   130    17    16    1
   131    75    76    1
   132    75    74    1
   133    76    77    2
   134    16    13    1
   135    13    14    1
   136    13    12    1
   137    15    14    2
