@<TRIPOS>MOLECULE
tmp/3x0yD00.pdb
 163 157 0 0 0
SMALL
GASTEIGER

@<TRIPOS>ATOM
      1  N       -132.1390  102.2320   29.1350 N.3    77  HIS77      -0.1241
      2  CA      -131.2010  102.9730   28.2970 C.3    77  HIS77       0.1621
      3  C       -131.7440  104.3500   27.9280 C.2    77  HIS77       0.2264
      4  O       -131.0350  105.3500   28.0200 O.2    77  HIS77      -0.2867
      5  CB      -130.8780  102.1660   27.0350 C.3    77  HIS77       0.0745
      6  CG      -130.1840  102.9520   25.9700 C.ar   77  HIS77       0.0817
      7  ND1     -130.8630  103.5560   24.9350 N.ar   77  HIS77      -0.2268
      8  CD2     -128.8760  103.2360   25.7790 C.ar   77  HIS77       0.1154
      9  CE1     -130.0020  104.1780   24.1500 C.ar   77  HIS77       0.1986
     10  NE2     -128.7880  103.9990   24.6390 N.ar   77  HIS77      -0.2212
     11  N       -129.8280  107.5380   29.3290 N.3    81  TYR81      -0.1241
     12  CA      -129.1600  108.5130   28.4610 C.3    81  TYR81       0.1605
     13  C       -129.7540  109.9060   28.6510 C.2    81  TYR81       0.2264
     14  O       -129.0330  110.9010   28.5810 O.2    81  TYR81      -0.2867
     15  CB      -129.2320  108.1080   26.9760 C.3    81  TYR81       0.0534
     16  CG      -127.8700  108.0710   26.3100 C.ar   81  TYR81      -0.0201
     17  CD1     -127.0990  109.2260   26.1860 C.ar   81  TYR81      -0.0009
     18  CD2     -127.3410  106.8750   25.8260 C.ar   81  TYR81      -0.0009
     19  CE1     -125.8420  109.1930   25.5940 C.ar   81  TYR81       0.0417
     20  CE2     -126.0910  106.8340   25.2270 C.ar   81  TYR81       0.0417
     21  CZ      -125.3410  107.9920   25.1180 C.ar   81  TYR81       0.1957
     22  OH      -124.0940  107.9470   24.5230 O.3    81  TYR81      -0.2866
     23  N       -130.1200  113.2560   22.1840 N.3   114  ASN114     -0.1240
     24  CA      -128.8040  113.6600   21.7200 C.3   114  ASN114      0.1653
     25  C       -128.5790  113.3110   20.2570 C.2   114  ASN114      0.2266
     26  O       -129.2090  112.4030   19.7140 O.2   114  ASN114     -0.2867
     27  CB      -127.7140  113.0220   22.5800 C.3   114  ASN114      0.1155
     28  CG      -127.4790  111.5640   22.2400 C.2   114  ASN114      0.2627
     29  OD1     -126.5260  111.2300   21.5350 O.2   114  ASN114     -0.2716
     30  ND2     -128.3550  110.6880   22.7250 N.am  114  ASN114     -0.0877
     31  N       -124.8520  113.1290   18.5770 N.3   116  SER116     -0.1202
     32  CA      -123.4220  113.3660   18.8290 C.3   116  SER116      0.2020
     33  C       -122.4740  112.5710   17.9210 C.2   116  SER116      0.2619
     34  O       -121.5450  113.1450   17.3480 O.2   116  SER116     -0.2717
     35  CB      -123.0970  113.0590   20.2930 C.3   116  SER116      0.2103
     36  OG      -123.9770  113.7480   21.1610 O.3   116  SER116     -0.2182
     37  N       -122.6910  111.2620   17.8050 N.am  117  SER117     -0.1937
     38  CA      -121.8510  110.4060   16.9600 C.3   117  SER117      0.2055
     39  C       -122.4510  110.2150   15.5640 C.2   117  SER117      0.2642
     40  O       -123.6620  110.3380   15.3830 O.2   117  SER117     -0.2714
     41  CB      -121.6580  109.0440   17.6220 C.3   117  SER117      0.2130
     42  OG      -122.9020  108.3870   17.7780 O.3   117  SER117     -0.2179
     43  N       -121.5940  109.8950   14.5920 N.am  118  GLU118     -0.1976
     44  CA      -122.0010  109.7250   13.1910 C.3   118  GLU118      0.1602
     45  C       -121.5370  108.3830   12.6210 C.2   118  GLU118      0.2287
     46  O       -120.8290  107.6270   13.2900 O.2   118  GLU118     -0.2864
     47  CB      -121.4350  110.8630   12.3340 C.3   118  GLU118      0.0415
     48  CG      -121.7700  112.2540   12.8470 C.3   118  GLU118      0.1163
     49  CD      -121.2530  113.3580   11.9450 C.2   118  GLU118      0.3649
     50  OE1     -121.3450  113.2200   10.7060 O.co2 118  GLU118     -0.2457
     51  OE2     -120.7590  114.3750   12.4770 O.co2 118  GLU118     -0.2457
     52  N       -115.1070  106.7880   14.6600 N.3   123  VAL123     -0.1245
     53  CA      -115.9080  107.5570   15.6270 C.3   123  VAL123      0.1561
     54  C       -115.4600  109.0150   15.7850 C.2   123  VAL123      0.2260
     55  O       -116.2800  109.8840   16.0980 O.2   123  VAL123     -0.2867
     56  CB      -115.9650  106.8860   17.0250 C.3   123  VAL123      0.0252
     57  CG1     -116.8110  105.6220   16.9750 C.3   123  VAL123      0.0019
     58  CG2     -114.5720  106.5890   17.5700 C.3   123  VAL123      0.0019
     59  N       -126.4480  107.9330   14.9950 N.3   146  PHE146     -0.1241
     60  CA      -126.8200  107.3840   16.2990 C.3   146  PHE146      0.1605
     61  C       -127.3480  108.5220   17.1680 C.2   146  PHE146      0.2264
     62  O       -126.5810  109.3920   17.5930 O.2   146  PHE146     -0.2867
     63  CB      -125.6210  106.7010   16.9710 C.3   146  PHE146      0.0534
     64  CG      -125.4070  105.2680   16.5480 C.ar  146  PHE146     -0.0203
     65  CD1     -126.1590  104.2430   17.1120 C.ar  146  PHE146     -0.0042
     66  CD2     -124.4370  104.9390   15.6050 C.ar  146  PHE146     -0.0042
     67  CE1     -125.9580  102.9230   16.7350 C.ar  146  PHE146     -0.0003
     68  CE2     -124.2300  103.6200   15.2260 C.ar  146  PHE146     -0.0003
     69  CZ      -124.9910  102.6110   15.7910 C.ar  146  PHE146     -0.0000
     70  N       -129.9120  108.3580   20.1600 N.3   148  SER148     -0.1217
     71  CA      -130.8020  107.7960   21.1730 C.3   148  SER148      0.1889
     72  C       -131.7480  108.8550   21.7370 C.2   148  SER148      0.2288
     73  O       -131.3180  109.9340   22.1390 O.2   148  SER148     -0.2866
     74  CB      -129.9900  107.1870   22.3180 C.3   148  SER148      0.2089
     75  OG      -129.0800  106.2140   21.8360 O.3   148  SER148     -0.2183
     76  N       -134.5220  103.2080   13.2140 N.3   190  TRP190     -0.1241
     77  CA      -133.7660  102.4190   14.1740 C.3   190  TRP190      0.1605
     78  C       -134.2000  100.9660   14.1070 C.2   190  TRP190      0.2264
     79  O       -135.3800  100.6590   14.2560 O.2   190  TRP190     -0.2867
     80  CB      -133.9600  102.9410   15.5990 C.3   190  TRP190      0.0550
     81  CG      -133.3590  102.0420   16.6360 C.ar  190  TRP190      0.0003
     82  CD1     -134.0090  101.4300   17.6660 C.ar  190  TRP190      0.0946
     83  CD2     -131.9910  101.6360   16.7290 C.ar  190  TRP190      0.0152
     84  NE1     -133.1300  100.6780   18.4030 N.ar  190  TRP190     -0.2442
     85  CE2     -131.8830  100.7860   17.8490 C.ar  190  TRP190      0.0810
     86  CE3     -130.8440  101.9110   15.9760 C.ar  190  TRP190      0.0012
     87  CZ2     -130.6750  100.2110   18.2370 C.ar  190  TRP190      0.0191
     88  CZ3     -129.6430  101.3380   16.3600 C.ar  190  TRP190      0.0001
     89  CH2     -129.5680  100.4970   17.4840 C.ar  190  TRP190      0.0015
     90  N       -132.4020   96.3770   22.2250 N.3   195  MET195     -0.1245
     91  CA      -132.5920   97.8090   22.4400 C.3   195  MET195      0.1570
     92  C       -133.5040   98.3690   21.3490 C.2   195  MET195      0.2261
     93  O       -133.2620   99.4440   20.8010 O.2   195  MET195     -0.2867
     94  CB      -131.2410   98.5410   22.4700 C.3   195  MET195      0.0387
     95  CG      -130.3660   98.2030   23.6700 C.3   195  MET195      0.0595
     96  SD      -131.1950   98.4610   25.2550 S.3   195  MET195     -0.1393
     97  CE      -129.8140   98.3550   26.3870 C.3   195  MET195      0.0692
     98  N       -135.2220  102.0470   21.7180 N.3   198  THR198     -0.1218
     99  CA      -134.3680  103.1530   22.1610 C.3   198  THR198      0.1862
    100  C       -134.3980  104.3580   21.2180 C.2   198  THR198      0.2287
    101  O       -133.8340  105.3970   21.5460 O.2   198  THR198     -0.2866
    102  CB      -132.9040  102.7030   22.3150 C.3   198  THR198      0.1770
    103  OG1     -132.4130  102.2200   21.0570 O.3   198  THR198     -0.2211
    104  CG2     -132.7970  101.6110   23.3720 C.3   198  THR198      0.0375
    105  N       -132.7170  104.8760   18.5170 N.3   200  SER200     -0.1217
    106  CA      -131.3330  105.2330   18.2170 C.3   200  SER200      0.1889
    107  C       -131.1050  105.3310   16.7090 C.2   200  SER200      0.2288
    108  O       -130.1140  104.8210   16.1860 O.2   200  SER200     -0.2866
    109  CB      -130.3660  104.2140   18.8450 C.3   200  SER200      0.2089
    110  OG      -130.4670  104.2100   20.2590 O.3   200  SER200     -0.2183
    111  N       -126.5200   93.9360   22.3310 N.3   372  THR372     -0.1203
    112  CA      -126.5840   95.0660   21.4160 C.3   372  THR372      0.1994
    113  C       -125.8010   96.2570   21.9570 C.2   372  THR372      0.2617
    114  O       -124.8330   96.6920   21.3400 O.2   372  THR372     -0.2717
    115  CB      -128.0440   95.4900   21.1210 C.3   372  THR372      0.1784
    116  OG1     -128.7230   94.4220   20.4510 O.3   372  THR372     -0.2211
    117  CG2     -128.0890   96.7370   20.2410 C.3   372  THR372      0.0376
    118  N       -126.2170   96.7800   23.1050 N.am  373  HIS373     -0.1975
    119  CA      -125.6470   98.0280   23.6200 C.3   373  HIS373      0.1656
    120  C       -124.1960   97.9170   24.1350 C.2   373  HIS373      0.2291
    121  O       -123.4550   98.9030   24.1250 O.2   373  HIS373     -0.2864
    122  CB      -126.5460   98.6210   24.7020 C.3   373  HIS373      0.0771
    123  CG      -126.1740  100.0180   25.0830 C.ar  373  HIS373      0.0820
    124  ND1     -126.2710  100.4900   26.3750 N.ar  373  HIS373     -0.2267
    125  CD2     -125.6680  101.0360   24.3460 C.ar  373  HIS373      0.1154
    126  CE1     -125.8550  101.7430   26.4130 C.ar  373  HIS373      0.1986
    127  NE2     -125.4830  102.0990   25.1950 N.ar  373  HIS373     -0.2212
    128  N       -121.8380   96.8030   22.6520 N.3   375  LEU375     -0.1231
    129  CA      -120.9850   97.1130   21.5070 C.3   375  LEU375      0.1693
    130  C       -120.9000   98.6190   21.2200 C.2   375  LEU375      0.2592
    131  O       -120.2240   99.0250   20.2750 O.2   375  LEU375     -0.2718
    132  CB      -121.5070   96.3870   20.2630 C.3   375  LEU375      0.0284
    133  CG      -121.7710   94.8910   20.4200 C.3   375  LEU375      0.0019
    134  CD1     -122.3740   94.3160   19.1500 C.3   375  LEU375      0.0001
    135  CD2     -120.4950   94.1510   20.7910 C.3   375  LEU375      0.0001
    136  N       -121.5870   99.4400   22.0160 N.am  376  HIS376     -0.1976
    137  CA      -121.4980  100.9000   21.9020 C.3   376  HIS376      0.1656
    138  C       -120.0330  101.3150   21.7620 C.2   376  HIS376      0.2291
    139  O       -119.6470  101.9650   20.7870 O.2   376  HIS376     -0.2864
    140  CB      -122.1530  101.5620   23.1260 C.3   376  HIS376      0.0771
    141  CG      -121.9520  103.0450   23.2140 C.ar  376  HIS376      0.0820
    142  ND1     -120.8000  103.6130   23.7140 N.ar  376  HIS376     -0.2267
    143  CD2     -122.7730  104.0770   22.9030 C.ar  376  HIS376      0.1154
    144  CE1     -120.9110  104.9300   23.6870 C.ar  376  HIS376      0.1986
    145  NE2     -122.0990  105.2370   23.1980 N.ar  376  HIS376     -0.2212
    146  N       -115.2180  111.0220   24.7330 N.3   400  PHE400     -0.1227
    147  CA      -116.6110  110.6050   24.8660 C.3   400  PHE400      0.1736
    148  C       -116.7540  109.2690   25.5910 C.2   400  PHE400      0.2596
    149  O       -117.6870  109.0880   26.3720 O.2   400  PHE400     -0.2718
    150  CB      -117.2750  110.5370   23.4920 C.3   400  PHE400      0.0547
    151  CG      -117.5270  111.8840   22.8830 C.ar  400  PHE400     -0.0202
    152  CD1     -116.6070  112.4540   22.0130 C.ar  400  PHE400     -0.0042
    153  CD2     -118.6800  112.5880   23.1910 C.ar  400  PHE400     -0.0042
    154  CE1     -116.8370  113.7000   21.4580 C.ar  400  PHE400     -0.0003
    155  CE2     -118.9170  113.8340   22.6370 C.ar  400  PHE400     -0.0003
    156  CZ      -117.9930  114.3910   21.7710 C.ar  400  PHE400     -0.0000
    157  N       -115.8370  108.3420   25.3260 N.am  401  THR401     -0.1953
    158  CA      -115.8560  107.0150   25.9530 C.3   401  THR401      0.1897
    159  C       -114.7640  106.8230   27.0120 C.2   401  THR401      0.2313
    160  O       -114.9550  106.0520   27.9510 O.2   401  THR401     -0.2863
    161  CB      -115.7240  105.8920   24.9020 C.3   401  THR401      0.1794
    162  OG1     -114.6730  106.2100   23.9820 O.3   401  THR401     -0.2208
    163  CG2     -117.0210  105.7190   24.1340 C.3   401  THR401      0.0378
@<TRIPOS>BOND
     1    50    49   ar
     2    49    51   ar
     3    49    48    1
     4    47    48    1
     5    47    44    1
     6    45    44    1
     7    45    46    2
     8    44    43    1
     9    76    77    1
    10    78    77    1
    11    78    79    2
    12    77    80    1
    13    43    39   am
    14    52    53    1
    15    59    60    1
    16    68    66   ar
    17    68    69   ar
    18    40    39    2
    19    39    38    1
    20    80    81    1
    21    66    64   ar
    22    53    54    1
    23    53    56    1
    24    54    55    2
    25    69    67   ar
    26    86    88   ar
    27    86    83   ar
    28   108   107    2
    29    60    63    1
    30    60    61    1
    31    88    89   ar
    32    64    63    1
    33    64    65   ar
    34    81    83   ar
    35    81    82   ar
    36   107   106    1
    37    83    85   ar
    38    67    65   ar
    39    38    41    1
    40    38    37    1
    41    57    56    1
    42    56    58    1
    43    61    62    2
    44    34    33    2
    45    89    87   ar
    46    41    42    1
    47    82    84   ar
    48    37    33   am
    49    85    87   ar
    50    85    84   ar
    51    33    32    1
    52   106   105    1
    53   106   109    1
    54    31    32    1
    55    32    35    1
    56   109   110    1
    57   134   133    1
    58    26    25    2
    59    70    71    1
    60   117   115    1
    61    25    24    1
    62   132   133    1
    63   132   129    1
    64   131   130    2
    65    35    36    1
    66   133   135    1
    67   116   115    1
    68   139   138    2
    69    93    92    2
    70   103   102    1
    71   115   112    1
    72    71    72    1
    73    71    74    1
    74   100   101    2
    75   100    99    1
    76   130   129    1
    77   130   136   am
    78   114   113    2
    79    92    91    1
    80   112   113    1
    81   112   111    1
    82   154   156   ar
    83   154   152   ar
    84   129   128    1
    85    29    28    2
    86    98    99    1
    87    24    23    1
    88    24    27    1
    89    72    73    2
    90   138   137    1
    91   156   155   ar
    92    75    74    1
    93   137   136    1
    94   137   140    1
    95   113   118   am
    96   152   151   ar
    97    99   102    1
    98    90    91    1
    99    28    27    1
   100    28    30   am
   101   102   104    1
   102    91    94    1
   103    94    95    1
   104   155   153   ar
   105   151   153   ar
   106   151   150    1
   107   143   145   ar
   108   143   141   ar
   109   118   119    1
   110   140   141    1
   111   145   144   ar
   112   141   142   ar
   113   150   147    1
   114   119   120    1
   115   119   122    1
   116    95    96    1
   117   144   142   ar
   118   162   161    1
   119   121   120    2
   120   163   161    1
   121     9    10   ar
   122     9     7   ar
   123   125   123   ar
   124   125   127   ar
   125    22    21    1
   126    10     8   ar
   127   122   123    1
   128   146   147    1
   129   147   148    1
   130   161   158    1
   131     7     6   ar
   132   123   124   ar
   133    21    20   ar
   134    21    19   ar
   135   127   126   ar
   136    20    18   ar
   137    96    97    1
   138   157   148   am
   139   157   158    1
   140   148   149    2
   141    19    17   ar
   142     8     6   ar
   143    18    16   ar
   144   158   159    1
   145     6     5    1
   146    17    16   ar
   147    16    15    1
   148   124   126   ar
   149    15    12    1
   150   159   160    2
   151     5     2    1
   152     3     4    2
   153     3     2    1
   154     2     1    1
   155    12    13    1
   156    12    11    1
   157    14    13    2
