@<TRIPOS>MOLECULE
tmp/3x13A00.pdb
 235 226 0 0 0
SMALL
GASTEIGER

@<TRIPOS>ATOM
      1  N        -13.9980  -16.5160   27.9610 N.3     5  MET5       -0.1245
      2  CA       -13.6640  -15.2170   28.5340 C.3     5  MET5        0.1570
      3  C        -12.2570  -14.9180   28.0150 C.2     5  MET5        0.2261
      4  O        -11.4460  -15.8380   27.9590 O.2     5  MET5       -0.2867
      5  CB       -13.6670  -15.2170   30.0480 C.3     5  MET5        0.0387
      6  CG       -13.2090  -13.8670   30.5910 C.3     5  MET5        0.0595
      7  SD       -13.7110  -13.6370   32.2690 S.3     5  MET5       -0.1393
      8  CE       -12.4920  -14.5710   33.1790 C.3     5  MET5        0.0692
      9  N         -9.0910  -11.6840   27.7710 N.3     7  TYR7       -0.1241
     10  CA        -8.5720  -10.3410   27.9450 C.3     7  TYR7        0.1605
     11  C         -7.5860  -10.1110   26.8320 C.2     7  TYR7        0.2264
     12  O         -6.8350  -11.0250   26.4750 O.2     7  TYR7       -0.2867
     13  CB        -7.8870  -10.1100   29.2950 C.3     7  TYR7        0.0534
     14  CG        -8.8960   -9.9160   30.3960 C.ar    7  TYR7       -0.0201
     15  CD1       -9.3860  -11.0050   31.1140 C.ar    7  TYR7       -0.0009
     16  CD2       -9.3770   -8.6500   30.7080 C.ar    7  TYR7       -0.0009
     17  CE1      -10.2920  -10.8290   32.1660 C.ar    7  TYR7        0.0417
     18  CE2      -10.3240   -8.4650   31.7190 C.ar    7  TYR7        0.0417
     19  CZ       -10.7810   -9.5630   32.4400 C.ar    7  TYR7        0.1957
     20  OH       -11.6540   -9.3700   33.4850 O.3     7  TYR7       -0.2866
     21  N         -4.6730   -7.5220   25.8880 N.3     9  ASP9       -0.1239
     22  CA        -3.7880   -6.5210   26.4790 C.3     9  ASP9        0.1674
     23  C         -2.8040   -5.9680   25.4390 C.2     9  ASP9        0.2266
     24  O         -2.2000   -6.7370   24.6880 O.2     9  ASP9       -0.2867
     25  CB        -3.0070   -7.1830   27.6160 C.3     9  ASP9        0.1410
     26  CG        -3.8470   -7.5740   28.8230 C.2     9  ASP9        0.3668
     27  OD1       -5.1070   -7.4830   28.7420 O.co2   9  ASP9       -0.2456
     28  OD2       -3.2660   -8.0000   29.8250 O.co2   9  ASP9       -0.2456
     29  N         -0.8420    1.3900   28.2990 N.3    22  PHE22      -0.1241
     30  CA        -1.2480    0.0080   28.5090 C.3    22  PHE22       0.1605
     31  C         -2.7740   -0.0520   28.5830 C.2    22  PHE22       0.2264
     32  O         -3.3890    0.7650   29.2760 O.2    22  PHE22      -0.2867
     33  CB        -0.5800   -0.5920   29.7600 C.3    22  PHE22       0.0534
     34  CG        -0.9530   -2.0210   30.0800 C.ar   22  PHE22      -0.0203
     35  CD1       -0.7250   -3.0410   29.1640 C.ar   22  PHE22      -0.0042
     36  CD2       -1.4700   -2.3600   31.3210 C.ar   22  PHE22      -0.0042
     37  CE1       -1.0830   -4.3620   29.4550 C.ar   22  PHE22      -0.0003
     38  CE2       -1.8000   -3.6850   31.6230 C.ar   22  PHE22      -0.0003
     39  CZ        -1.6340   -4.6730   30.6750 C.ar   22  PHE22      -0.0000
     40  N         -6.1680   -2.9700   28.7190 N.3    24  SER24      -0.1217
     41  CA        -6.5940   -4.3680   28.8760 C.3    24  SER24       0.1889
     42  C         -8.1030   -4.3750   28.6900 C.2    24  SER24       0.2288
     43  O         -8.8020   -3.6780   29.4270 O.2    24  SER24      -0.2866
     44  CB        -6.2260   -4.9200   30.2400 C.3    24  SER24       0.2089
     45  OG        -6.6920   -6.2540   30.3020 O.3    24  SER24      -0.2183
     46  N         -9.6780   -1.4850   30.9970 N.3    36  PHE36      -0.1241
     47  CA        -8.6580   -0.8460   31.8240 C.3    36  PHE36       0.1605
     48  C         -7.6620   -0.1020   30.8800 C.2    36  PHE36       0.2264
     49  O         -7.3060   -0.6070   29.9020 O.2    36  PHE36      -0.2867
     50  CB        -7.9210   -1.8360   32.7150 C.3    36  PHE36       0.0534
     51  CG        -8.8180   -2.6440   33.6210 C.ar   36  PHE36      -0.0203
     52  CD1       -9.0780   -2.2420   34.9030 C.ar   36  PHE36      -0.0042
     53  CD2       -9.4180   -3.7800   33.1830 C.ar   36  PHE36      -0.0042
     54  CE1       -9.9020   -2.9590   35.6860 C.ar   36  PHE36      -0.0003
     55  CE2      -10.2190   -4.4950   33.9930 C.ar   36  PHE36      -0.0003
     56  CZ       -10.4510   -4.0710   35.2410 C.ar   36  PHE36      -0.0000
     57  N        -14.3290   -6.1270   44.2330 N.3    59  TYR59      -0.1241
     58  CA       -13.9960   -6.5920   42.8700 C.3    59  TYR59       0.1605
     59  C        -13.1490   -5.5040   42.1440 C.2    59  TYR59       0.2264
     60  O        -12.0960   -5.8100   41.5840 O.2    59  TYR59      -0.2867
     61  CB       -15.2980   -6.8650   42.0890 C.3    59  TYR59       0.0534
     62  CG       -15.0740   -7.2110   40.6260 C.ar   59  TYR59      -0.0201
     63  CD1      -14.9650   -8.5330   40.2120 C.ar   59  TYR59      -0.0009
     64  CD2      -15.0200   -6.2120   39.6500 C.ar   59  TYR59      -0.0009
     65  CE1      -14.7780   -8.8570   38.8700 C.ar   59  TYR59       0.0417
     66  CE2      -14.8290   -6.5230   38.3050 C.ar   59  TYR59       0.0417
     67  CZ       -14.7290   -7.8480   37.9180 C.ar   59  TYR59       0.1957
     68  OH       -14.5500   -8.1640   36.5890 O.3    59  TYR59      -0.2866
     69  N         -9.5970   -4.7700   43.7020 N.3    62  ARG62      -0.1231
     70  CA        -8.6890   -5.8560   43.3810 C.3    62  ARG62       0.1694
     71  C         -8.2960   -5.8330   41.8840 C.2    62  ARG62       0.2592
     72  O         -7.1000   -5.9280   41.5740 O.2    62  ARG62      -0.2718
     73  CB        -9.2580   -7.2030   43.8110 C.3    62  ARG62       0.0321
     74  CG        -8.3570   -8.4130   43.5280 C.3    62  ARG62       0.0489
     75  CD        -6.9390   -8.3510   44.1010 C.3    62  ARG62       0.2205
     76  NE        -6.2190   -9.5730   43.7410 N.pl3  62  ARG62      -0.0865
     77  CZ        -4.9070   -9.6580   43.5670 C.cat  62  ARG62       0.5346
     78  NH1       -4.1330   -8.5930   43.7510 N.pl3  62  ARG62       0.1354
     79  NH2       -4.3590  -10.8010   43.1830 N.pl3  62  ARG62       0.1354
     80  N         -9.2720   -5.6140   40.9810 N.am   63  ASN63      -0.1974
     81  CA        -8.9560   -5.5540   39.5380 C.3    63  ASN63       0.1688
     82  C         -8.0910   -4.3480   39.1940 C.2    63  ASN63       0.2292
     83  O         -7.1610   -4.4740   38.4050 O.2    63  ASN63      -0.2864
     84  CB       -10.2570   -5.6040   38.6850 C.3    63  ASN63       0.1181
     85  CG       -10.6920   -7.0420   38.4610 C.2    63  ASN63       0.2629
     86  OD1      -10.3320   -7.6750   37.4650 O.2    63  ASN63      -0.2716
     87  ND2      -11.3710   -7.6650   39.4270 N.am   63  ASN63      -0.0877
     88  N         -4.5430   -5.1580   40.3170 N.3    66  ILE66      -0.1231
     89  CA        -3.9110   -6.1080   39.3780 C.3    66  ILE66       0.1692
     90  C         -3.4770   -5.3620   38.1150 C.2    66  ILE66       0.2592
     91  O         -2.3370   -5.5430   37.6530 O.2    66  ILE66      -0.2718
     92  CB        -4.8200   -7.3070   39.0430 C.3    66  ILE66       0.0266
     93  CG1       -5.0180   -8.2000   40.2750 C.3    66  ILE66       0.0019
     94  CG2       -4.2250   -8.1310   37.9010 C.3    66  ILE66       0.0020
     95  CD1       -6.2310   -9.1760   40.1720 C.3    66  ILE66       0.0001
     96  N         -4.3660   -4.5420   37.5670 N.am   67  PHE67      -0.1976
     97  CA        -4.0480   -3.7630   36.3660 C.3    67  PHE67       0.1639
     98  C         -2.8030   -2.8710   36.5610 C.2    67  PHE67       0.2290
     99  O         -1.9610   -2.7960   35.6760 O.2    67  PHE67      -0.2864
    100  CB        -5.2610   -2.9170   35.9410 C.3    67  PHE67       0.0560
    101  CG        -5.0130   -2.1360   34.6880 C.ar   67  PHE67      -0.0200
    102  CD1       -4.8500   -2.7860   33.4630 C.ar   67  PHE67      -0.0042
    103  CD2       -4.9000   -0.7470   34.7230 C.ar   67  PHE67      -0.0042
    104  CE1       -4.6200   -2.0630   32.2990 C.ar   67  PHE67      -0.0003
    105  CE2       -4.6030   -0.0260   33.5560 C.ar   67  PHE67      -0.0003
    106  CZ        -4.4830   -0.6950   32.3500 C.ar   67  PHE67      -0.0000
    107  N         -0.3040   -3.3420   38.6590 N.3    69  THR69      -0.1203
    108  CA         0.8080   -4.2920   38.7370 C.3    69  THR69       0.1994
    109  C          1.2200   -4.7310   37.3200 C.2    69  THR69       0.2617
    110  O          2.4110   -4.6870   36.9750 O.2    69  THR69      -0.2717
    111  CB         0.4340   -5.4900   39.6320 C.3    69  THR69       0.1784
    112  OG1        0.2570   -4.9980   40.9460 O.3    69  THR69      -0.2211
    113  CG2        1.5130   -6.5550   39.6730 C.3    69  THR69       0.0376
    114  N          0.2280   -5.1060   36.5020 N.am   70  ASN70      -0.1974
    115  CA         0.4490   -5.5350   35.1190 C.3    70  ASN70       0.1688
    116  C          1.0430   -4.4020   34.2830 C.2    70  ASN70       0.2292
    117  O          1.8490   -4.6740   33.3940 O.2    70  ASN70      -0.2864
    118  CB        -0.8520   -6.0260   34.5080 C.3    70  ASN70       0.1181
    119  CG        -1.2890   -7.3620   35.0880 C.2    70  ASN70       0.2629
    120  OD1       -0.5780   -7.9810   35.8720 O.2    70  ASN70      -0.2716
    121  ND2       -2.4280   -7.8650   34.6560 N.am   70  ASN70      -0.0877
    122  N          4.7300   -4.3920   35.1320 N.3    73  THR73      -0.1203
    123  CA         5.3890   -5.5640   34.5480 C.3    73  THR73       0.1994
    124  C          5.5730   -5.3920   33.0310 C.2    73  THR73       0.2617
    125  O          6.6570   -5.6590   32.5100 O.2    73  THR73      -0.2717
    126  CB         4.6180   -6.8520   34.9250 C.3    73  THR73       0.1784
    127  OG1        4.5670   -6.9560   36.3550 O.3    73  THR73      -0.2211
    128  CG2        5.2520   -8.1230   34.3300 C.3    73  THR73       0.0376
    129  N          4.5240   -4.9900   32.3300 N.am   74  ASP74      -0.1973
    130  CA         4.5870   -4.8480   30.8680 C.3    74  ASP74       0.1709
    131  C          5.5310   -3.7040   30.4510 C.2    74  ASP74       0.2293
    132  O          6.2360   -3.8430   29.4560 O.2    74  ASP74      -0.2864
    133  CB         3.1940   -4.6820   30.2880 C.3    74  ASP74       0.1436
    134  CG         2.4240   -5.9940   30.1210 C.2    74  ASP74       0.3671
    135  OD1        2.8390   -7.0280   30.7270 O.co2  74  ASP74      -0.2456
    136  OD2        1.4350   -6.0020   29.3670 O.co2  74  ASP74      -0.2456
    137  N         -0.7920   -9.2920   24.5900 N.3    97  SER97      -0.1217
    138  CA        -1.0860  -10.6010   25.1200 C.3    97  SER97       0.1889
    139  C         -2.5440  -10.8570   25.1650 C.2    97  SER97       0.2288
    140  O         -3.3630   -9.9300   25.2250 O.2    97  SER97      -0.2866
    141  CB        -0.3870  -10.9010   26.4440 C.3    97  SER97       0.2089
    142  OG        -1.0330  -10.3340   27.5600 O.3    97  SER97      -0.2183
    143  N         -5.3360  -13.7870   26.8550 N.3    99  TYR99      -0.1241
    144  CA        -5.4560  -14.9430   27.7250 C.3    99  TYR99       0.1605
    145  C         -6.8950  -15.1410   28.1280 C.2    99  TYR99       0.2264
    146  O         -7.7010  -14.2010   28.0530 O.2    99  TYR99      -0.2867
    147  CB        -4.5600  -14.8040   28.9780 C.3    99  TYR99       0.0534
    148  CG        -4.9310  -13.6510   29.8830 C.ar   99  TYR99      -0.0201
    149  CD1       -5.8450  -13.8190   30.9230 C.ar   99  TYR99      -0.0009
    150  CD2       -4.3760  -12.3850   29.6990 C.ar   99  TYR99      -0.0009
    151  CE1       -6.1770  -12.7630   31.7730 C.ar   99  TYR99       0.0417
    152  CE2       -4.6710  -11.3340   30.5730 C.ar   99  TYR99       0.0417
    153  CZ        -5.5530  -11.5370   31.6240 C.ar   99  TYR99       0.1957
    154  OH        -5.9240  -10.4820   32.4440 O.3    99  TYR99      -0.2866
    155  N         -2.9330  -18.4660   26.8630 N.3   114  ASN114     -0.1240
    156  CA        -2.0430  -17.4270   27.3940 C.3   114  ASN114      0.1653
    157  C         -0.9020  -17.2250   26.3820 C.2   114  ASN114      0.2266
    158  O          0.0730  -17.9730   26.3750 O.2   114  ASN114     -0.2867
    159  CB        -1.5440  -17.6350   28.8320 C.3   114  ASN114      0.1155
    160  CG        -0.7330  -16.4190   29.2980 C.2   114  ASN114      0.2627
    161  OD1       -0.9590  -15.2640   28.8680 O.2   114  ASN114     -0.2716
    162  ND2        0.1840  -16.6360   30.2020 N.am  114  ASN114     -0.0877
    163  N          1.5960  -14.3750   23.9020 N.3   116  TYR116     -0.1241
    164  CA         2.1880  -13.0440   23.7980 C.3   116  TYR116      0.1605
    165  C          2.7800  -12.8700   22.4060 C.2   116  TYR116      0.2264
    166  O          3.2540  -13.8530   21.7810 O.2   116  TYR116     -0.2867
    167  CB         3.3490  -12.9060   24.8130 C.3   116  TYR116      0.0534
    168  CG         2.9480  -13.0340   26.2740 C.ar  116  TYR116     -0.0201
    169  CD1        2.8230  -14.2880   26.8760 C.ar  116  TYR116     -0.0009
    170  CD2        2.8710  -11.9120   27.0910 C.ar  116  TYR116     -0.0009
    171  CE1        2.4710  -14.4160   28.2190 C.ar  116  TYR116      0.0417
    172  CE2        2.5450  -12.0250   28.4530 C.ar  116  TYR116      0.0417
    173  CZ         2.3760  -13.2810   29.0150 C.ar  116  TYR116      0.1957
    174  OH         2.1520  -13.4030   30.3650 O.3   116  TYR116     -0.2866
    175  N         -0.0190  -19.5840   35.9380 N.3   156  ASP156     -0.1239
    176  CA        -1.0010  -19.2880   34.8630 C.3   156  ASP156      0.1674
    177  C         -2.0740  -20.3750   34.8110 C.2   156  ASP156      0.2266
    178  O         -3.2600  -20.0480   34.6670 O.2   156  ASP156     -0.2867
    179  CB        -0.3030  -19.1660   33.5080 C.3   156  ASP156      0.1410
    180  CG         0.6470  -17.9790   33.4340 C.2   156  ASP156      0.3668
    181  OD1        0.6010  -17.1180   34.3420 O.co2 156  ASP156     -0.2456
    182  OD2        1.3920  -17.8810   32.4460 O.co2 156  ASP156     -0.2456
    183  N         -4.6380  -19.8510   37.4850 N.3   159  TYR159     -0.1227
    184  CA        -5.5980  -18.8240   37.1090 C.3   159  TYR159      0.1736
    185  C         -6.6130  -19.3870   36.1130 C.2   159  TYR159      0.2595
    186  O         -7.7990  -19.1250   36.2720 O.2   159  TYR159     -0.2718
    187  CB        -4.9040  -17.5800   36.5130 C.3   159  TYR159      0.0548
    188  CG        -5.8710  -16.6440   35.8120 C.ar  159  TYR159     -0.0200
    189  CD1       -6.5780  -15.6730   36.5260 C.ar  159  TYR159     -0.0009
    190  CD2       -6.1090  -16.7560   34.4440 C.ar  159  TYR159     -0.0009
    191  CE1       -7.5130  -14.8490   35.8920 C.ar  159  TYR159      0.0417
    192  CE2       -7.0230  -15.9280   33.7980 C.ar  159  TYR159      0.0417
    193  CZ        -7.7300  -14.9840   34.5280 C.ar  159  TYR159      0.1957
    194  OH        -8.6110  -14.1780   33.8700 O.3   159  TYR159     -0.2866
    195  N         -6.1430  -20.0900   35.0450 N.am  160  LEU160     -0.1980
    196  CA        -6.9900  -20.5620   33.9590 C.3   160  LEU160      0.1596
    197  C         -7.9960  -21.6210   34.3890 C.2   160  LEU160      0.2287
    198  O         -9.1370  -21.5770   33.9530 O.2   160  LEU160     -0.2864
    199  CB        -6.1520  -21.0890   32.7710 C.3   160  LEU160      0.0297
    200  CG        -5.3330  -20.0250   32.0330 C.3   160  LEU160      0.0022
    201  CD1       -4.3350  -20.6580   31.0520 C.3   160  LEU160      0.0001
    202  CD2       -6.2630  -18.9960   31.3320 C.3   160  LEU160      0.0001
    203  N         -9.7220  -19.2350   38.8630 N.3   163  THR163     -0.1218
    204  CA       -10.3030  -17.8800   38.7500 C.3   163  THR163      0.1862
    205  C        -11.0560  -17.6600   37.4410 C.2   163  THR163      0.2287
    206  O        -12.1940  -17.1890   37.4630 O.2   163  THR163     -0.2866
    207  CB        -9.1940  -16.8160   38.8850 C.3   163  THR163      0.1770
    208  OG1       -8.5100  -17.0220   40.1190 O.3   163  THR163     -0.2211
    209  CG2       -9.7310  -15.3750   38.8320 C.3   163  THR163      0.0375
    210  N        -15.0500  -17.1480   37.4930 N.3   167  TRP167     -0.1241
    211  CA       -15.5940  -15.8500   37.1600 C.3   167  TRP167      0.1605
    212  C        -16.4030  -15.8610   35.8900 C.2   167  TRP167      0.2264
    213  O        -17.4650  -15.2360   35.8660 O.2   167  TRP167     -0.2867
    214  CB       -14.5320  -14.7590   37.2420 C.3   167  TRP167      0.0550
    215  CG       -14.2920  -14.4020   38.6820 C.ar  167  TRP167      0.0003
    216  CD1      -13.3960  -14.9750   39.5400 C.ar  167  TRP167      0.0946
    217  CD2      -15.0380  -13.4610   39.4510 C.ar  167  TRP167      0.0152
    218  NE1      -13.4800  -14.3750   40.7790 N.ar  167  TRP167     -0.2442
    219  CE2      -14.5190  -13.4820   40.7660 C.ar  167  TRP167      0.0810
    220  CE3      -16.1020  -12.5940   39.1560 C.ar  167  TRP167      0.0012
    221  CZ2      -15.0290  -12.6590   41.7900 C.ar  167  TRP167      0.0191
    222  CZ3      -16.6050  -11.7780   40.1700 C.ar  167  TRP167      0.0001
    223  CH2      -16.0800  -11.8280   41.4700 C.ar  167  TRP167      0.0015
    224  N        -20.2100  -14.4820   35.5930 N.3   171  TYR171     -0.1241
    225  CA       -20.6710  -13.4720   34.6020 C.3   171  TYR171      0.1605
    226  C        -21.8200  -14.0380   33.7670 C.2   171  TYR171      0.2264
    227  O        -22.7550  -13.3090   33.4740 O.2   171  TYR171     -0.2867
    228  CB       -19.5270  -13.0930   33.6490 C.3   171  TYR171      0.0534
    229  CG       -18.3110  -12.4750   34.3240 C.ar  171  TYR171     -0.0201
    230  CD1      -18.4510  -11.6090   35.4130 C.ar  171  TYR171     -0.0009
    231  CD2      -17.0320  -12.6780   33.8130 C.ar  171  TYR171     -0.0009
    232  CE1      -17.3350  -11.0170   36.0180 C.ar  171  TYR171      0.0417
    233  CE2      -15.9120  -12.0930   34.4110 C.ar  171  TYR171      0.0417
    234  CZ       -16.0650  -11.2710   35.5160 C.ar  171  TYR171      0.1957
    235  OH       -14.9470  -10.6970   36.0910 O.3   171  TYR171     -0.2866
@<TRIPOS>BOND
     1   166   165    2
     2   165   164    1
     3   164   163    1
     4   164   167    1
     5   137   138    1
     6    24    23    2
     7   167   168    1
     8   138   139    1
     9   138   141    1
    10   139   140    2
    11    23    22    1
    12    21    22    1
    13   168   169   ar
    14   168   170   ar
    15   158   157    2
    16   157   156    1
    17   141   142    1
    18    12    11    2
    19    22    25    1
    20    11    10    1
    21   143   144    1
    22   155   156    1
    23   169   171   ar
    24   170   172   ar
    25   156   159    1
    26    25    26    1
    27   144   145    1
    28   144   147    1
    29     9    10    1
    30    10    13    1
    31     4     3    2
    32     1     2    1
    33     3     2    1
    34   146   145    2
    35   171   173   ar
    36    29    30    1
    37   172   173   ar
    38    30    31    1
    39    30    33    1
    40     2     5    1
    41    31    32    2
    42    42    41    1
    43    42    43    2
    44    40    41    1
    45    27    26   ar
    46    26    28   ar
    47   159   160    1
    48   161   160    2
    49    41    44    1
    50   147   148    1
    51   173   174    1
    52    35    37   ar
    53    35    34   ar
    54    13    14    1
    55   160   162   am
    56   136   134   ar
    57    37    39   ar
    58   132   131    2
    59   150   148   ar
    60   150   152   ar
    61    33    34    1
    62   148   149   ar
    63    49    48    2
    64     5     6    1
    65    34    36   ar
    66   134   133    1
    67   134   135   ar
    68    44    45    1
    69   133   130    1
    70    14    16   ar
    71    14    15   ar
    72   131   130    1
    73   152   153   ar
    74     6     7    1
    75    39    38   ar
    76    16    18   ar
    77   130   129    1
    78    48    47    1
    79   149   151   ar
    80    46    47    1
    81   201   200    1
    82    15    17   ar
    83    36    38   ar
    84   202   200    1
    85   153   151   ar
    86   153   154    1
    87    18    19   ar
    88    47    50    1
    89   200   199    1
    90    17    19   ar
    91     7     8    1
    92   104   106   ar
    93   104   102   ar
    94   129   124   am
    95   106   105   ar
    96    19    20    1
    97   182   180   ar
    98   125   124    2
    99    50    51    1
   100   199   196    1
   101   124   123    1
   102    53    51   ar
   103    53    55   ar
   104   117   116    2
   105   180   179    1
   106   180   181   ar
   107   102   101   ar
   108   227   226    2
   109   179   176    1
   110   105   103   ar
   111    51    52   ar
   112   228   229    1
   113   228   225    1
   114   226   225    1
   115   192   190   ar
   116   192   193   ar
   117   231   229   ar
   118   231   233   ar
   119   194   193    1
   120   198   197    2
   121   196   197    1
   122   196   195    1
   123    55    56   ar
   124   116   115    1
   125   229   230   ar
   126   128   126    1
   127   233   234   ar
   128   190   188   ar
   129   118   119    1
   130   118   115    1
   131   193   191   ar
   132   123   126    1
   133   123   122    1
   134   225   224    1
   135   121   119   am
   136   178   177    2
   137   101   103   ar
   138   101   100    1
   139   177   176    1
   140   176   175    1
   141    52    54   ar
   142   126   127    1
   143   195   185   am
   144   119   120    2
   145   115   114    1
   146    56    54   ar
   147   230   232   ar
   148   234   232   ar
   149   234   235    1
   150    99    98    2
   151   188   187    1
   152   188   189   ar
   153   213   212    2
   154   212   211    1
   155   191   189   ar
   156   100    97    1
   157   185   186    2
   158   185   184    1
   159    97    98    1
   160    97    96    1
   161   114   109   am
   162   187   184    1
   163    68    67    1
   164   110   109    2
   165   184   183    1
   166   211   214    1
   167   211   210    1
   168   214   215    1
   169   109   108    1
   170   205   206    2
   171   205   204    1
   172    86    85    2
   173    96    90   am
   174    91    90    2
   175    94    92    1
   176    67    66   ar
   177    67    65   ar
   178    90    89    1
   179    66    64   ar
   180    83    82    2
   181    85    84    1
   182    85    87   am
   183   107   108    1
   184   215   217   ar
   185   215   216   ar
   186    84    81    1
   187   108   111    1
   188   204   203    1
   189   204   207    1
   190   209   207    1
   191    65    63   ar
   192   207   208    1
   193    92    89    1
   194    92    93    1
   195   220   217   ar
   196   220   222   ar
   197    82    81    1
   198    89    88    1
   199   217   219   ar
   200    81    80    1
   201   216   218   ar
   202   111   113    1
   203   111   112    1
   204    64    62   ar
   205   222   223   ar
   206    95    93    1
   207    63    62   ar
   208    62    61    1
   209   219   218   ar
   210   219   221   ar
   211    80    71   am
   212   223   221   ar
   213    72    71    2
   214    60    59    2
   215    71    70    1
   216    61    58    1
   217    59    58    1
   218    58    57    1
   219    79    77    1
   220    70    69    1
   221    70    73    1
   222    74    73    1
   223    74    75    1
   224    77    76    2
   225    77    78    1
   226    76    75    1
