@<TRIPOS>MOLECULE
tmp/3x15B00.pdb
 161 156 0 0 0
SMALL
GASTEIGER

@<TRIPOS>ATOM
      1  N          1.8190  -16.0220   -3.6260 N.3     6  ILE6       -0.1231
      2  CA         3.1030  -16.3000   -3.0140 C.3     6  ILE6        0.1692
      3  C          4.0840  -15.1890   -3.4150 C.2     6  ILE6        0.2592
      4  O          4.8000  -14.6180   -2.5650 O.2     6  ILE6       -0.2718
      5  CB         3.6530  -17.6920   -3.3930 C.3     6  ILE6        0.0266
      6  CG1        2.7690  -18.8020   -2.8000 C.3     6  ILE6        0.0019
      7  CG2        5.0820  -17.8520   -2.9010 C.3     6  ILE6        0.0020
      8  CD1        2.9970  -20.1610   -3.4100 C.3     6  ILE6        0.0001
      9  N          4.1230  -14.8980   -4.7110 N.am    7  PHE7       -0.1976
     10  CA         4.9990  -13.8450   -5.2800 C.3     7  PHE7        0.1639
     11  C          4.7910  -12.4970   -4.5540 C.2     7  PHE7        0.2290
     12  O          5.7620  -11.8000   -4.1640 O.2     7  PHE7       -0.2864
     13  CB         4.7240  -13.7570   -6.8040 C.3     7  PHE7        0.0560
     14  CG         5.5980  -12.7620   -7.5490 C.ar    7  PHE7       -0.0200
     15  CD1        6.7640  -13.1690   -8.1420 C.ar    7  PHE7       -0.0042
     16  CD2        5.1930  -11.4350   -7.7090 C.ar    7  PHE7       -0.0042
     17  CE1        7.5520  -12.2660   -8.8470 C.ar    7  PHE7       -0.0003
     18  CE2        5.9690  -10.5210   -8.3970 C.ar    7  PHE7       -0.0003
     19  CZ         7.1700  -10.9430   -8.9720 C.ar    7  PHE7       -0.0000
     20  N          5.9400  -12.5740   -0.5930 N.3    10  LYS10      -0.1231
     21  CA         7.3770  -12.5910   -0.3450 C.3    10  LYS10       0.1693
     22  C          8.0570  -11.2890   -0.7610 C.2    10  LYS10       0.2593
     23  O          9.2510  -11.1010   -0.5250 O.2    10  LYS10      -0.2718
     24  CB         8.0220  -13.7880   -1.0510 C.3    10  LYS10       0.0285
     25  CG         7.4100  -15.1460   -0.7220 C.3    10  LYS10       0.0035
     26  CD         7.5190  -15.4720    0.7570 C.3    10  LYS10       0.0206
     27  CE         7.0460  -16.8800    1.0480 C.3    10  LYS10       0.1093
     28  NZ         7.2030  -17.1660    2.4940 N.3    10  LYS10      -0.1314
     29  N          7.2930  -10.3630   -1.3310 N.am   11  GLY11      -0.1942
     30  CA         7.8340   -9.0820   -1.7450 C.3    11  GLY11       0.2014
     31  C          8.6110   -9.0920   -3.0690 C.2    11  GLY11       0.2639
     32  O          9.3320   -8.1290   -3.3650 O.2    11  GLY11      -0.2714
     33  N          8.4530  -10.1640   -3.8500 N.am   12  CYS12      -0.1967
     34  CA         9.2240  -10.3830   -5.0970 C.3    12  CYS12       0.1712
     35  C          9.0910   -9.2590   -6.1240 C.2    12  CYS12       0.2296
     36  O         10.0460   -8.9310   -6.8160 O.2    12  CYS12      -0.2864
     37  CB         8.8150  -11.7010   -5.7520 C.3    12  CYS12       0.0983
     38  SG         8.8560  -13.1650   -4.6750 S.3    12  CYS12      -0.0798
     39  N          8.9990   -6.2790   -5.7730 N.3    14  SER14      -0.1202
     40  CA         9.8120   -5.1100   -5.4500 C.3    14  SER14       0.2020
     41  C         10.9500   -4.9320   -6.4350 C.2    14  SER14       0.2619
     42  O         11.3780   -3.7920   -6.6770 O.2    14  SER14      -0.2717
     43  CB        10.3900   -5.2090   -4.0360 C.3    14  SER14       0.2103
     44  OG         9.3430   -5.3810   -3.0820 O.3    14  SER14      -0.2182
     45  N         11.4400   -6.0560   -6.9650 N.am   15  CYS15      -0.1955
     46  CA        12.5430   -6.0400   -7.9240 C.3    15  CYS15       0.1843
     47  C         12.2060   -6.6500   -9.2650 C.2    15  CYS15       0.2625
     48  O         13.0790   -6.7310  -10.1430 O.2    15  CYS15      -0.2714
     49  CB        13.7530   -6.7480   -7.3400 C.3    15  CYS15       0.0997
     50  SG        14.2940   -6.0110   -5.7890 S.3    15  CYS15      -0.0797
     51  N         10.9660   -7.0990   -9.4190 N.am   16  HIS16      -0.1973
     52  CA        10.5070   -7.8160  -10.5940 C.3    16  HIS16       0.1656
     53  C          9.1400   -7.3370  -11.0580 C.2    16  HIS16       0.2291
     54  O          8.1160   -7.9180  -10.6980 O.2    16  HIS16      -0.2864
     55  CB        10.4630   -9.3310  -10.3350 C.3    16  HIS16       0.0771
     56  CG        11.7960   -9.9470  -10.0170 C.ar   16  HIS16       0.0820
     57  ND1       12.8370   -9.9830  -10.9260 N.ar   16  HIS16      -0.2267
     58  CD2       12.2580  -10.5640   -8.8980 C.ar   16  HIS16       0.1154
     59  CE1       13.8770  -10.5870  -10.3760 C.ar   16  HIS16       0.1986
     60  NE2       13.5510  -10.9570   -9.1530 N.ar   16  HIS16      -0.2212
     61  N         15.5060   -3.1430  -10.1830 N.3    23  VAL23      -0.1231
     62  CA        16.6780   -3.7240   -9.5100 C.3    23  VAL23       0.1692
     63  C         16.9690   -5.1030  -10.1270 C.2    23  VAL23       0.2593
     64  O         18.1400   -5.4810  -10.3150 O.2    23  VAL23      -0.2718
     65  CB        16.5150   -3.8010   -7.9910 C.3    23  VAL23       0.0266
     66  CG1       17.4920   -4.7920   -7.3970 C.3    23  VAL23       0.0020
     67  CG2       16.7610   -2.4330   -7.3760 C.3    23  VAL23       0.0020
     68  N         15.8960   -5.8380  -10.4370 N.am   24  GLY24      -0.1943
     69  CA        16.0000   -7.1370  -11.0660 C.3    24  GLY24       0.1998
     70  C         15.3600   -7.1750  -12.4470 C.2    24  GLY24       0.2480
     71  O         14.6670   -6.2060  -12.8510 O.2    24  GLY24      -0.2729
     72  N         15.5700   -8.2900  -13.1790 N.am   25  PRO25      -0.2726
     73  CA        14.9800   -8.3840  -14.5070 C.3    25  PRO25       0.1402
     74  C         13.4790   -8.4610  -14.4740 C.2    25  PRO25       0.2269
     75  O         12.9040   -8.9210  -13.4880 O.2    25  PRO25      -0.2865
     76  CB        15.5560   -9.6920  -15.0550 C.3    25  PRO25       0.0296
     77  CG        15.8880  -10.5060  -13.8360 C.3    25  PRO25       0.0237
     78  CD        16.4200   -9.4610  -12.9010 C.3    25  PRO25       0.0939
     79  N          9.7880   -9.9820  -15.2710 N.3    27  LEU27      -0.1245
     80  CA         9.2890  -11.3480  -15.3300 C.3    27  LEU27       0.1561
     81  C          9.3260  -11.8750  -16.7610 C.2    27  LEU27       0.2260
     82  O          9.6250  -13.0300  -16.9780 O.2    27  LEU27      -0.2867
     83  CB         7.8700  -11.4570  -14.7540 C.3    27  LEU27       0.0270
     84  CG         7.7560  -11.1130  -13.2620 C.3    27  LEU27       0.0019
     85  CD1        6.3170  -11.2000  -12.8090 C.3    27  LEU27       0.0001
     86  CD2        8.6170  -12.0420  -12.4440 C.3    27  LEU27       0.0001
     87  N         12.8390  -12.9690  -17.3800 N.3    30  ILE30      -0.1245
     88  CA        13.1520  -14.2420  -16.7090 C.3    30  ILE30       0.1561
     89  C         12.5170  -15.3890  -17.5150 C.2    30  ILE30       0.2260
     90  O         13.1390  -16.4150  -17.7520 O.2    30  ILE30      -0.2867
     91  CB        12.6350  -14.2790  -15.2600 C.3    30  ILE30       0.0252
     92  CG1       13.3820  -13.2820  -14.3620 C.3    30  ILE30       0.0019
     93  CG2       12.6760  -15.6790  -14.6910 C.3    30  ILE30       0.0019
     94  CD1       12.6810  -12.9390  -13.0620 C.3    30  ILE30       0.0001
     95  N         14.3420  -18.7440  -19.4340 N.3    34  TYR34      -0.1241
     96  CA        13.9820  -20.1210  -19.1460 C.3    34  TYR34       0.1605
     97  C         13.2140  -20.8350  -20.2530 C.2    34  TYR34       0.2264
     98  O         12.8580  -21.9920  -20.0870 O.2    34  TYR34      -0.2867
     99  CB        13.2160  -20.1940  -17.7940 C.3    34  TYR34       0.0534
    100  CG        14.1420  -20.0920  -16.6140 C.ar   34  TYR34      -0.0201
    101  CD1       14.7040  -21.2480  -16.0270 C.ar   34  TYR34      -0.0009
    102  CD2       14.5080  -18.8470  -16.0840 C.ar   34  TYR34      -0.0009
    103  CE1       15.5920  -21.1500  -14.9560 C.ar   34  TYR34       0.0417
    104  CE2       15.3900  -18.7550  -15.0140 C.ar   34  TYR34       0.0417
    105  CZ        15.9110  -19.9170  -14.4330 C.ar   34  TYR34       0.1957
    106  OH        16.8200  -19.8820  -13.3840 O.3    34  TYR34      -0.2866
    107  N         13.4840  -23.7020  -13.7530 N.3    41  LEU41      -0.1245
    108  CA        13.0370  -22.5950  -12.9290 C.3    41  LEU41       0.1561
    109  C         12.6880  -23.0540  -11.5100 C.2    41  LEU41       0.2260
    110  O         13.1620  -22.4710  -10.5270 O.2    41  LEU41      -0.2867
    111  CB        11.8980  -21.8250  -13.5880 C.3    41  LEU41       0.0270
    112  CG        11.4040  -20.5770  -12.8280 C.3    41  LEU41       0.0019
    113  CD1       12.4930  -19.5870  -12.4610 C.3    41  LEU41       0.0001
    114  CD2       10.3410  -19.8680  -13.6090 C.3    41  LEU41       0.0001
    115  N         15.8890  -23.7400   -9.7650 N.3    44  PHE44      -0.1227
    116  CA        16.4970  -22.4990   -9.3050 C.3    44  PHE44       0.1736
    117  C         15.8550  -21.9730   -8.0090 C.2    44  PHE44       0.2595
    118  O         16.5500  -21.6220   -7.0340 O.2    44  PHE44      -0.2718
    119  CB        16.4600  -21.4000  -10.3790 C.3    44  PHE44       0.0547
    120  CG        16.8870  -20.0800   -9.8530 C.ar   44  PHE44      -0.0202
    121  CD1       18.2370  -19.8030   -9.6420 C.ar   44  PHE44      -0.0042
    122  CD2       15.9430  -19.1500   -9.4310 C.ar   44  PHE44      -0.0042
    123  CE1       18.6180  -18.6100   -9.0780 C.ar   44  PHE44      -0.0003
    124  CE2       16.3220  -17.9600   -8.8520 C.ar   44  PHE44      -0.0003
    125  CZ        17.6630  -17.6830   -8.6760 C.ar   44  PHE44      -0.0000
    126  N         14.5280  -21.9510   -7.9980 N.am   45  LEU45      -0.1980
    127  CA        13.7770  -21.4930   -6.8420 C.3    45  LEU45       0.1596
    128  C         14.0880  -22.3180   -5.5920 C.2    45  LEU45       0.2287
    129  O         14.0990  -21.7770   -4.5080 O.2    45  LEU45      -0.2864
    130  CB        12.2780  -21.4690   -7.1270 C.3    45  LEU45       0.0297
    131  CG        11.8620  -20.4720   -8.2230 C.3    45  LEU45       0.0022
    132  CD1       10.4150  -20.6500   -8.6140 C.3    45  LEU45       0.0001
    133  CD2       12.1250  -19.0340   -7.8550 C.3    45  LEU45       0.0001
    134  N         21.8680  -19.6750  -11.0900 N.3    51  ALA51      -0.1231
    135  CA        21.2850  -18.5940  -11.8830 C.3    51  ALA51       0.1694
    136  C         21.8240  -18.6180  -13.3270 C.2    51  ALA51       0.2592
    137  O         23.0270  -18.8540  -13.5420 O.2    51  ALA51      -0.2718
    138  CB        21.6030  -17.2530  -11.2320 C.3    51  ALA51       0.0304
    139  N         20.9530  -18.3410  -14.2930 N.am   52  ILE52      -0.1966
    140  CA        21.3340  -18.3500  -15.7240 C.3    52  ILE52       0.1727
    141  C         21.2510  -16.9860  -16.4180 C.2    52  ILE52       0.2616
    142  O         21.7330  -16.8280  -17.5460 O.2    52  ILE52      -0.2715
    143  CB        20.5370  -19.3980  -16.5570 C.3    52  ILE52       0.0290
    144  CG1       19.0300  -19.1780  -16.4270 C.3    52  ILE52       0.0022
    145  CG2       20.9110  -20.8150  -16.1310 C.3    52  ILE52       0.0023
    146  CD1       18.1790  -19.9450  -17.4180 C.3    52  ILE52       0.0001
    147  N         20.6550  -15.9910  -15.7700 N.am   53  VAL53      -0.1963
    148  CA        20.4810  -14.6890  -16.4430 C.3    53  VAL53       0.1727
    149  C         21.8140  -13.9480  -16.6570 C.2    53  VAL53       0.2616
    150  O         22.1010  -13.5540  -17.7720 O.2    53  VAL53      -0.2715
    151  CB        19.4060  -13.8410  -15.7510 C.3    53  VAL53       0.0290
    152  CG1       19.3430  -12.4080  -16.2970 C.3    53  VAL53       0.0023
    153  CG2       18.0590  -14.5400  -15.8820 C.3    53  VAL53       0.0023
    154  N         22.6220  -13.7600  -15.6110 N.am   54  ASP54      -0.1971
    155  CA        23.9010  -13.0210  -15.7730 C.3    54  ASP54       0.1709
    156  C         24.9660  -13.7460  -16.5960 C.2    54  ASP54       0.2293
    157  O         25.6290  -13.1220  -17.4570 O.2    54  ASP54      -0.2864
    158  CB        24.4410  -12.5490  -14.4030 C.3    54  ASP54       0.1436
    159  CG        23.5000  -11.5790  -13.7310 C.2    54  ASP54       0.3671
    160  OD1       23.9410  -10.7820  -12.9110 O.co2  54  ASP54      -0.2456
    161  OD2       22.3020  -11.6130  -14.0710 O.co2  54  ASP54      -0.2456
@<TRIPOS>BOND
     1    97    98    2
     2    97    96    1
     3    95    96    1
     4    96    99    1
     5    99   100    1
     6   150   149    2
     7    90    89    2
     8   142   141    2
     9    89    88    1
    10   157   156    2
    11   146   144    1
    12    87    88    1
    13    82    81    2
    14    81    80    1
    15    88    91    1
    16   149   148    1
    17   149   154   am
    18   100   102   ar
    19   100   101   ar
    20   156   155    1
    21   143   144    1
    22   143   145    1
    23   143   140    1
    24   148   147    1
    25   148   151    1
    26   141   147   am
    27   141   140    1
    28   152   151    1
    29   102   104   ar
    30   101   103   ar
    31   153   151    1
    32   155   154    1
    33   155   158    1
    34   140   139    1
    35    80    79    1
    36    80    83    1
    37    91    93    1
    38    91    92    1
    39    76    73    1
    40    76    77    1
    41   104   105   ar
    42   103   105   ar
    43    83    84    1
    44    73    74    1
    45    73    72    1
    46    74    75    2
    47   105   106    1
    48   158   159    1
    49    92    94    1
    50   139   136   am
    51   161   159   ar
    52    77    78    1
    53   107   108    1
    54   159   160   ar
    55   114   112    1
    56   111   108    1
    57   111   112    1
    58   137   136    2
    59   136   135    1
    60    84    85    1
    61    84    86    1
    62    72    78    1
    63    72    70   am
    64   108   109    1
    65    71    70    2
    66   112   113    1
    67    70    69    1
    68   135   138    1
    69   135   134    1
    70   109   110    2
    71    69    68    1
    72    53    54    2
    73    53    52    1
    74    57    59   ar
    75    57    56   ar
    76    52    55    1
    77    52    51    1
    78    68    63   am
    79   119   120    1
    80   119   116    1
    81    59    60   ar
    82    55    56    1
    83    64    63    2
    84    61    62    1
    85    48    47    2
    86    63    62    1
    87    56    58   ar
    88   120   121   ar
    89   120   122   ar
    90   115   116    1
    91   121   123   ar
    92    62    65    1
    93   122   124   ar
    94    51    47   am
    95   116   117    1
    96    47    46    1
    97    60    58   ar
    98   123   125   ar
    99    19    17   ar
   100    19    18   ar
   101   124   125   ar
   102    17    15   ar
   103   132   131    1
   104    18    16   ar
   105   131   133    1
   106   131   130    1
   107    15    14   ar
   108   117   126   am
   109   117   118    2
   110   126   127    1
   111    65    66    1
   112    65    67    1
   113    46    49    1
   114    46    45    1
   115    16    14   ar
   116    14    13    1
   117    49    50    1
   118   130   127    1
   119    45    41   am
   120   127   128    1
   121    36    35    2
   122    13    10    1
   123    42    41    2
   124    41    40    1
   125    35    34    1
   126    39    40    1
   127    37    34    1
   128    37    38    1
   129   128   129    2
   130    40    43    1
   131    10     9    1
   132    10    11    1
   133    34    33    1
   134     9     3   am
   135    11    12    2
   136    43    44    1
   137    33    31   am
   138     1     2    1
   139     3     2    1
   140     3     4    2
   141     8     6    1
   142     5     2    1
   143     5     7    1
   144     5     6    1
   145    32    31    2
   146    31    30    1
   147    30    29    1
   148    29    22   am
   149    24    25    1
   150    24    21    1
   151    22    23    2
   152    22    21    1
   153    25    26    1
   154    20    21    1
   155    26    27    1
   156    27    28    1
