@<TRIPOS>MOLECULE
tmp/3x15B01.pdb
 91 84 0 0 0
SMALL
GASTEIGER

@<TRIPOS>ATOM
      1  N         22.6220  -13.7600  -15.6110 N.3    54  ASP54      -0.1239
      2  CA        23.9010  -13.0210  -15.7730 C.3    54  ASP54       0.1674
      3  C         24.9660  -13.7460  -16.5960 C.2    54  ASP54       0.2266
      4  O         25.6290  -13.1220  -17.4570 O.2    54  ASP54      -0.2867
      5  CB        24.4410  -12.5490  -14.4030 C.3    54  ASP54       0.1410
      6  CG        23.5000  -11.5790  -13.7310 C.2    54  ASP54       0.3668
      7  OD1       23.9410  -10.7820  -12.9110 O.co2  54  ASP54      -0.2456
      8  OD2       22.3020  -11.6130  -14.0710 O.co2  54  ASP54      -0.2456
      9  N         24.3550  -12.9740  -20.1990 N.3    57  LYS57      -0.1231
     10  CA        24.7170  -11.6040  -20.5790 C.3    57  LYS57       0.1693
     11  C         26.2180  -11.4530  -20.8030 C.2    57  LYS57       0.2591
     12  O         26.6810  -10.8440  -21.7910 O.2    57  LYS57      -0.2718
     13  CB        24.2740  -10.6180  -19.5010 C.3    57  LYS57       0.0285
     14  CG        22.7690  -10.4830  -19.3810 C.3    57  LYS57       0.0035
     15  CD        22.3870   -9.2530  -18.5800 C.3    57  LYS57       0.0206
     16  CE        22.8860   -9.3530  -17.1510 C.3    57  LYS57       0.1093
     17  NZ        22.3110   -8.2550  -16.3360 N.3    57  LYS57      -0.1314
     18  N         26.9870  -12.0030  -19.8730 N.am   58  GLU58      -0.1979
     19  CA        28.4480  -11.9720  -19.9900 C.3    58  GLU58       0.1602
     20  C         28.8450  -12.6830  -21.3030 C.2    58  GLU58       0.2287
     21  O         29.7150  -12.2080  -22.0480 O.2    58  GLU58      -0.2864
     22  CB        29.1180  -12.6150  -18.7750 C.3    58  GLU58       0.0415
     23  CG        30.6370  -12.5190  -18.7990 C.3    58  GLU58       0.1163
     24  CD        31.2810  -13.1100  -17.5660 C.2    58  GLU58       0.3649
     25  OE1       30.5600  -13.4080  -16.5890 O.co2  58  GLU58      -0.2457
     26  OE2       32.5130  -13.2780  -17.5800 O.co2  58  GLU58      -0.2457
     27  N         27.2620  -13.0310  -24.0680 N.3    60  ILE60      -0.1231
     28  CA        26.9520  -12.2640  -25.2840 C.3    60  ILE60       0.1692
     29  C         28.0120  -11.1940  -25.5590 C.2    60  ILE60       0.2591
     30  O         28.4000  -10.9940  -26.7110 O.2    60  ILE60      -0.2718
     31  CB        25.5490  -11.6550  -25.2460 C.3    60  ILE60       0.0266
     32  CG1       24.5210  -12.7460  -25.4250 C.3    60  ILE60       0.0019
     33  CG2       25.3490  -10.6220  -26.3520 C.3    60  ILE60       0.0020
     34  CD1       23.1500  -12.3070  -24.9960 C.3    60  ILE60       0.0001
     35  N         28.4910  -10.5210  -24.5120 N.am   61  MET61      -0.1979
     36  CA        29.4320   -9.4190  -24.7200 C.3    61  MET61       0.1605
     37  C         30.8350   -9.9310  -25.0300 C.2    61  MET61       0.2287
     38  O         31.6120   -9.2680  -25.7000 O.2    61  MET61      -0.2864
     39  CB        29.4480   -8.4550  -23.5280 C.3    61  MET61       0.0413
     40  CG        30.3830   -7.2650  -23.6910 C.3    61  MET61       0.0598
     41  SD        30.1560   -6.3260  -25.2140 S.3    61  MET61      -0.1393
     42  CE        31.8090   -5.6140  -25.3070 C.3    61  MET61       0.0692
     43  N         32.3250   -9.8010  -28.5770 N.3    64  GLN64      -0.1231
     44  CA        32.4280   -8.4570  -29.1330 C.3    64  GLN64       0.1698
     45  C         33.8230   -7.8780  -28.8750 C.2    64  GLN64       0.2592
     46  O         34.3540   -7.1150  -29.6930 O.2    64  GLN64      -0.2718
     47  CB        31.3430   -7.5340  -28.5960 C.3    64  GLN64       0.0381
     48  CG        29.9590   -8.1710  -28.4820 C.3    64  GLN64       0.0905
     49  CD        29.4860   -8.9300  -29.7340 C.2    64  GLN64       0.2608
     50  OE1       29.7870   -8.5480  -30.8650 O.2    64  GLN64      -0.2717
     51  NE2       28.7320  -10.0140  -29.5250 N.am   64  GLN64      -0.0878
     52  N         34.4240   -8.2720  -27.7560 N.am   65  LEU65      -0.1980
     53  CA        35.7790   -7.8530  -27.4550 C.3    65  LEU65       0.1596
     54  C         36.8140   -8.3980  -28.4810 C.2    65  LEU65       0.2287
     55  O         37.8460   -7.7940  -28.6630 O.2    65  LEU65      -0.2864
     56  CB        36.1510   -8.1760  -25.9990 C.3    65  LEU65       0.0297
     57  CG        35.3030   -7.5180  -24.8710 C.3    65  LEU65       0.0022
     58  CD1       35.7790   -7.9480  -23.4910 C.3    65  LEU65       0.0001
     59  CD2       35.2700   -5.9980  -24.9630 C.3    65  LEU65       0.0001
     60  N         36.6160   -8.2680  -31.6550 N.3    67  MET67      -0.1230
     61  CA        36.6740   -7.2710  -32.7220 C.3    67  MET67       0.1702
     62  C         37.5440   -6.0740  -32.4170 C.2    67  MET67       0.2592
     63  O         37.8150   -5.2530  -33.3190 O.2    67  MET67      -0.2718
     64  CB        35.2750   -6.7510  -33.0430 C.3    67  MET67       0.0401
     65  CG        34.3860   -7.7390  -33.7340 C.3    67  MET67       0.0596
     66  SD        32.8350   -6.8700  -33.9630 S.3    67  MET67      -0.1393
     67  CE        31.6570   -8.1490  -33.5690 C.3    67  MET67       0.0692
     68  N         37.9740   -5.9600  -31.1600 N.am   68  LEU68      -0.1980
     69  CA        38.7750   -4.8360  -30.7190 C.3    68  LEU68       0.1596
     70  C         40.2350   -5.2170  -30.4960 C.2    68  LEU68       0.2287
     71  O         41.0490   -4.3560  -30.1940 O.2    68  LEU68      -0.2864
     72  CB        38.1900   -4.2470  -29.4360 C.3    68  LEU68       0.0297
     73  CG        36.6930   -3.9210  -29.4980 C.3    68  LEU68       0.0022
     74  CD1       36.2070   -3.3080  -28.1880 C.3    68  LEU68       0.0001
     75  CD2       36.3730   -3.0040  -30.6750 C.3    68  LEU68       0.0001
     76  N         37.7680    5.1000  -28.9540 N.3    79  LEU79      -0.1245
     77  CA        36.5560    4.3290  -28.7100 C.3    79  LEU79       0.1561
     78  C         36.1140    4.5700  -27.2650 C.2    79  LEU79       0.2260
     79  O         34.9410    4.8600  -27.0130 O.2    79  LEU79      -0.2867
     80  CB        36.7850    2.8460  -28.9820 C.3    79  LEU79       0.0270
     81  CG        35.6320    1.8780  -28.6750 C.3    79  LEU79       0.0019
     82  CD1       34.3160    2.3480  -29.2710 C.3    79  LEU79       0.0001
     83  CD2       35.9560    0.4660  -29.1270 C.3    79  LEU79       0.0001
     84  N         32.8820    6.4660  -25.7180 N.3    83  ILE83      -0.1245
     85  CA        32.0010    5.8870  -24.7110 C.3    83  ILE83       0.1561
     86  C         31.9020    6.8540  -23.5300 C.2    83  ILE83       0.2260
     87  O         30.8000    7.2950  -23.2060 O.2    83  ILE83      -0.2867
     88  CB        32.4390    4.4860  -24.2590 C.3    83  ILE83       0.0252
     89  CG1       32.2270    3.4930  -25.4090 C.3    83  ILE83       0.0019
     90  CG2       31.6420    4.0460  -23.0390 C.3    83  ILE83       0.0019
     91  CD1       32.9250    2.1610  -25.2340 C.3    83  ILE83       0.0001
@<TRIPOS>BOND
     1    66    65    1
     2    66    67    1
     3    65    64    1
     4    63    62    2
     5    64    61    1
     6    61    62    1
     7    61    60    1
     8    62    68   am
     9    68    69    1
    10    50    49    2
    11    69    70    1
    12    69    72    1
    13    75    73    1
    14    70    71    2
    15    49    51   am
    16    49    48    1
    17    46    45    2
    18    73    72    1
    19    73    74    1
    20    82    81    1
    21    44    45    1
    22    44    47    1
    23    44    43    1
    24    83    81    1
    25    80    77    1
    26    80    81    1
    27    76    77    1
    28    45    52   am
    29    77    78    1
    30    55    54    2
    31    47    48    1
    32    54    53    1
    33    52    53    1
    34    53    56    1
    35    78    79    2
    36    30    29    2
    37    33    31    1
    38    56    57    1
    39    84    85    1
    40    38    37    2
    41    29    28    1
    42    29    35   am
    43    32    31    1
    44    32    34    1
    45    89    91    1
    46    89    88    1
    47    42    41    1
    48    28    31    1
    49    28    27    1
    50    41    40    1
    51    37    36    1
    52    59    57    1
    53    57    58    1
    54    36    35    1
    55    36    39    1
    56    85    88    1
    57    85    86    1
    58    88    90    1
    59    40    39    1
    60    86    87    2
    61    21    20    2
    62    12    11    2
    63    20    19    1
    64    11    10    1
    65    11    18   am
    66    10     9    1
    67    10    13    1
    68    19    18    1
    69    19    22    1
    70    13    14    1
    71    14    15    1
    72    23    22    1
    73    23    24    1
    74    15    16    1
    75    26    24   ar
    76    24    25   ar
    77     4     3    2
    78    16    17    1
    79     3     2    1
    80     2     1    1
    81     2     5    1
    82     5     6    1
    83     8     6   ar
    84     6     7   ar
