@<TRIPOS>MOLECULE
tmp/3x15A00.pdb
 153 148 0 0 0
SMALL
GASTEIGER

@<TRIPOS>ATOM
      1  N         24.0690    1.3240   -0.7140 N.3     7  PHE7       -0.1241
      2  CA        22.6090    1.1720   -0.6940 C.3     7  PHE7        0.1605
      3  C         22.0540    0.8070   -2.0930 C.2     7  PHE7        0.2264
      4  O         21.3030   -0.1760   -2.2400 O.2     7  PHE7       -0.2867
      5  CB        22.0150    2.4770   -0.1820 C.3     7  PHE7        0.0534
      6  CG        20.5010    2.4480    0.0010 C.ar    7  PHE7       -0.0203
      7  CD1       19.9370    2.0620    1.2220 C.ar    7  PHE7       -0.0042
      8  CD2       19.6510    2.8210   -1.0350 C.ar    7  PHE7       -0.0042
      9  CE1       18.5530    2.0670    1.3910 C.ar    7  PHE7       -0.0003
     10  CE2       18.2720    2.8140   -0.8760 C.ar    7  PHE7       -0.0003
     11  CZ        17.7230    2.4350    0.3450 C.ar    7  PHE7       -0.0000
     12  N         23.2290   -2.7810   -3.5630 N.3    10  LYS10      -0.1231
     13  CA        22.6550   -3.9670   -2.9360 C.3    10  LYS10       0.1693
     14  C         21.1280   -4.0960   -3.0970 C.2    10  LYS10       0.2593
     15  O         20.5090   -5.0120   -2.5420 O.2    10  LYS10      -0.2718
     16  CB        23.0830   -4.0420   -1.4790 C.3    10  LYS10       0.0285
     17  CG        24.5980   -4.3020   -1.3830 C.3    10  LYS10       0.0035
     18  CD        25.1730   -4.3020   -0.0020 C.3    10  LYS10       0.0206
     19  CE        26.6840   -4.4720   -0.1070 C.3    10  LYS10       0.1093
     20  NZ        27.0990   -5.8290   -0.5590 N.3    10  LYS10      -0.1314
     21  N         20.5290   -3.1900   -3.8640 N.am   11  GLY11      -0.1942
     22  CA        19.0970   -3.2500   -4.2050 C.3    11  GLY11       0.2014
     23  C         18.1480   -2.7580   -3.1300 C.2    11  GLY11       0.2639
     24  O         16.9400   -2.9870   -3.2300 O.2    11  GLY11      -0.2714
     25  N         18.6800   -2.0670   -2.1220 N.am   12  CYS12      -0.1967
     26  CA        17.8930   -1.6930   -0.9140 C.3    12  CYS12       0.1712
     27  C         16.7490   -0.7570   -1.2160 C.2    12  CYS12       0.2296
     28  O         15.7060   -0.7680   -0.5180 O.2    12  CYS12      -0.2864
     29  CB        18.7930   -1.0060    0.0980 C.3    12  CYS12       0.0983
     30  SG        20.2570   -1.9520    0.5820 S.3    12  CYS12      -0.0798
     31  N         14.6390   -0.8470   -3.4300 N.3    14  SER14      -0.1202
     32  CA        13.4550   -1.5520   -3.9410 C.3    14  SER14       0.2020
     33  C         12.3340   -1.5660   -2.9080 C.2    14  SER14       0.2619
     34  O         11.1540   -1.6040   -3.2590 O.2    14  SER14      -0.2717
     35  CB        13.8100   -2.9860   -4.3610 C.3    14  SER14       0.2103
     36  OG        14.3330   -3.8040   -3.3060 O.3    14  SER14      -0.2182
     37  N         12.6960   -1.5940   -1.6400 N.am   15  CYS15      -0.1955
     38  CA        11.6780   -1.6110   -0.5520 C.3    15  CYS15       0.1843
     39  C         11.7720   -0.4240    0.3940 C.2    15  CYS15       0.2625
     40  O         11.0800   -0.3800    1.4300 O.2    15  CYS15      -0.2714
     41  CB        11.8400   -2.8770    0.2550 C.3    15  CYS15       0.0997
     42  SG        11.5920   -4.3990   -0.6720 S.3    15  CYS15      -0.0797
     43  N         12.6510    0.5150    0.0610 N.am   16  HIS16      -0.1973
     44  CA        12.9760    1.6380    0.9140 C.3    16  HIS16       0.1656
     45  C         13.1580    2.8870    0.0730 C.2    16  HIS16       0.2291
     46  O         14.2740    3.3360   -0.1700 O.2    16  HIS16      -0.2864
     47  CB        14.2260    1.3520    1.7250 C.3    16  HIS16       0.0771
     48  CG        14.0810    0.2270    2.6960 C.ar   16  HIS16       0.0820
     49  ND1       13.1810    0.2610    3.7470 N.ar   16  HIS16      -0.2267
     50  CD2       14.7030   -0.9710    2.7740 C.ar   16  HIS16       0.1154
     51  CE1       13.2910   -0.8430    4.4490 C.ar   16  HIS16       0.1986
     52  NE2       14.2010   -1.6120    3.8840 N.ar   16  HIS16      -0.2212
     53  N          7.0780   -2.2040    0.3490 N.3    23  VAL23      -0.1231
     54  CA         7.1600   -3.4360    1.1210 C.3    23  VAL23       0.1692
     55  C          7.8450   -3.1450    2.4590 C.2    23  VAL23       0.2593
     56  O          7.4940   -3.7470    3.4920 O.2    23  VAL23      -0.2718
     57  CB         7.8600   -4.5780    0.3410 C.3    23  VAL23       0.0266
     58  CG1        8.2420   -5.7250    1.2680 C.3    23  VAL23       0.0020
     59  CG2        6.9460   -5.0800   -0.7910 C.3    23  VAL23       0.0020
     60  N          8.8030   -2.2110    2.4450 N.am   24  GLY24      -0.1943
     61  CA         9.4320   -1.7320    3.6660 C.3    24  GLY24       0.1998
     62  C          9.1750   -0.2670    3.9720 C.2    24  GLY24       0.2480
     63  O          8.7060    0.4860    3.1290 O.2    24  GLY24      -0.2729
     64  N          9.5230    0.1620    5.1890 N.am   25  PRO25      -0.2726
     65  CA         9.3390    1.5450    5.5940 C.3    25  PRO25       0.1402
     66  C         10.1670    2.5230    4.7590 C.2    25  PRO25       0.2269
     67  O         11.2560    2.1660    4.2810 O.2    25  PRO25      -0.2865
     68  CB         9.8210    1.5550    7.0410 C.3    25  PRO25       0.0296
     69  CG        10.6830    0.3540    7.1950 C.3    25  PRO25       0.0237
     70  CD        10.1550   -0.6570    6.2360 C.3    25  PRO25       0.0939
     71  N         12.7530    5.6320    3.9480 N.3    27  LEU27      -0.1245
     72  CA        13.9980    6.0400    4.5620 C.3    27  LEU27       0.1561
     73  C         13.7410    7.1710    5.5670 C.2    27  LEU27       0.2260
     74  O         14.3750    7.2010    6.6040 O.2    27  LEU27      -0.2867
     75  CB        15.0480    6.4650    3.5120 C.3    27  LEU27       0.0270
     76  CG        15.5410    5.3510    2.5950 C.3    27  LEU27       0.0019
     77  CD1       16.3890    5.9800    1.4900 C.3    27  LEU27       0.0001
     78  CD2       16.3280    4.2760    3.3320 C.3    27  LEU27       0.0001
     79  N         12.5340    5.4450    8.7360 N.3    30  ILE30      -0.1245
     80  CA        13.6320    4.7560    9.4020 C.3    30  ILE30       0.1561
     81  C         14.5170    5.7910   10.0940 C.2    30  ILE30       0.2260
     82  O         14.8700    5.6180   11.2650 O.2    30  ILE30      -0.2867
     83  CB        14.4750    3.9140    8.4300 C.3    30  ILE30       0.0252
     84  CG1       13.6670    2.7550    7.8540 C.3    30  ILE30       0.0019
     85  CG2       15.7100    3.3620    9.1230 C.3    30  ILE30       0.0019
     86  CD1       14.3010    2.1360    6.6180 C.3    30  ILE30       0.0001
     87  N         15.4800    6.2620   14.1930 N.3    34  TYR34      -0.1241
     88  CA        16.8640    6.1190   14.6640 C.3    34  TYR34       0.1605
     89  C         17.5470    7.4500   14.9440 C.2    34  TYR34       0.2264
     90  O         18.7600    7.4700   15.1990 O.2    34  TYR34      -0.2867
     91  CB        17.6900    5.3160   13.6570 C.3    34  TYR34       0.0534
     92  CG        17.4520    3.8250   13.6970 C.ar   34  TYR34      -0.0201
     93  CD1       18.1620    3.0200   14.5880 C.ar   34  TYR34      -0.0009
     94  CD2       16.5360    3.2070   12.8300 C.ar   34  TYR34      -0.0009
     95  CE1       17.9560    1.6520   14.6320 C.ar   34  TYR34       0.0417
     96  CE2       16.3290    1.8370   12.8640 C.ar   34  TYR34       0.0417
     97  CZ        17.0490    1.0650   13.7610 C.ar   34  TYR34       0.1957
     98  OH        16.9000   -0.2900   13.8090 O.3    34  TYR34      -0.2866
     99  N         21.3880    1.7880   14.8330 N.3    41  LEU41      -0.1245
    100  CA        21.1770    1.5410   13.4070 C.3    41  LEU41       0.1561
    101  C         22.2840    0.6570   12.9110 C.2    41  LEU41       0.2260
    102  O         22.0220   -0.3020   12.2080 O.2    41  LEU41      -0.2867
    103  CB        21.1050    2.8340   12.5830 C.3    41  LEU41       0.0270
    104  CG        20.8350    2.7170   11.0800 C.3    41  LEU41       0.0019
    105  CD1       19.6540    1.8150   10.7280 C.3    41  LEU41       0.0001
    106  CD2       20.6500    4.1130   10.4980 C.3    41  LEU41       0.0001
    107  N         21.7210   -2.8260   14.1050 N.3    44  PHE44      -0.1227
    108  CA        20.6600   -3.4510   13.3100 C.3    44  PHE44       0.1736
    109  C         21.1750   -3.9730   11.9670 C.2    44  PHE44       0.2595
    110  O         20.8830   -5.0960   11.5570 O.2    44  PHE44      -0.2718
    111  CB        19.4880   -2.5050   13.0100 C.3    44  PHE44       0.0547
    112  CG        18.4620   -3.1450   12.1290 C.ar   44  PHE44      -0.0202
    113  CD1       17.5620   -4.0550   12.6620 C.ar   44  PHE44      -0.0042
    114  CD2       18.4860   -2.9490   10.7430 C.ar   44  PHE44      -0.0042
    115  CE1       16.6660   -4.7210   11.8480 C.ar   44  PHE44      -0.0003
    116  CE2       17.5930   -3.6010    9.9240 C.ar   44  PHE44      -0.0003
    117  CZ        16.6790   -4.4890   10.4740 C.ar   44  PHE44      -0.0000
    118  N         21.9190   -3.1250   11.2800 N.am   45  LEU45      -0.1980
    119  CA        22.5370   -3.4900   10.0030 C.3    45  LEU45       0.1596
    120  C         23.4560   -4.7090   10.1250 C.2    45  LEU45       0.2287
    121  O         23.5900   -5.4780    9.1670 O.2    45  LEU45      -0.2864
    122  CB        23.2890   -2.2820    9.3900 C.3    45  LEU45       0.0297
    123  CG        22.3500   -1.1110    9.0020 C.3    45  LEU45       0.0022
    124  CD1       23.1510    0.1280    8.6400 C.3    45  LEU45       0.0001
    125  CD2       21.3790   -1.4480    7.8680 C.3    45  LEU45       0.0001
    126  N         14.2350   -5.1320   14.9630 N.3    51  ALA51      -0.1231
    127  CA        13.6250   -3.9720   14.3140 C.3    51  ALA51       0.1694
    128  C         12.8750   -3.0910   15.3150 C.2    51  ALA51       0.2592
    129  O         12.2550   -3.6120   16.2480 O.2    51  ALA51      -0.2718
    130  CB        12.6800   -4.4190   13.2130 C.3    51  ALA51       0.0304
    131  N         12.9510   -1.7720   15.1170 N.am   52  ILE52      -0.1966
    132  CA        12.2830   -0.7960   15.9670 C.3    52  ILE52       0.1727
    133  C         11.2650    0.0990   15.2490 C.2    52  ILE52       0.2616
    134  O         10.4890    0.7740   15.9160 O.2    52  ILE52      -0.2715
    135  CB        13.2870    0.0980   16.7660 C.3    52  ILE52       0.0290
    136  CG1       14.2070    0.9180   15.8560 C.3    52  ILE52       0.0022
    137  CG2       14.0960   -0.7630   17.7250 C.3    52  ILE52       0.0023
    138  CD1       14.9230    2.0500   16.5830 C.3    52  ILE52       0.0001
    139  N         11.2600    0.1360   13.9100 N.am   53  VAL53      -0.1963
    140  CA        10.4350    1.1180   13.1950 C.3    53  VAL53       0.1727
    141  C          8.9690    0.7740   13.3870 C.2    53  VAL53       0.2616
    142  O          8.1700    1.6270   13.7910 O.2    53  VAL53      -0.2715
    143  CB        10.8140    1.2310   11.7080 C.3    53  VAL53       0.0290
    144  CG1        9.7990    2.0640   10.9360 C.3    53  VAL53       0.0023
    145  CG2       12.1780    1.8810   11.6110 C.3    53  VAL53       0.0023
    146  N          8.6450   -0.4840   13.1010 N.am   54  ASP54      -0.1971
    147  CA         7.3220   -1.0650   13.3640 C.3    54  ASP54       0.1709
    148  C          7.5510   -2.3480   14.1610 C.2    54  ASP54       0.2293
    149  O          7.6060   -3.4240   13.5730 O.2    54  ASP54      -0.2864
    150  CB         6.6080   -1.3650   12.0250 C.3    54  ASP54       0.1436
    151  CG         5.6040   -2.5260   12.1140 C.2    54  ASP54       0.3671
    152  OD1        4.9250   -2.6590   13.1530 O.co2  54  ASP54      -0.2456
    153  OD2        5.4970   -3.3090   11.1380 O.co2  54  ASP54      -0.2456
@<TRIPOS>BOND
     1    35    32    1
     2    35    36    1
     3    22    21    1
     4    22    23    1
     5    32    31    1
     6    32    33    1
     7    21    14   am
     8    12    13    1
     9    34    33    2
    10    24    23    2
    11    23    25   am
    12    14    13    1
    13    14    15    2
    14    13    16    1
    15    33    37   am
    16     4     3    2
    17    25    26    1
    18     3     2    1
    19    37    38    1
    20    16    17    1
    21    17    18    1
    22    27    26    1
    23    27    28    2
    24     8    10   ar
    25     8     6   ar
    26    26    29    1
    27    10    11   ar
    28    59    57    1
    29     1     2    1
    30     2     5    1
    31    42    41    1
    32    20    19    1
    33    38    41    1
    34    38    39    1
    35     5     6    1
    36    46    45    2
    37    19    18    1
    38     6     7   ar
    39    43    39   am
    40    43    44    1
    41    45    44    1
    42    29    30    1
    43    57    54    1
    44    57    58    1
    45    11     9   ar
    46    53    54    1
    47    39    40    2
    48    44    47    1
    49    54    55    1
    50     7     9   ar
    51    77    76    1
    52    47    48    1
    53    60    55   am
    54    60    61    1
    55    55    56    2
    56    76    78    1
    57    76    75    1
    58    48    50   ar
    59    48    49   ar
    60    50    52   ar
    61    63    62    2
    62    75    72    1
    63    61    62    1
    64    49    51   ar
    65    52    51   ar
    66    71    72    1
    67    62    64   am
    68    67    66    2
    69    72    73    1
    70    66    65    1
    71    64    65    1
    72    64    70    1
    73    73    74    2
    74    65    68    1
    75    70    69    1
    76    86    84    1
    77    68    69    1
    78    84    83    1
    79   125   123    1
    80    83    85    1
    81    83    80    1
    82   124   123    1
    83    79    80    1
    84   123   122    1
    85   121   120    2
    86   122   119    1
    87    80    81    1
    88   116   117   ar
    89   116   114   ar
    90   119   120    1
    91   119   118    1
    92    81    82    2
    93   117   115   ar
    94   106   104    1
    95   105   104    1
    96   114   112   ar
    97   144   143    1
    98   104   103    1
    99   153   151   ar
   100   118   109   am
   101   110   109    2
   102   145   143    1
   103   143   140    1
   104   115   113   ar
   105   109   108    1
   106   150   151    1
   107   150   147    1
   108   151   152   ar
   109   112   113   ar
   110   112   111    1
   111   102   101    2
   112   103   100    1
   113    94    96   ar
   114    94    92   ar
   115    96    97   ar
   116   101   100    1
   117   111   108    1
   118   146   147    1
   119   146   141   am
   120   140   141    1
   121   140   139    1
   122   130   127    1
   123   108   107    1
   124   147   148    1
   125   141   142    2
   126   100    99    1
   127   149   148    2
   128    91    92    1
   129    91    88    1
   130    92    93   ar
   131    97    98    1
   132    97    95   ar
   133   139   133   am
   134    87    88    1
   135   127   126    1
   136   127   128    1
   137    93    95   ar
   138    88    89    1
   139    89    90    2
   140   131   128   am
   141   131   132    1
   142   133   134    2
   143   133   132    1
   144   128   129    2
   145   136   138    1
   146   136   135    1
   147   132   135    1
   148   135   137    1
