@<TRIPOS>MOLECULE
tmp/3x1bB00.pdb
 98 93 0 0 0
SMALL
GASTEIGER

@<TRIPOS>ATOM
      1  N         64.3700   65.3830   70.6980 N.3    20  TYR20      -0.1241
      2  CA        65.3340   65.7730   71.7270 C.3    20  TYR20       0.1605
      3  C         65.2930   67.3020   71.8400 C.2    20  TYR20       0.2264
      4  O         65.3750   67.9980   70.8220 O.2    20  TYR20      -0.2867
      5  CB        66.7410   65.3180   71.3100 C.3    20  TYR20       0.0534
      6  CG        67.8600   65.7960   72.2200 C.ar   20  TYR20      -0.0201
      7  CD1       68.0860   65.1820   73.4530 C.ar   20  TYR20      -0.0009
      8  CD2       68.6730   66.8750   71.8590 C.ar   20  TYR20      -0.0009
      9  CE1       69.0930   65.6320   74.3060 C.ar   20  TYR20       0.0417
     10  CE2       69.6900   67.3330   72.7040 C.ar   20  TYR20       0.0417
     11  CZ        69.8890   66.6970   73.9200 C.ar   20  TYR20       0.1957
     12  OH        70.8710   67.1220   74.7730 O.3    20  TYR20      -0.2866
     13  N         66.5920   71.0060   72.5070 N.3    22  ARG22      -0.1231
     14  CA        67.7730   71.8680   72.6210 C.3    22  ARG22       0.1694
     15  C         67.4530   73.3040   72.2210 C.2    22  ARG22       0.2592
     16  O         66.4600   73.5830   71.5360 O.2    22  ARG22      -0.2718
     17  CB        68.9710   71.3550   71.7890 C.3    22  ARG22       0.0321
     18  CG        68.6710   71.2400   70.2810 C.3    22  ARG22       0.0489
     19  CD        69.9210   71.3910   69.3770 C.3    22  ARG22       0.2205
     20  NE        70.4340   72.7590   69.3040 N.pl3  22  ARG22      -0.0865
     21  CZ        71.4310   73.1810   68.5250 C.cat  22  ARG22       0.5346
     22  NH1       72.1010   72.3460   67.7230 N.pl3  22  ARG22       0.1354
     23  NH2       71.7850   74.4650   68.5750 N.pl3  22  ARG22       0.1354
     24  N         68.3070   74.2160   72.6630 N.am   23  ASP23      -0.1974
     25  CA        68.1660   75.6370   72.3530 C.3    23  ASP23       0.1709
     26  C         68.6260   75.8690   70.9250 C.2    23  ASP23       0.2293
     27  O         69.6180   75.2800   70.4970 O.2    23  ASP23      -0.2864
     28  CB        69.0350   76.4270   73.3300 C.3    23  ASP23       0.1436
     29  CG        68.5420   76.2750   74.7470 C.2    23  ASP23       0.3671
     30  OD1       67.3310   76.5070   74.9740 O.co2  23  ASP23      -0.2456
     31  OD2       69.3470   75.8680   75.6100 O.co2  23  ASP23      -0.2456
     32  N         71.1870   84.8350   73.1120 N.3    54  ASN54      -0.1240
     33  CA        72.1400   83.8000   73.4970 C.3    54  ASN54       0.1653
     34  C         73.4660   83.9220   72.7540 C.2    54  ASN54       0.2266
     35  O         73.5520   83.5960   71.5710 O.2    54  ASN54      -0.2867
     36  CB        71.5080   82.4140   73.3000 C.3    54  ASN54       0.1155
     37  CG        72.3800   81.2860   73.8440 C.2    54  ASN54       0.2627
     38  OD1       73.6080   81.3470   73.7860 O.2    54  ASN54      -0.2716
     39  ND2       71.7440   80.2520   74.3800 N.am   54  ASN54      -0.0877
     40  N         76.1590   82.2070   72.8200 N.3    56  THR56      -0.1203
     41  CA        76.7340   80.9380   72.3780 C.3    56  THR56       0.1994
     42  C         76.3200   80.5730   70.9540 C.2    56  THR56       0.2617
     43  O         77.0310   79.8550   70.2610 O.2    56  THR56      -0.2717
     44  CB        76.3140   79.8330   73.3540 C.3    56  THR56       0.1784
     45  OG1       76.7690   80.2290   74.6540 O.3    56  THR56      -0.2211
     46  CG2       76.9360   78.4940   72.9820 C.3    56  THR56       0.0376
     47  N         75.1680   81.0710   70.5110 N.am   57  MET57      -0.1979
     48  CA        74.7270   80.8510   69.1390 C.3    57  MET57       0.1605
     49  C         74.7420   82.1770   68.3600 C.2    57  MET57       0.2287
     50  O         74.2680   82.2260   67.2300 O.2    57  MET57      -0.2864
     51  CB        73.3420   80.1740   69.1560 C.3    57  MET57       0.0413
     52  CG        73.3750   78.8280   69.8830 C.3    57  MET57       0.0598
     53  SD        71.8160   77.9240   69.7650 S.3    57  MET57      -0.1393
     54  CE        70.7560   78.9300   70.8040 C.3    57  MET57       0.0692
     55  N         72.7880   67.6140   68.0980 N.3   153  HIS153     -0.1226
     56  CA        72.4100   67.8340   69.4890 C.3   153  HIS153      0.1752
     57  C         73.3220   68.7770   70.2530 C.2   153  HIS153      0.2597
     58  O         72.8860   69.3470   71.2560 O.2   153  HIS153     -0.2718
     59  CB        72.2360   66.4920   70.2080 C.3   153  HIS153      0.0759
     60  CG        71.0710   65.7100   69.6760 C.ar  153  HIS153      0.0818
     61  ND1       70.7660   64.4310   70.0880 N.ar  153  HIS153     -0.2268
     62  CD2       70.1640   66.0240   68.7190 C.ar  153  HIS153      0.1154
     63  CE1       69.6960   64.0040   69.4370 C.ar  153  HIS153      0.1986
     64  NE2       69.3150   64.9480   68.5930 N.ar  153  HIS153     -0.2212
     65  N         74.5620   68.9360   69.7910 N.am  154  THR154     -0.1939
     66  CA        75.4910   69.8980   70.3690 C.3   154  THR154      0.2028
     67  C         75.5500   71.1100   69.4540 C.2   154  THR154      0.2642
     68  O         75.6700   70.9500   68.2360 O.2   154  THR154     -0.2714
     69  CB        76.8980   69.2750   70.5090 C.3   154  THR154      0.1808
     70  OG1       76.8220   68.1470   71.3910 O.3   154  THR154     -0.2208
     71  CG2       77.9260   70.3000   71.0210 C.3   154  THR154      0.0379
     72  N         75.4620   72.3080   70.0330 N.am  155  ALA155     -0.1977
     73  CA        75.4270   73.5340   69.2480 C.3   155  ALA155      0.1597
     74  C         76.7220   73.7610   68.4630 C.2   155  ALA155      0.2287
     75  O         77.7830   73.2260   68.8080 O.2   155  ALA155     -0.2864
     76  CB        75.1260   74.7360   70.1410 C.3   155  ALA155      0.0319
     77  N         79.7970   74.8740   70.2000 N.3   158  LEU158     -0.1245
     78  CA        80.1680   74.0450   71.3470 C.3   158  LEU158      0.1561
     79  C         80.7280   72.6780   70.9640 C.2   158  LEU158      0.2260
     80  O         81.3650   72.0290   71.7910 O.2   158  LEU158     -0.2867
     81  CB        78.9820   73.8340   72.2940 C.3   158  LEU158      0.0270
     82  CG        78.4830   75.0630   73.0570 C.3   158  LEU158      0.0019
     83  CD1       77.2890   74.6680   73.8980 C.3   158  LEU158      0.0001
     84  CD2       79.5850   75.6870   73.9410 C.3   158  LEU158      0.0001
     85  N         70.5700   58.3740   68.0390 N.3   179  THR179     -0.1203
     86  CA        71.3140   58.4240   69.3000 C.3   179  THR179      0.1994
     87  C         70.4390   58.6000   70.5490 C.2   179  THR179      0.2618
     88  O         70.8050   58.1290   71.6340 O.2   179  THR179     -0.2717
     89  CB        72.4690   59.4480   69.2370 C.3   179  THR179      0.1784
     90  OG1       73.3200   59.2730   70.3770 O.3   179  THR179     -0.2211
     91  CG2       71.9640   60.8810   69.1740 C.3   179  THR179      0.0376
     92  N         69.2750   59.2290   70.3890 N.am  180  THR180     -0.1952
     93  CA        68.3570   59.3870   71.5110 C.3   180  THR180      0.1897
     94  C         67.1220   58.4910   71.4350 C.2   180  THR180      0.2313
     95  O         66.3480   58.4290   72.4020 O.2   180  THR180     -0.2863
     96  CB        67.9020   60.8570   71.6990 C.3   180  THR180      0.1794
     97  OG1       67.4260   61.3920   70.4540 O.3   180  THR180     -0.2208
     98  CG2       69.0670   61.7040   72.2090 C.3   180  THR180      0.0378
@<TRIPOS>BOND
     1    50    49    2
     2    22    21    1
     3    85    86    1
     4    55    56    1
     5    68    67    2
     6    49    48    1
     7    74    75    2
     8    74    73    1
     9    21    23    1
    10    21    20    2
    11    64    62   ar
    12    64    63   ar
    13    62    60   ar
    14    48    51    1
    15    48    47    1
    16    51    52    1
    17    91    89    1
    18    89    86    1
    19    89    90    1
    20    73    72    1
    21    73    76    1
    22    86    87    1
    23    20    19    1
    24    19    18    1
    25    63    61   ar
    26    67    72   am
    27    67    66    1
    28    56    59    1
    29    56    57    1
    30    60    61   ar
    31    60    59    1
    32    53    52    1
    33    53    54    1
    34    65    57   am
    35    65    66    1
    36    77    78    1
    37    57    58    2
    38    43    42    2
    39    18    17    1
    40    66    69    1
    41    92    87   am
    42    92    93    1
    43    97    96    1
    44    27    26    2
    45    69    71    1
    46    69    70    1
    47    47    42   am
    48    87    88    2
    49     1     2    1
    50     4     3    2
    51    26    25    1
    52    42    41    1
    53    79    78    1
    54    79    80    2
    55     5     2    1
    56     5     6    1
    57    78    81    1
    58    94    93    1
    59    94    95    2
    60    93    96    1
    61    16    15    2
    62    35    34    2
    63    96    98    1
    64     2     3    1
    65    17    14    1
    66     8     6   ar
    67     8    10   ar
    68     6     7   ar
    69    15    14    1
    70    15    24   am
    71    81    82    1
    72    25    24    1
    73    25    28    1
    74    41    40    1
    75    41    44    1
    76    13    14    1
    77    10    11   ar
    78    34    33    1
    79    46    44    1
    80    82    83    1
    81    82    84    1
    82    32    33    1
    83    36    33    1
    84    36    37    1
    85    28    29    1
    86    44    45    1
    87     7     9   ar
    88    38    37    2
    89    37    39   am
    90    11     9   ar
    91    11    12    1
    92    29    30   ar
    93    29    31   ar
