@<TRIPOS>MOLECULE
tmp/3x1bB01.pdb
 128 121 0 0 0
SMALL
GASTEIGER

@<TRIPOS>ATOM
      1  N         88.8620   75.0380   25.8930 N.3   320  ALA320     -0.1231
      2  CA        89.3500   75.3120   27.2440 C.3   320  ALA320      0.1694
      3  C         90.0880   76.6450   27.2980 C.2   320  ALA320      0.2592
      4  O         90.9680   76.9040   26.4720 O.2   320  ALA320     -0.2718
      5  CB        90.2350   74.1810   27.7540 C.3   320  ALA320      0.0304
      6  N         89.7060   77.4850   28.2580 N.am  321  GLY321     -0.1957
      7  CA        90.2730   78.8290   28.3970 C.3   321  GLY321      0.1869
      8  C         89.8200   79.8500   27.3680 C.2   321  GLY321      0.2309
      9  O         90.4060   80.9300   27.2640 O.2   321  GLY321     -0.2863
     10  N         87.7900   82.2710   27.0860 N.3   323  VAL323     -0.1231
     11  CA        87.0090   83.3020   27.7620 C.3   323  VAL323      0.1692
     12  C         87.9210   84.5110   27.8830 C.2   323  VAL323      0.2592
     13  O         89.0870   84.4320   27.4990 O.2   323  VAL323     -0.2718
     14  CB        86.5710   82.8840   29.1900 C.3   323  VAL323      0.0266
     15  CG1       85.4450   81.8490   29.1630 C.3   323  VAL323      0.0020
     16  CG2       87.7530   82.3670   30.0010 C.3   323  VAL323      0.0020
     17  N         87.4090   85.6070   28.4340 N.am  324  ASP324     -0.1960
     18  CA        88.2290   86.7950   28.6650 C.3   324  ASP324      0.1840
     19  C         89.1750   86.5960   29.8480 C.2   324  ASP324      0.2622
     20  O         90.3220   87.0430   29.8070 O.2   324  ASP324     -0.2715
     21  CB        87.3550   88.0310   28.9050 C.3   324  ASP324      0.1450
     22  CG        86.5210   88.4060   27.6950 C.2   324  ASP324      0.3671
     23  OD1       87.0990   88.5640   26.5980 O.co2 324  ASP324     -0.2456
     24  OD2       85.2890   88.5650   27.8480 O.co2 324  ASP324     -0.2456
     25  N         88.6820   85.9300   30.8900 N.am  325  LYS325     -0.1963
     26  CA        89.4230   85.7450   32.1330 C.3   325  LYS325      0.1728
     27  C         89.2270   84.3240   32.6860 C.2   325  LYS325      0.2616
     28  O         88.1310   83.9600   33.1130 O.2   325  LYS325     -0.2715
     29  CB        88.9810   86.8240   33.1290 C.3   325  LYS325      0.0311
     30  CG        89.4130   86.6440   34.5810 C.3   325  LYS325      0.0038
     31  CD        90.6000   87.5150   34.9560 C.3   325  LYS325      0.0206
     32  CE        91.9210   86.8390   34.6320 C.3   325  LYS325      0.1093
     33  NZ        92.7960   87.7900   33.8840 N.3   325  LYS325     -0.1314
     34  N         90.2840   83.5140   32.6440 N.am  326  ALA326     -0.1963
     35  CA        90.2410   82.1570   33.1930 C.3   326  ALA326      0.1728
     36  C         91.0700   82.0390   34.4690 C.2   326  ALA326      0.2616
     37  O         92.2220   82.4780   34.5170 O.2   326  ALA326     -0.2715
     38  CB        90.6970   81.1280   32.1580 C.3   326  ALA326      0.0334
     39  N         90.4750   81.4420   35.4950 N.am  327  LEU327     -0.1963
     40  CA        91.1110   81.3180   36.7990 C.3   327  LEU327      0.1728
     41  C         91.0180   79.8760   37.2680 C.2   327  LEU327      0.2616
     42  O         89.9490   79.2730   37.1970 O.2   327  LEU327     -0.2715
     43  CB        90.4410   82.2310   37.8330 C.3   327  LEU327      0.0311
     44  CG        90.4930   83.7400   37.5790 C.3   327  LEU327      0.0022
     45  CD1       89.7670   84.5140   38.6660 C.3   327  LEU327      0.0001
     46  CD2       91.9300   84.2090   37.4720 C.3   327  LEU327      0.0001
     47  N         92.1440   79.3460   37.7370 N.am  328  ASN328     -0.1972
     48  CA        92.2070   78.0290   38.3610 C.3   328  ASN328      0.1688
     49  C         92.4180   78.1860   39.8660 C.2   328  ASN328      0.2292
     50  O         93.2000   79.0350   40.3020 O.2   328  ASN328     -0.2864
     51  CB        93.3650   77.2360   37.7570 C.3   328  ASN328      0.1181
     52  CG        93.3810   75.7840   38.1960 C.2   328  ASN328      0.2629
     53  OD1       92.4070   75.0480   38.0080 O.2   328  ASN328     -0.2716
     54  ND2       94.4970   75.3570   38.7760 N.am  328  ASN328     -0.0877
     55  N         94.3370   79.1960   46.6530 N.3   341  ASN341     -0.1240
     56  CA        95.5410   79.8630   46.1400 C.3   341  ASN341      0.1653
     57  C         96.3660   80.4880   47.2630 C.2   341  ASN341      0.2266
     58  O         96.7490   81.6640   47.2060 O.2   341  ASN341     -0.2867
     59  CB        95.1730   80.8930   45.0680 C.3   341  ASN341      0.1155
     60  CG        94.5850   80.2490   43.8270 C.2   341  ASN341      0.2627
     61  OD1       94.7840   79.0570   43.5810 O.2   341  ASN341     -0.2716
     62  ND2       93.8560   81.0320   43.0410 N.am  341  ASN341     -0.0877
     63  N         85.8960   81.9380   33.1710 N.3   382  GLU382     -0.1245
     64  CA        85.9440   80.4980   33.3900 C.3   382  GLU382      0.1567
     65  C         86.7060   80.1950   34.6820 C.2   382  GLU382      0.2260
     66  O         87.8280   80.6630   34.8780 O.2   382  GLU382     -0.2867
     67  CB        86.5600   79.7760   32.1860 C.3   382  GLU382      0.0388
     68  CG        86.3740   78.2490   32.2280 C.3   382  GLU382      0.1160
     69  CD        86.8360   77.5450   30.9530 C.2   382  GLU382      0.3649
     70  OE1       88.0420   77.6080   30.6310 O.co2 382  GLU382     -0.2457
     71  OE2       86.0050   76.9030   30.2710 O.co2 382  GLU382     -0.2457
     72  N         87.9800   77.0060   37.2580 N.3   384  SER384     -0.1217
     73  CA        88.1780   75.5760   37.4750 C.3   384  SER384      0.1889
     74  C         88.5150   75.3100   38.9390 C.2   384  SER384      0.2288
     75  O         89.2460   76.0890   39.5550 O.2   384  SER384     -0.2866
     76  CB        89.2620   75.0210   36.5450 C.3   384  SER384      0.2089
     77  OG        90.3890   75.8840   36.5030 O.3   384  SER384     -0.2183
     78  N         89.8660   72.1940   40.5900 N.3   386  PRO386     -0.2102
     79  CA        90.3570   70.8070   40.6030 C.3   386  PRO386      0.1504
     80  C         90.3550   70.1670   41.9990 C.2   386  PRO386      0.2575
     81  O         90.9480   70.7070   42.9400 O.2   386  PRO386     -0.2718
     82  CB        91.7900   70.9340   40.0650 C.3   386  PRO386      0.0282
     83  CG        92.1520   72.3940   40.2220 C.3   386  PRO386      0.0208
     84  CD        90.8690   73.1550   40.1010 C.3   386  PRO386      0.0893
     85  N         89.6960   69.0180   42.1360 N.am  387  ALA387     -0.1980
     86  CA        89.6410   68.3140   43.4190 C.3   387  ALA387      0.1597
     87  C         91.0360   67.8430   43.8180 C.2   387  ALA387      0.2287
     88  O         91.8130   67.3930   42.9730 O.2   387  ALA387     -0.2864
     89  CB        88.7060   67.1300   43.3280 C.3   387  ALA387      0.0319
     90  N         83.8160   67.9530   28.6340 N.3   416  TYR416     -0.1241
     91  CA        83.5640   69.3920   28.6420 C.3   416  TYR416      0.1605
     92  C         82.3880   69.6490   27.7040 C.2   416  TYR416      0.2264
     93  O         82.4000   69.2140   26.5560 O.2   416  TYR416     -0.2867
     94  CB        84.8130   70.1780   28.2140 C.3   416  TYR416      0.0534
     95  CG        85.8910   70.1360   29.2750 C.ar  416  TYR416     -0.0201
     96  CD1       86.7410   69.0390   29.3820 C.ar  416  TYR416     -0.0009
     97  CD2       86.0270   71.1670   30.1990 C.ar  416  TYR416     -0.0009
     98  CE1       87.7190   68.9760   30.3620 C.ar  416  TYR416      0.0417
     99  CE2       86.9980   71.1140   31.1920 C.ar  416  TYR416      0.0417
    100  CZ        87.8380   70.0120   31.2680 C.ar  416  TYR416      0.1957
    101  OH        88.7990   69.9250   32.2490 O.3   416  TYR416     -0.2866
    102  N         89.8970   62.1790   39.5030 N.3   435  GLY435     -0.1210
    103  CA        90.6340   63.2130   38.7730 C.3   435  GLY435      0.1956
    104  C         89.7230   64.3470   38.3230 C.2   435  GLY435      0.2612
    105  O         89.9150   64.9080   37.2410 O.2   435  GLY435     -0.2717
    106  N         88.7280   64.6780   39.1430 N.am  436  ASP436     -0.1959
    107  CA        87.7540   65.7360   38.8460 C.3   436  ASP436      0.1840
    108  C         88.4000   67.1040   38.6310 C.2   436  ASP436      0.2622
    109  O         89.4070   67.4300   39.2590 O.2   436  ASP436     -0.2715
    110  CB        86.7100   65.8330   39.9670 C.3   436  ASP436      0.1450
    111  CG        85.6260   64.7630   39.8580 C.2   436  ASP436      0.3671
    112  OD1       85.2480   64.4270   38.7150 O.co2 436  ASP436     -0.2456
    113  OD2       85.1450   64.2550   40.9010 O.co2 436  ASP436     -0.2456
    114  N         87.8330   67.8880   37.7200 N.am  437  ASN437     -0.1972
    115  CA        88.2340   69.2760   37.5150 C.3   437  ASN437      0.1688
    116  C         86.9990   70.0380   37.0580 C.2   437  ASN437      0.2292
    117  O         86.8750   70.4020   35.8840 O.2   437  ASN437     -0.2864
    118  CB        89.3660   69.3980   36.4900 C.3   437  ASN437      0.1181
    119  CG        90.1220   70.7120   36.5990 C.2   437  ASN437      0.2629
    120  OD1       89.7400   71.6170   37.3530 O.2   437  ASN437     -0.2716
    121  ND2       91.2090   70.8190   35.8420 N.am  437  ASN437     -0.0877
    122  N         84.4850   72.7270   36.1990 N.3   439  THR439     -0.1218
    123  CA        84.7680   73.9610   35.4780 C.3   439  THR439      0.1862
    124  C         83.4370   74.6260   35.1350 C.2   439  THR439      0.2287
    125  O         82.4960   73.9680   34.6750 O.2   439  THR439     -0.2866
    126  CB        85.5990   73.6740   34.2120 C.3   439  THR439      0.1770
    127  OG1       86.7670   72.9300   34.5830 O.3   439  THR439     -0.2211
    128  CG2       86.0370   74.9710   33.5390 C.3   439  THR439      0.0375
@<TRIPOS>BOND
     1     1     2    1
     2     4     3    2
     3    93    92    2
     4    23    22   ar
     5    10    11    1
     6     2     3    1
     7     2     5    1
     8     9     8    2
     9     3     6   am
    10     8     7    1
    11    13    12    2
    12    22    24   ar
    13    22    21    1
    14    92    91    1
    15    11    12    1
    16    11    14    1
    17    12    17   am
    18    94    91    1
    19    94    95    1
    20     6     7    1
    21    17    18    1
    22    90    91    1
    23    18    21    1
    24    18    19    1
    25    15    14    1
    26    14    16    1
    27    95    96   ar
    28    95    97   ar
    29    96    98   ar
    30    20    19    2
    31    19    25   am
    32    97    99   ar
    33    71    69   ar
    34    98   100   ar
    35    70    69   ar
    36    25    26    1
    37    69    68    1
    38    99   100   ar
    39   100   101    1
    40    26    27    1
    41    26    29    1
    42    38    35    1
    43    67    68    1
    44    67    64    1
    45    34    27   am
    46    34    35    1
    47    27    28    2
    48    29    30    1
    49    63    64    1
    50    35    36    1
    51    64    65    1
    52   128   126    1
    53    33    32    1
    54   126   127    1
    55   126   123    1
    56    36    37    2
    57    36    39   am
    58    30    31    1
    59    32    31    1
    60   125   124    2
    61    65    66    2
    62   124   123    1
    63   123   122    1
    64    39    40    1
    65   121   119   am
    66   117   116    2
    67   118   119    1
    68   118   115    1
    69    77    76    1
    70    76    73    1
    71   119   120    2
    72    40    41    1
    73    40    43    1
    74   116   115    1
    75    42    41    2
    76   105   104    2
    77    72    73    1
    78    41    47   am
    79    46    44    1
    80    73    74    1
    81   115   114    1
    82    44    43    1
    83    44    45    1
    84   114   108   am
    85    47    48    1
    86    51    52    1
    87    51    48    1
    88    53    52    2
    89    52    54   am
    90   104   103    1
    91   104   106   am
    92    48    49    1
    93   108   107    1
    94   108   109    2
    95   112   111   ar
    96   103   102    1
    97   107   106    1
    98   107   110    1
    99    74    75    2
   100   111   110    1
   101   111   113   ar
   102    49    50    2
   103    82    83    1
   104    82    79    1
   105    84    83    1
   106    84    78    1
   107    78    79    1
   108    79    80    1
   109    80    85   am
   110    80    81    2
   111    85    86    1
   112    88    87    2
   113    62    60   am
   114    89    86    1
   115    86    87    1
   116    61    60    2
   117    60    59    1
   118    59    56    1
   119    56    55    1
   120    56    57    1
   121    58    57    2
