@<TRIPOS>MOLECULE
tmp/3x1bA01.pdb
 131 124 0 0 0
SMALL
GASTEIGER

@<TRIPOS>ATOM
      1  N         81.9910   36.2790   24.6320 N.3   320  ALA320     -0.1231
      2  CA        80.8560   36.0030   25.5190 C.3   320  ALA320      0.1694
      3  C         80.3030   34.6180   25.1990 C.2   320  ALA320      0.2592
      4  O         80.1340   34.2720   24.0280 O.2   320  ALA320     -0.2718
      5  CB        79.7660   37.0610   25.3590 C.3   320  ALA320      0.0304
      6  N         80.0490   33.8230   26.2330 N.am  321  GLY321     -0.1957
      7  CA        79.5690   32.4580   26.0530 C.3   321  GLY321      0.1869
      8  C         80.5540   31.4970   25.4110 C.2   321  GLY321      0.2309
      9  O         80.1670   30.4020   24.9990 O.2   321  GLY321     -0.2863
     10  N         82.3960   29.1690   26.1800 N.3   323  VAL323     -0.1231
     11  CA        82.6600   28.1450   27.1920 C.3   323  VAL323      0.1692
     12  C         81.7860   26.9200   26.9190 C.2   323  VAL323      0.2592
     13  O         80.8440   26.9960   26.1300 O.2   323  VAL323     -0.2718
     14  CB        82.3980   28.6340   28.6380 C.3   323  VAL323      0.0266
     15  CG1       83.4640   29.6270   29.1010 C.3   323  VAL323      0.0020
     16  CG2       80.9910   29.2030   28.7770 C.3   323  VAL323      0.0020
     17  N         82.0840   25.8030   27.5780 N.am  324  ASP324     -0.1960
     18  CA        81.2320   24.6180   27.4610 C.3   324  ASP324      0.1840
     19  C         79.8100   24.8660   27.9790 C.2   324  ASP324      0.2622
     20  O         78.8340   24.4470   27.3540 O.2   324  ASP324     -0.2715
     21  CB        81.8510   23.4140   28.1820 C.3   324  ASP324      0.1450
     22  CG        83.2060   23.0220   27.6240 C.2   324  ASP324      0.3671
     23  OD1       83.3470   22.9530   26.3840 O.co2 324  ASP324     -0.2456
     24  OD2       84.1320   22.7640   28.4270 O.co2 324  ASP324     -0.2456
     25  N         79.7040   25.5520   29.1150 N.am  325  LYS325     -0.1963
     26  CA        78.4240   25.8060   29.7660 C.3   325  LYS325      0.1728
     27  C         78.3630   27.2410   30.3100 C.2   325  LYS325      0.2616
     28  O         79.1790   27.6410   31.1400 O.2   325  LYS325     -0.2715
     29  CB        78.2070   24.7800   30.8870 C.3   325  LYS325      0.0311
     30  CG        76.9650   24.9790   31.7530 C.3   325  LYS325      0.0038
     31  CD        75.8640   23.9870   31.4090 C.3   325  LYS325      0.0206
     32  CE        75.0540   24.4540   30.2090 C.3   325  LYS325      0.1093
     33  NZ        74.1870   23.3650   29.6480 N.3   325  LYS325     -0.1314
     34  N         77.4090   28.0220   29.8070 N.am  326  ALA326     -0.1963
     35  CA        77.2230   29.4050   30.2390 C.3   326  ALA326      0.1728
     36  C         75.8540   29.5240   30.9040 C.2   326  ALA326      0.2616
     37  O         74.8540   29.0390   30.3690 O.2   326  ALA326     -0.2715
     38  CB        77.3490   30.3640   29.0640 C.3   326  ALA326      0.0334
     39  N         75.8290   30.1220   32.0910 N.am  327  LEU327     -0.1963
     40  CA        74.5990   30.2450   32.8630 C.3   327  LEU327      0.1728
     41  C         74.4310   31.6860   33.3150 C.2   327  LEU327      0.2616
     42  O         75.3870   32.3030   33.7880 O.2   327  LEU327     -0.2715
     43  CB        74.6330   29.3400   34.0980 C.3   327  LEU327      0.0311
     44  CG        74.6260   27.8270   33.8810 C.3   327  LEU327      0.0022
     45  CD1       74.5700   27.1660   35.2410 C.3   327  LEU327      0.0001
     46  CD2       73.4170   27.4260   33.0600 C.3   327  LEU327      0.0001
     47  N         73.2140   32.2010   33.1590 N.am  328  ASN328     -0.1972
     48  CA        72.8580   33.5350   33.6360 C.3   328  ASN328      0.1688
     49  C         71.9100   33.4360   34.8280 C.2   328  ASN328      0.2292
     50  O         70.9600   32.6480   34.7960 O.2   328  ASN328     -0.2864
     51  CB        72.1640   34.3150   32.5200 C.3   328  ASN328      0.1181
     52  CG        71.9950   35.7850   32.8580 C.2   328  ASN328      0.2629
     53  OD1       72.9620   36.4640   33.2100 O.2   328  ASN328     -0.2716
     54  ND2       70.7640   36.2840   32.7480 N.am  328  ASN328     -0.0877
     55  N         80.9290   29.6160   32.4460 N.3   382  GLU382     -0.1245
     56  CA        80.8190   31.0610   32.5910 C.3   382  GLU382      0.1567
     57  C         79.5090   31.3970   33.2960 C.2   382  GLU382      0.2260
     58  O         78.4460   30.9780   32.8400 O.2   382  GLU382     -0.2867
     59  CB        80.8920   31.7570   31.2290 C.3   382  GLU382      0.0388
     60  CG        80.8180   33.2940   31.3000 C.3   382  GLU382      0.1160
     61  CD        81.1520   33.9570   29.9690 C.2   382  GLU382      0.3649
     62  OE1       80.3590   33.8390   29.0110 O.co2 382  GLU382     -0.2457
     63  OE2       82.2210   34.5940   29.8630 O.co2 382  GLU382     -0.2457
     64  N         77.0280   34.5200   34.8610 N.3   384  SER384     -0.1217
     65  CA        76.7570   35.9510   34.9700 C.3   384  SER384      0.1889
     66  C         75.7050   36.2620   36.0440 C.2   384  SER384      0.2288
     67  O         74.7340   35.5090   36.2240 O.2   384  SER384     -0.2866
     68  CB        76.3470   36.5230   33.6130 C.3   384  SER384      0.2089
     69  OG        75.4770   35.6310   32.9420 O.3   384  SER384     -0.2183
     70  N         73.7310   39.4250   36.7050 N.3   386  PRO386     -0.2102
     71  CA        73.3650   40.8060   36.3900 C.3   386  PRO386      0.1504
     72  C         72.6470   41.4910   37.5530 C.2   386  PRO386      0.2575
     73  O         71.6810   40.9450   38.0870 O.2   386  PRO386     -0.2718
     74  CB        72.4320   40.6630   35.1840 C.3   386  PRO386      0.0282
     75  CG        72.0280   39.2090   35.1480 C.3   386  PRO386      0.0208
     76  CD        73.1850   38.4630   35.7310 C.3   386  PRO386      0.0893
     77  N         73.1460   42.6570   37.9620 N.am  387  ALA387     -0.1980
     78  CA        72.5580   43.3930   39.0830 C.3   387  ALA387      0.1597
     79  C         71.1470   43.8230   38.7000 C.2   387  ALA387      0.2287
     80  O         70.8990   44.1660   37.5420 O.2   387  ALA387     -0.2864
     81  CB        73.4120   44.6060   39.4320 C.3   387  ALA387      0.0319
     82  N         84.3850   40.1360   34.1390 N.3   409  ARG409     -0.1245
     83  CA        83.8340   41.4810   34.1770 C.3   409  ARG409      0.1563
     84  C         83.5510   41.8340   35.6250 C.2   409  ARG409      0.2260
     85  O         82.8650   41.0840   36.3220 O.2   409  ARG409     -0.2867
     86  CB        82.5770   41.6190   33.3090 C.3   409  ARG409      0.0307
     87  CG        81.9220   42.9900   33.4450 C.3   409  ARG409      0.0489
     88  CD        80.8850   43.2680   32.3730 C.3   409  ARG409      0.2205
     89  NE        80.2780   44.5730   32.6110 N.pl3 409  ARG409     -0.0865
     90  CZ        79.0960   44.9700   32.1440 C.cat 409  ARG409      0.5346
     91  NH1       78.3500   44.1810   31.3780 N.pl3 409  ARG409      0.1354
     92  NH2       78.6680   46.1850   32.4440 N.pl3 409  ARG409      0.1354
     93  N         85.1520   43.4920   29.3790 N.3   416  TYR416     -0.1241
     94  CA        85.3870   42.0630   29.5860 C.3   416  TYR416      0.1605
     95  C         86.8800   41.7640   29.4320 C.2   416  TYR416      0.2264
     96  O         87.4510   42.0000   28.3710 O.2   416  TYR416     -0.2867
     97  CB        84.5620   41.2480   28.5780 C.3   416  TYR416      0.0534
     98  CG        83.0860   41.2920   28.8970 C.ar  416  TYR416     -0.0201
     99  CD1       82.2770   42.3270   28.4280 C.ar  416  TYR416     -0.0009
    100  CD2       82.5070   40.3230   29.7200 C.ar  416  TYR416     -0.0009
    101  CE1       80.9230   42.3820   28.7560 C.ar  416  TYR416      0.0417
    102  CE2       81.1540   40.3590   30.0340 C.ar  416  TYR416      0.0417
    103  CZ        80.3650   41.3960   29.5500 C.ar  416  TYR416      0.1957
    104  OH        79.0210   41.4570   29.8910 O.3   416  TYR416     -0.2866
    105  N         74.3840   49.3580   35.3600 N.3   435  GLY435     -0.1210
    106  CA        74.1720   48.3380   34.3280 C.3   435  GLY435      0.1956
    107  C         75.1750   47.2060   34.4910 C.2   435  GLY435      0.2612
    108  O         75.6910   46.6530   33.5130 O.2   435  GLY435     -0.2717
    109  N         75.4780   46.8650   35.7360 N.am  436  ASP436     -0.1959
    110  CA        76.5240   45.8800   36.0120 C.3   436  ASP436      0.1840
    111  C         76.0990   44.4860   35.5720 C.2   436  ASP436      0.2622
    112  O         74.9190   44.1340   35.6360 O.2   436  ASP436     -0.2715
    113  CB        76.8700   45.8550   37.5030 C.3   436  ASP436      0.1450
    114  CG        77.8520   46.9440   37.9040 C.2   436  ASP436      0.3671
    115  OD1       78.7780   47.2810   37.1230 O.co2 436  ASP436     -0.2456
    116  OD2       77.7270   47.4300   39.0500 O.co2 436  ASP436     -0.2456
    117  N         77.0650   43.6880   35.1290 N.am  437  ASN437     -0.1972
    118  CA        76.7760   42.2980   34.7980 C.3   437  ASN437      0.1688
    119  C         78.0410   41.4920   35.0310 C.2   437  ASN437      0.2292
    120  O         78.7300   41.0870   34.0910 O.2   437  ASN437     -0.2864
    121  CB        76.2840   42.1740   33.3520 C.3   437  ASN437      0.1181
    122  CG        75.6300   40.8350   33.0790 C.2   437  ASN437      0.2629
    123  OD1       75.6380   39.9400   33.9260 O.2   437  ASN437     -0.2716
    124  ND2       75.0400   40.7020   31.9030 N.am  437  ASN437     -0.0877
    125  N         80.6750   38.8230   35.6450 N.3   439  THR439     -0.1218
    126  CA        80.7660   37.5810   34.8930 C.3   439  THR439      0.1862
    127  C         82.0700   36.8910   35.2740 C.2   439  THR439      0.2287
    128  O         83.1300   37.5280   35.3300 O.2   439  THR439     -0.2866
    129  CB        80.6960   37.8550   33.3730 C.3   439  THR439      0.1770
    130  OG1       79.4700   38.5350   33.0850 O.3   439  THR439     -0.2211
    131  CG2       80.7390   36.5700   32.5560 C.3   439  THR439      0.0375
@<TRIPOS>BOND
     1     4     3    2
     2     1     2    1
     3     9     8    2
     4     3     2    1
     5     3     6   am
     6     5     2    1
     7     8     7    1
     8     7     6    1
     9    13    12    2
    10    10    11    1
    11    23    22   ar
    12    12    11    1
    13    12    17   am
    14    11    14    1
    15    20    19    2
    16    18    17    1
    17    18    19    1
    18    18    21    1
    19    22    21    1
    20    22    24   ar
    21    19    25   am
    22    96    95    2
    23    99   101   ar
    24    99    98   ar
    25    97    98    1
    26    97    94    1
    27    14    16    1
    28    14    15    1
    29   101   103   ar
    30    98   100   ar
    31    62    61   ar
    32    38    35    1
    33    25    26    1
    34    93    94    1
    35    95    94    1
    36   103   104    1
    37   103   102   ar
    38    33    32    1
    39   100   102   ar
    40    26    27    1
    41    26    29    1
    42    34    35    1
    43    34    27   am
    44    63    61   ar
    45    61    60    1
    46    32    31    1
    47    35    36    1
    48    27    28    2
    49    37    36    2
    50    29    30    1
    51    36    39   am
    52    59    60    1
    53    59    56    1
    54    91    90    1
    55    31    30    1
    56   124   122   am
    57    39    40    1
    58    90    92    1
    59    90    89    2
    60    88    89    1
    61    88    87    1
    62    55    56    1
    63    51    52    1
    64    51    48    1
    65   131   129    1
    66    56    57    1
    67    54    52   am
    68    58    57    2
    69    52    53    2
    70    40    41    1
    71    40    43    1
    72    69    68    1
    73    46    44    1
    74   122   121    1
    75   122   123    2
    76   130   129    1
    77    47    41   am
    78    47    48    1
    79    86    87    1
    80    86    83    1
    81    41    42    2
    82   121   118    1
    83   129   126    1
    84   108   107    2
    85    68    65    1
    86    48    49    1
    87    44    43    1
    88    44    45    1
    89   120   119    2
    90    82    83    1
    91    83    84    1
    92   106   107    1
    93   106   105    1
    94   107   109   am
    95    50    49    2
    96   118   119    1
    97   118   117    1
    98    64    65    1
    99   126   127    1
   100   126   125    1
   101    65    66    1
   102   117   111   am
   103    75    74    1
   104    75    76    1
   105    74    71    1
   106   127   128    2
   107   111   112    2
   108   111   110    1
   109    84    85    2
   110    76    70    1
   111   109   110    1
   112   110   113    1
   113    66    67    2
   114    71    70    1
   115    71    72    1
   116   115   114   ar
   117   113   114    1
   118    80    79    2
   119    72    77   am
   120    72    73    2
   121   114   116   ar
   122    77    78    1
   123    79    78    1
   124    78    81    1
