@<TRIPOS>MOLECULE
tmp/3x1bA00.pdb
 98 93 0 0 0
SMALL
GASTEIGER

@<TRIPOS>ATOM
      1  N         80.6490   46.7600   75.4110 N.3    20  TYR20      -0.1241
      2  CA        79.2950   46.3750   75.8120 C.3    20  TYR20       0.1605
      3  C         79.2970   44.8480   75.9340 C.2    20  TYR20       0.2264
      4  O         79.7000   44.1550   75.0080 O.2    20  TYR20      -0.2867
      5  CB        78.2540   46.8010   74.7640 C.3    20  TYR20       0.0534
      6  CG        76.8490   46.2910   75.0590 C.ar   20  TYR20      -0.0201
      7  CD1       76.1070   46.8270   76.1090 C.ar   20  TYR20      -0.0009
      8  CD2       76.2760   45.2540   74.3100 C.ar   20  TYR20      -0.0009
      9  CE1       74.8230   46.3590   76.4030 C.ar   20  TYR20       0.0417
     10  CE2       75.0010   44.7820   74.5910 C.ar   20  TYR20       0.0417
     11  CZ        74.2810   45.3430   75.6350 C.ar   20  TYR20       0.1957
     12  OH        73.0250   44.8750   75.9220 O.3    20  TYR20      -0.2866
     13  N         77.8040   41.2150   75.8690 N.3    22  ARG22      -0.1231
     14  CA        76.7080   40.3700   75.3890 C.3    22  ARG22       0.1694
     15  C         77.1560   38.9110   75.2690 C.2    22  ARG22       0.2592
     16  O         78.3530   38.6080   75.1700 O.2    22  ARG22      -0.2718
     17  CB        76.1780   40.8920   74.0510 C.3    22  ARG22       0.0321
     18  CG        77.2180   40.8690   72.9240 C.3    22  ARG22       0.0489
     19  CD        76.5130   40.7180   71.5750 C.3    22  ARG22       0.2205
     20  NE        76.1170   39.3370   71.3080 N.pl3  22  ARG22      -0.0865
     21  CZ        75.6570   38.8990   70.1370 C.cat  22  ARG22       0.5346
     22  NH1       75.5060   39.7370   69.1200 N.pl3  22  ARG22       0.1354
     23  NH2       75.3160   37.6210   69.9890 N.pl3  22  ARG22       0.1354
     24  N         76.1880   38.0020   75.2920 N.am   23  ASP23      -0.1974
     25  CA        76.4690   36.5850   75.0830 C.3    23  ASP23       0.1709
     26  C         76.7910   36.3200   73.6220 C.2    23  ASP23       0.2293
     27  O         76.1240   36.8520   72.7310 O.2    23  ASP23      -0.2864
     28  CB        75.2670   35.7440   75.5240 C.3    23  ASP23       0.1436
     29  CG        74.9930   35.9230   76.9960 C.2    23  ASP23       0.3671
     30  OD1       75.9350   35.6690   77.7750 O.co2  23  ASP23      -0.2456
     31  OD2       73.8920   36.3890   77.3710 O.co2  23  ASP23      -0.2456
     32  N         73.4350   27.3950   74.3660 N.3    54  ASN54      -0.1240
     33  CA        72.4090   28.4050   74.1790 C.3    54  ASN54       0.1653
     34  C         71.6440   28.2510   72.8590 C.2    54  ASN54       0.2266
     35  O         72.1880   28.5480   71.7940 O.2    54  ASN54      -0.2867
     36  CB        73.0570   29.7840   74.3140 C.3    54  ASN54       0.1155
     37  CG        72.0330   30.8950   74.3230 C.2    54  ASN54       0.2627
     38  OD1       70.9980   30.7820   73.6680 O.2    54  ASN54      -0.2716
     39  ND2       72.3080   31.9650   75.0650 N.am   54  ASN54      -0.0877
     40  N         69.3060   29.9640   71.5660 N.3    56  THR56      -0.1203
     41  CA        69.0320   31.2330   70.8840 C.3    56  THR56       0.1994
     42  C         70.1000   31.5790   69.8420 C.2    56  THR56       0.2617
     43  O         69.8370   32.2840   68.8690 O.2    56  THR56      -0.2717
     44  CB        68.8770   32.3830   71.8970 C.3    56  THR56       0.1784
     45  OG1       67.8020   32.0400   72.7740 O.3    56  THR56      -0.2211
     46  CG2       68.5320   33.7060   71.2000 C.3    56  THR56       0.0376
     47  N         71.3080   31.0640   70.0440 N.am   57  MET57      -0.1979
     48  CA        72.3710   31.2670   69.0840 C.3    57  MET57       0.1605
     49  C         72.7270   29.9510   68.3910 C.2    57  MET57       0.2287
     50  O         73.7400   29.8830   67.6940 O.2    57  MET57      -0.2864
     51  CB        73.5870   31.8970   69.7970 C.3    57  MET57       0.0413
     52  CG        73.2130   33.2590   70.4150 C.3    57  MET57       0.0598
     53  SD        74.6200   34.1580   71.1000 S.3    57  MET57      -0.1393
     54  CE        74.8520   33.2930   72.6400 C.3    57  MET57       0.0692
     55  N         74.7110   44.4980   69.0060 N.3   153  HIS153     -0.1226
     56  CA        74.3650   44.2880   70.4120 C.3   153  HIS153      0.1752
     57  C         73.1840   43.3570   70.6450 C.2   153  HIS153      0.2597
     58  O         73.1000   42.7560   71.7190 O.2   153  HIS153     -0.2718
     59  CB        74.1520   45.6290   71.1070 C.3   153  HIS153      0.0759
     60  CG        75.4230   46.4060   71.2340 C.ar  153  HIS153      0.0818
     61  ND1       75.4920   47.6270   71.8680 N.ar  153  HIS153     -0.2268
     62  CD2       76.6760   46.1260   70.8080 C.ar  153  HIS153      0.1154
     63  CE1       76.7350   48.0770   71.8070 C.ar  153  HIS153      0.1986
     64  NE2       77.4760   47.1810   71.1780 N.ar  153  HIS153     -0.2212
     65  N         72.3190   43.2120   69.6420 N.am  154  THR154     -0.1939
     66  CA        71.2290   42.2380   69.6760 C.3   154  THR154      0.2028
     67  C         71.6040   41.0200   68.8240 C.2   154  THR154      0.2642
     68  O         72.0520   41.1810   67.6770 O.2   154  THR154     -0.2714
     69  CB        69.9250   42.8370   69.1120 C.3   154  THR154      0.1808
     70  OG1       69.5810   43.9860   69.8890 O.3   154  THR154     -0.2208
     71  CG2       68.7670   41.8040   69.1880 C.3   154  THR154      0.0379
     72  N         71.4280   39.8240   69.3890 N.am  155  ALA155     -0.1977
     73  CA        71.8290   38.5850   68.7250 C.3   155  ALA155      0.1597
     74  C         71.1320   38.3740   67.3770 C.2   155  ALA155      0.2287
     75  O         70.0320   38.8760   67.1350 O.2   155  ALA155     -0.2864
     76  CB        71.5740   37.3840   69.6180 C.3   155  ALA155      0.0319
     77  N         67.5360   37.2810   67.3210 N.3   158  LEU158     -0.1245
     78  CA        66.6580   38.1630   68.0960 C.3   158  LEU158      0.1561
     79  C         66.4260   39.5230   67.4550 C.2   158  LEU158      0.2260
     80  O         65.4930   40.2230   67.8420 O.2   158  LEU158     -0.2867
     81  CB        67.2160   38.3750   69.5030 C.3   158  LEU158      0.0270
     82  CG        67.2460   37.1520   70.4240 C.3   158  LEU158      0.0019
     83  CD1       67.8080   37.5730   71.7640 C.3   158  LEU158      0.0001
     84  CD2       65.8640   36.5020   70.6030 C.3   158  LEU158      0.0001
     85  N         76.6410   53.3340   69.8140 N.3   179  THR179     -0.1203
     86  CA        75.3820   52.9960   70.5070 C.3   179  THR179      0.1994
     87  C         75.5150   53.1800   72.0090 C.2   179  THR179      0.2618
     88  O         74.5950   53.6750   72.6600 O.2   179  THR179     -0.2717
     89  CB        75.0020   51.5220   70.2600 C.3   179  THR179      0.1784
     90  OG1       75.0230   51.2620   68.8520 O.3   179  THR179     -0.2211
     91  CG2       73.6240   51.1490   70.8570 C.3   179  THR179      0.0376
     92  N         76.6630   52.7810   72.5500 N.am  180  THR180     -0.1952
     93  CA        76.8300   52.7090   73.9970 C.3   180  THR180      0.1897
     94  C         77.8920   53.6740   74.5010 C.2   180  THR180      0.2313
     95  O         78.0560   53.8220   75.7150 O.2   180  THR180     -0.2863
     96  CB        77.1760   51.2740   74.4670 C.3   180  THR180      0.1794
     97  OG1       78.1720   50.7190   73.6050 O.3   180  THR180     -0.2208
     98  CG2       75.9350   50.3840   74.4500 C.3   180  THR180      0.0378
@<TRIPOS>BOND
     1    75    74    2
     2    77    78    1
     3    74    73    1
     4    79    80    2
     5    79    78    1
     6    68    67    2
     7    50    49    2
     8    78    81    1
     9    49    48    1
    10    73    72    1
    11    73    76    1
    12    67    72   am
    13    67    66    1
    14    90    89    1
    15    43    42    2
    16    55    56    1
    17    48    51    1
    18    48    47    1
    19    69    71    1
    20    69    66    1
    21    69    70    1
    22    22    21    1
    23    81    82    1
    24    65    66    1
    25    65    57   am
    26    51    52    1
    27    85    86    1
    28    42    47   am
    29    42    41    1
    30    23    21    1
    31    21    20    2
    32    89    86    1
    33    89    91    1
    34    56    57    1
    35    56    59    1
    36    52    53    1
    37    82    84    1
    38    82    83    1
    39    86    87    1
    40    57    58    2
    41    62    64   ar
    42    62    60   ar
    43    41    40    1
    44    41    44    1
    45    53    54    1
    46    59    60    1
    47    64    63   ar
    48    46    44    1
    49    60    61   ar
    50    20    19    1
    51    19    18    1
    52    35    34    2
    53    63    61   ar
    54    44    45    1
    55    87    92   am
    56    87    88    2
    57    92    93    1
    58    27    26    2
    59    34    33    1
    60    18    17    1
    61    97    96    1
    62    26    25    1
    63    38    37    2
    64    93    96    1
    65    93    94    1
    66    17    14    1
    67    33    36    1
    68    33    32    1
    69     8    10   ar
    70     8     6   ar
    71    36    37    1
    72    37    39   am
    73    98    96    1
    74    94    95    2
    75    10    11   ar
    76     5     6    1
    77     5     2    1
    78     4     3    2
    79     6     7   ar
    80    25    24    1
    81    25    28    1
    82    16    15    2
    83    15    24   am
    84    15    14    1
    85    14    13    1
    86     1     2    1
    87    28    29    1
    88    11    12    1
    89    11     9   ar
    90     2     3    1
    91     7     9   ar
    92    29    31   ar
    93    29    30   ar
