@<TRIPOS>MOLECULE
tmp/3x1dA00.pdb
 161 162 0 0 0
SMALL
GASTEIGER

@<TRIPOS>ATOM
      1  N        124.5860   39.9110  432.2510 N.3    45  PHE45      -0.1227
      2  CA       123.5420   39.1120  432.8960 C.3    45  PHE45       0.1736
      3  C        123.3860   37.7790  432.2090 C.2    45  PHE45       0.2595
      4  O        123.2240   37.7220  431.0050 O.2    45  PHE45      -0.2718
      5  CB       122.2020   39.8320  432.8260 C.3    45  PHE45       0.0547
      6  CG       121.1380   39.2310  433.6900 C.ar   45  PHE45      -0.0202
      7  CD1      121.3680   38.9990  435.0330 C.ar   45  PHE45      -0.0042
      8  CD2      119.8950   38.9440  433.1720 C.ar   45  PHE45      -0.0042
      9  CE1      120.3760   38.4680  435.8360 C.ar   45  PHE45      -0.0003
     10  CE2      118.9000   38.4160  433.9630 C.ar   45  PHE45      -0.0003
     11  CZ       119.1370   38.1770  435.2950 C.ar   45  PHE45      -0.0000
     12  N        123.4410   36.7130  432.9870 N.am   46  ARG46      -0.1966
     13  CA       123.2430   35.3740  432.4680 C.3    46  ARG46       0.1729
     14  C        124.2020   35.0510  431.3580 C.2    46  ARG46       0.2616
     15  O        123.8420   34.5690  430.2900 O.2    46  ARG46      -0.2715
     16  CB       121.7750   35.1290  432.1590 C.3    46  ARG46       0.0348
     17  CG       121.0360   35.1010  433.4840 C.3    46  ARG46       0.0492
     18  CD       119.5420   34.9470  433.4020 C.3    46  ARG46       0.2205
     19  NE       118.9700   35.0210  434.7480 N.pl3  46  ARG46      -0.0865
     20  CZ       119.0260   34.0310  435.6340 C.cat  46  ARG46       0.5346
     21  NH1      119.6230   32.8890  435.3180 N.pl3  46  ARG46       0.1354
     22  NH2      118.4860   34.1810  436.8380 N.pl3  46  ARG46       0.1354
     23  N        125.4510   35.3600  431.6470 N.am   47  LYS47      -0.1963
     24  CA       126.5700   34.8990  430.8730 C.3    47  LYS47       0.1728
     25  C        127.2110   33.9050  431.8100 C.2    47  LYS47       0.2617
     26  O        128.3770   33.5390  431.6650 O.2    47  LYS47      -0.2715
     27  CB       127.5120   36.0640  430.5700 C.3    47  LYS47       0.0311
     28  CG       127.8710   36.2350  429.1060 C.3    47  LYS47       0.0038
     29  CD       126.7400   35.7980  428.1530 C.3    47  LYS47       0.0206
     30  CE       125.5700   36.7780  428.0970 C.3    47  LYS47       0.1093
     31  NZ       124.2520   36.0740  427.9210 N.3    47  LYS47      -0.1314
     32  N        126.4280   33.4910  432.8020 N.am   48  GLY48      -0.1940
     33  CA       126.8190   32.4000  433.6660 C.3    48  GLY48       0.2014
     34  C        127.6260   32.8600  434.8530 C.2    48  GLY48       0.2639
     35  O        128.5430   32.1660  435.2620 O.2    48  GLY48      -0.2714
     36  N        127.2750   34.0220  435.4060 N.am   49  LYS49      -0.1963
     37  CA       127.9300   34.5300  436.6070 C.3    49  LYS49       0.1728
     38  C        127.6110   33.6840  437.8660 C.2    49  LYS49       0.2617
     39  O        128.4790   33.0300  438.4510 O.2    49  LYS49      -0.2715
     40  CB       127.5260   35.9860  436.8570 C.3    49  LYS49       0.0311
     41  CG       127.9340   36.9680  435.7910 C.3    49  LYS49       0.0038
     42  CD       126.7600   37.8650  435.4000 C.3    49  LYS49       0.0206
     43  CE       125.8770   38.1760  436.5990 C.3    49  LYS49       0.1093
     44  NZ       124.4960   38.5760  436.1960 N.3    49  LYS49      -0.1314
     45  N        126.3500   33.7080  438.2790 N.am   50  SER50      -0.1936
     46  CA       125.9210   33.0680  439.5120 C.3    50  SER50       0.2055
     47  C        125.9540   31.5670  439.3430 C.2    50  SER50       0.2643
     48  O        124.9490   30.9010  439.5730 O.2    50  SER50      -0.2714
     49  CB       124.4850   33.4930  439.8330 C.3    50  SER50       0.2130
     50  OG       124.2400   34.8490  439.4600 O.3    50  SER50      -0.2179
     51  N        127.1030   31.0390  438.9330 N.am   51  PHE51      -0.1973
     52  CA       127.2570   29.6250  438.5740 C.3    51  PHE51       0.1639
     53  C        128.7400   29.3210  438.6350 C.2    51  PHE51       0.2290
     54  O        129.1590   28.3610  439.2840 O.2    51  PHE51      -0.2864
     55  CB       126.6910   29.3670  437.1740 C.3    51  PHE51       0.0560
     56  CG       127.0560   28.0210  436.5650 C.ar   51  PHE51      -0.0200
     57  CD1      126.1320   26.9900  436.5300 C.ar   51  PHE51      -0.0042
     58  CD2      128.2810   27.8210  435.9450 C.ar   51  PHE51      -0.0042
     59  CE1      126.4450   25.7660  435.9420 C.ar   51  PHE51      -0.0003
     60  CE2      128.5990   26.6050  435.3590 C.ar   51  PHE51      -0.0003
     61  CZ       127.6830   25.5780  435.3530 C.ar   51  PHE51      -0.0000
     62  N        134.1640   33.2670  428.4530 N.3   164  ARG164     -0.1231
     63  CA       133.3140   32.1030  428.5360 C.3   164  ARG164      0.1694
     64  C        132.8560   31.6830  427.1510 C.2   164  ARG164      0.2592
     65  O        132.3020   32.4950  426.4160 O.2   164  ARG164     -0.2718
     66  CB       132.1220   32.4700  429.3970 C.3   164  ARG164      0.0321
     67  CG       132.5810   33.0960  430.6920 C.3   164  ARG164      0.0489
     68  CD       133.1370   32.0360  431.6760 C.3   164  ARG164      0.2205
     69  NE       132.0440   31.2360  432.1950 N.pl3 164  ARG164     -0.0865
     70  CZ       131.2300   31.6570  433.1420 C.cat 164  ARG164      0.5346
     71  NH1      131.4320   32.8410  433.7040 N.pl3 164  ARG164      0.1354
     72  NH2      130.2270   30.8990  433.5290 N.pl3 164  ARG164      0.1354
     73  N        133.0870   30.4210  426.8090 N.am  165  ASP165     -0.1974
     74  CA       132.8140   29.8770  425.4900 C.3   165  ASP165      0.1709
     75  C        133.7630   30.3570  424.4450 C.2   165  ASP165      0.2293
     76  O        133.3760   30.4190  423.3050 O.2   165  ASP165     -0.2864
     77  CB       131.4140   30.1820  424.9990 C.3   165  ASP165      0.1436
     78  CG       130.3710   29.7940  425.9700 C.2   165  ASP165      0.3671
     79  OD1      130.7150   29.3840  427.0770 O.co2 165  ASP165     -0.2456
     80  OD2      129.1850   29.9120  425.6480 O.co2 165  ASP165     -0.2456
     81  N        137.6910   30.4490  428.7140 N.3   216  MET216     -0.1231
     82  CA       136.9560   29.2080  429.0330 C.3   216  MET216      0.1687
     83  C        136.4110   28.4410  427.8090 C.2   216  MET216      0.2434
     84  O        135.7580   29.0200  426.9520 O.2   216  MET216     -0.2733
     85  CB       135.7640   29.5070  429.9540 C.3   216  MET216      0.0400
     86  CG       136.1020   30.1040  431.3250 C.3   216  MET216      0.0596
     87  SD       136.1240   28.9490  432.7370 S.3   216  MET216     -0.1393
     88  CE       137.7490   28.2390  432.5400 C.3   216  MET216      0.0692
     89  N        136.6610   27.1280  427.7380 N.am  217  PRO217     -0.2718
     90  CA       135.8830   26.2770  426.8430 C.3   217  PRO217      0.1535
     91  C        134.3920   26.4050  427.0930 C.2   217  PRO217      0.2599
     92  O        133.9920   26.5090  428.2370 O.2   217  PRO217     -0.2715
     93  CB       136.3210   24.8780  427.2600 C.3   217  PRO217      0.0310
     94  CG       137.7260   25.0560  427.6840 C.3   217  PRO217      0.0237
     95  CD       137.7620   26.3850  428.3750 C.3   217  PRO217      0.0939
     96  N        133.5880   26.4030  426.0380 N.am  218  HIS218     -0.1960
     97  CA       132.1500   26.2520  426.1740 C.3   218  HIS218      0.1772
     98  C        131.9740   25.0330  427.0440 C.2   218  HIS218      0.2462
     99  O        132.7150   24.0580  426.9080 O.2   218  HIS218     -0.2730
    100  CB       131.5170   25.9970  424.7960 C.3   218  HIS218      0.0785
    101  CG       130.0300   26.2100  424.7390 C.ar  218  HIS218      0.0821
    102  ND1      129.1450   25.5690  425.5770 N.ar  218  HIS218     -0.2267
    103  CD2      129.2730   26.9640  423.9110 C.ar  218  HIS218      0.1154
    104  CE1      127.9130   25.9420  425.2910 C.ar  218  HIS218      0.1986
    105  NE2      127.9620   26.7870  424.2800 N.ar  218  HIS218     -0.2212
    106  N        131.0260   25.0930  427.9760 N.am  219  PRO219     -0.2727
    107  CA       130.6640   23.9590  428.8130 C.3   219  PRO219      0.1402
    108  C        130.0300   22.8860  427.9530 C.2   219  PRO219      0.2269
    109  O        130.5650   21.7880  427.8220 O.2   219  PRO219     -0.2865
    110  CB       129.6220   24.5520  429.7690 C.3   219  PRO219      0.0296
    111  CG       129.0550   25.6810  429.0620 C.3   219  PRO219      0.0237
    112  CD       130.2060   26.2640  428.2820 C.3   219  PRO219      0.0939
    113  N        124.1250   22.2430  429.3350 N.3   223  VAL223     -0.1231
    114  CA       124.0440   23.2930  430.3430 C.3   223  VAL223      0.1692
    115  C        123.5540   24.6140  429.7420 C.2   223  VAL223      0.2591
    116  O        122.7250   25.2970  430.3510 O.2   223  VAL223     -0.2718
    117  CB       125.3630   23.4960  431.1690 C.3   223  VAL223      0.0266
    118  CG1      126.1980   24.6200  430.6090 C.3   223  VAL223      0.0020
    119  CG2      125.0390   23.7900  432.6330 C.3   223  VAL223      0.0020
    120  N        124.0410   24.9640  428.5540 N.am  224  ALA224     -0.1980
    121  CA       123.7380   26.2630  427.9880 C.3   224  ALA224      0.1597
    122  C        122.2500   26.4210  427.7370 C.2   224  ALA224      0.2287
    123  O        121.6990   27.5090  427.9210 O.2   224  ALA224     -0.2864
    124  CB       124.5290   26.4960  426.7360 C.3   224  ALA224      0.0319
    125  N        119.6010   24.6530  429.1600 N.3   226  ASN226     -0.1226
    126  CA       118.6820   24.1080  430.1250 C.3   226  ASN226      0.1770
    127  C        118.2970   25.0090  431.2670 C.2   226  ASN226      0.2439
    128  O        119.1440   25.6500  431.8780 O.2   226  ASN226     -0.2733
    129  CB       119.1550   22.7460  430.6090 C.3   226  ASN226      0.1168
    130  CG       118.7930   21.6580  429.6340 C.2   226  ASN226      0.2627
    131  OD1      117.6090   21.3570  429.4510 O.2   226  ASN226     -0.2716
    132  ND2      119.7970   21.0890  428.9690 N.am  226  ASN226     -0.0877
    133  N        116.9950   25.0440  431.5420 N.am  227  PRO227     -0.2729
    134  CA       116.3640   25.8240  432.5940 C.3   227  PRO227      0.1401
    135  C        117.0440   25.5910  433.9310 C.2   227  PRO227      0.2269
    136  O        117.8710   26.4050  434.3260 O.2   227  PRO227     -0.2865
    137  CB       114.9450   25.2690  432.6240 C.3   227  PRO227      0.0296
    138  CG       114.7120   24.7210  431.2550 C.3   227  PRO227      0.0237
    139  CD       116.0250   24.2220  430.7920 C.3   227  PRO227      0.0939
    140  N        119.2950   23.2470  435.8320 N.3   229  PHE229     -0.1241
    141  CA       120.2990   22.1940  435.7490 C.3   229  PHE229      0.1605
    142  C        120.7190   21.4770  437.0450 C.2   229  PHE229      0.2264
    143  O        120.8620   22.1070  438.0930 O.2   229  PHE229     -0.2867
    144  CB       121.5400   22.8100  435.1210 C.3   229  PHE229      0.0534
    145  CG       122.7220   21.9020  435.0940 C.ar  229  PHE229     -0.0203
    146  CD1      122.6800   20.7030  434.3910 C.ar  229  PHE229     -0.0042
    147  CD2      123.8870   22.2530  435.7480 C.ar  229  PHE229     -0.0042
    148  CE1      123.7800   19.8640  434.3540 C.ar  229  PHE229     -0.0003
    149  CE2      124.9920   21.4230  435.7080 C.ar  229  PHE229     -0.0003
    150  CZ       124.9410   20.2250  435.0120 C.ar  229  PHE229     -0.0000
    151  N        135.9650   21.9500  430.0070 N.3   240  PHE240     -0.1241
    152  CA       135.4950   22.8340  431.0560 C.3   240  PHE240      0.1605
    153  C        136.0850   22.4640  432.4010 C.2   240  PHE240      0.2264
    154  O        136.7330   23.2780  433.0520 O.2   240  PHE240     -0.2867
    155  CB       133.9900   22.6850  431.1520 C.3   240  PHE240      0.0534
    156  CG       133.2910   23.8310  431.8210 C.ar  240  PHE240     -0.0203
    157  CD1      132.9600   24.9770  431.1050 C.ar  240  PHE240     -0.0042
    158  CD2      132.9160   23.7500  433.1580 C.ar  240  PHE240     -0.0042
    159  CE1      132.2850   26.0170  431.7030 C.ar  240  PHE240     -0.0003
    160  CE2      132.2420   24.7900  433.7620 C.ar  240  PHE240     -0.0003
    161  CZ       131.9280   25.9300  433.0300 C.ar  240  PHE240     -0.0000
@<TRIPOS>BOND
     1    76    75    2
     2   103   105   ar
     3   103   101   ar
     4   105   104   ar
     5    75    74    1
     6   101   100    1
     7   101   102   ar
     8   100    97    1
     9    77    74    1
    10    77    78    1
    11   104   102   ar
    12    74    73    1
    13    80    78   ar
    14    78    79   ar
    15    96    97    1
    16    96    91   am
    17    97    98    1
    18    65    64    2
    19   124   121    1
    20    73    64   am
    21    90    91    1
    22    90    93    1
    23    90    89    1
    24    99    98    2
    25    84    83    2
    26    98   106   am
    27    91    92    2
    28    64    63    1
    29    93    94    1
    30    94    95    1
    31   122   123    2
    32   122   121    1
    33    89    83   am
    34    89    95    1
    35    83    82    1
    36   109   108    2
    37    31    30    1
    38   108   107    1
    39   106   112    1
    40   106   107    1
    41   121   120    1
    42    30    29    1
    43    29    28    1
    44   112   111    1
    45    62    63    1
    46    63    66    1
    47   120   115   am
    48    81    82    1
    49   107   110    1
    50   132   130   am
    51    82    85    1
    52   111   110    1
    53    28    27    1
    54   125   126    1
    55   113   114    1
    56    66    67    1
    57   131   130    2
    58   130   129    1
    59   115   114    1
    60   115   116    2
    61    85    86    1
    62   151   152    1
    63   126   129    1
    64   126   127    1
    65    15    14    2
    66   114   117    1
    67    27    24    1
    68   118   117    1
    69    67    68    1
    70   139   138    1
    71   139   133    1
    72    24    23    1
    73    24    25    1
    74     4     3    2
    75   152   155    1
    76   152   153    1
    77   157   159   ar
    78   157   156   ar
    79   155   156    1
    80   117   119    1
    81   138   137    1
    82   127   133   am
    83   127   128    2
    84    86    87    1
    85    14    23   am
    86    14    13    1
    87   133   134    1
    88    26    25    2
    89    68    69    1
    90   159   161   ar
    91    25    32   am
    92   156   158   ar
    93    16    13    1
    94    16    17    1
    95    69    70    2
    96     3     2    1
    97     3    12   am
    98     1     2    1
    99   153   154    2
   100    13    12    1
   101    88    87    1
   102   134   137    1
   103   134   135    1
   104    32    33    1
   105     5     2    1
   106     5     6    1
   107   161   160   ar
   108    70    72    1
   109    70    71    1
   110   158   160   ar
   111     8     6   ar
   112     8    10   ar
   113    18    17    1
   114    18    19    1
   115    33    34    1
   116     6     7   ar
   117   135   136    2
   118    10    11   ar
   119   148   146   ar
   120   148   150   ar
   121   146   145   ar
   122    19    20    2
   123    34    35    2
   124    34    36   am
   125   150   149   ar
   126     7     9   ar
   127   145   144    1
   128   145   147   ar
   129   144   141    1
   130    11     9   ar
   131    21    20    1
   132    61    60   ar
   133    61    59   ar
   134    60    58   ar
   135    42    41    1
   136    42    43    1
   137    36    37    1
   138    20    22    1
   139   149   147   ar
   140   141   140    1
   141   141   142    1
   142    41    40    1
   143    59    57   ar
   144    58    56   ar
   145    44    43    1
   146    57    56   ar
   147    56    55    1
   148    37    40    1
   149    37    38    1
   150   142   143    2
   151    55    52    1
   152    38    45   am
   153    38    39    2
   154    45    46    1
   155    52    53    1
   156    52    51    1
   157    53    54    2
   158    51    47   am
   159    47    46    1
   160    47    48    2
   161    50    49    1
   162    46    49    1
