@<TRIPOS>MOLECULE
tmp/3x1iB00.pdb
 195 185 0 0 0
SMALL
GASTEIGER

@<TRIPOS>ATOM
      1  N         42.0350   -7.3970   54.7360 N.3    44  LEU44      -0.1245
      2  CA        42.6100   -7.7250   53.4330 C.3    44  LEU44       0.1561
      3  C         43.9380   -8.4720   53.5990 C.2    44  LEU44       0.2260
      4  O         44.1440   -9.5530   53.0160 O.2    44  LEU44      -0.2867
      5  CB        42.8070   -6.4540   52.6070 C.3    44  LEU44       0.0270
      6  CG        43.5520   -6.6180   51.2920 C.3    44  LEU44       0.0019
      7  CD1       42.8580   -7.6000   50.3380 C.3    44  LEU44       0.0001
      8  CD2       43.6590   -5.2550   50.6650 C.3    44  LEU44       0.0001
      9  N         46.6820   -3.2050   43.7810 N.3    52  ARG52      -0.1231
     10  CA        46.7390   -4.6790   43.9090 C.3    52  ARG52       0.1694
     11  C         45.3870   -5.3630   43.7430 C.2    52  ARG52       0.2591
     12  O         45.2940   -6.4350   43.1920 O.2    52  ARG52      -0.2718
     13  CB        47.3320   -5.0980   45.2550 C.3    52  ARG52       0.0321
     14  CG        48.8030   -4.7530   45.4370 C.3    52  ARG52       0.0489
     15  CD        49.5230   -5.8130   46.2500 C.3    52  ARG52       0.2205
     16  NE        48.8630   -6.0400   47.5360 N.pl3  52  ARG52      -0.0865
     17  CZ        49.1100   -5.3610   48.6590 C.cat  52  ARG52       0.5346
     18  NH1       50.0260   -4.4050   48.6860 N.pl3  52  ARG52       0.1354
     19  NH2       48.4430   -5.6470   49.7720 N.pl3  52  ARG52       0.1354
     20  N         44.3380   -4.7350   44.2250 N.am   53  ILE53      -0.1980
     21  CA        42.9850   -5.2870   44.0800 C.3    53  ILE53       0.1595
     22  C         42.5400   -5.2670   42.6200 C.2    53  ILE53       0.2287
     23  O         41.9030   -6.2160   42.1580 O.2    53  ILE53      -0.2864
     24  CB        41.9440   -4.5090   44.9090 C.3    53  ILE53       0.0276
     25  CG1       42.3680   -4.4660   46.3740 C.3    53  ILE53       0.0022
     26  CG2       40.5620   -5.1370   44.7700 C.3    53  ILE53       0.0022
     27  CD1       41.3600   -3.7950   47.2830 C.3    53  ILE53       0.0001
     28  N         44.2860   -8.0100   40.7930 N.3    56  GLY56      -0.1210
     29  CA        43.6690   -9.3020   41.1030 C.3    56  GLY56       0.1956
     30  C         42.4110   -9.4820   40.2770 C.2    56  GLY56       0.2612
     31  O         42.1020  -10.5740   39.7870 O.2    56  GLY56      -0.2717
     32  N         41.6840   -8.3890   40.1220 N.am   57  CYS57      -0.1956
     33  CA        40.4720   -8.4080   39.3150 C.3    57  CYS57       0.1843
     34  C         40.8060   -8.7350   37.8640 C.2    57  CYS57       0.2625
     35  O         40.0880   -9.4910   37.2090 O.2    57  CYS57      -0.2714
     36  CB        39.7490   -7.0630   39.4000 C.3    57  CYS57       0.0997
     37  SG        38.8910   -6.7730   40.9640 S.3    57  CYS57      -0.0797
     38  N         41.8840   -8.1470   37.3550 N.am   58  GLN58      -0.1977
     39  CA        42.3510   -8.4470   36.0080 C.3    58  GLN58       0.1601
     40  C         42.7240   -9.9260   35.8580 C.2    58  GLN58       0.2287
     41  O         42.3720  -10.5800   34.8810 O.2    58  GLN58      -0.2864
     42  CB        43.5570   -7.5770   35.6520 C.3    58  GLN58       0.0394
     43  CG        43.3080   -6.0750   35.7710 C.3    58  GLN58       0.0908
     44  CD        42.6010   -5.4970   34.5640 C.2    58  GLN58       0.2608
     45  OE1       41.4340   -5.8000   34.2990 O.2    58  GLN58      -0.2717
     46  NE2       43.3060   -4.6510   33.8230 N.am   58  GLN58      -0.0878
     47  N         41.5650  -12.3750   37.5770 N.3    60  ARG60      -0.1231
     48  CA        40.3250  -13.1330   37.5950 C.3    60  ARG60       0.1694
     49  C         39.6700  -13.0970   36.2190 C.2    60  ARG60       0.2592
     50  O         39.1140  -14.1030   35.7410 O.2    60  ARG60      -0.2718
     51  CB        39.3600  -12.5990   38.6570 C.3    60  ARG60       0.0321
     52  CG        38.0150  -13.3020   38.6870 C.3    60  ARG60       0.0489
     53  CD        38.1550  -14.8130   38.6010 C.3    60  ARG60       0.2205
     54  NE        36.8800  -15.4070   38.2200 N.pl3  60  ARG60      -0.0865
     55  CZ        36.7450  -16.5630   37.5830 C.cat  60  ARG60       0.5346
     56  NH1       37.8160  -17.2490   37.2420 N.pl3  60  ARG60       0.1354
     57  NH2       35.5410  -17.0210   37.2620 N.pl3  60  ARG60       0.1354
     58  N         39.7490  -11.9330   35.5960 N.am   61  SER61      -0.1952
     59  CA        39.1210  -11.6970   34.2990 C.3    61  SER61       0.1924
     60  C         39.7400  -12.5570   33.2420 C.2    61  SER61       0.2314
     61  O         39.0240  -13.1340   32.4230 O.2    61  SER61      -0.2863
     62  CB        39.2310  -10.2180   33.8970 C.3    61  SER61       0.2116
     63  OG        38.5550   -9.4050   34.8640 O.3    61  SER61      -0.2180
     64  N         38.3490  -15.9270   33.5610 N.3    64  ALA64      -0.1245
     65  CA        36.9500  -15.9610   33.1420 C.3    64  ALA64       0.1562
     66  C         36.8430  -16.0390   31.6380 C.2    64  ALA64       0.2260
     67  O         35.9910  -16.7270   31.0960 O.2    64  ALA64      -0.2867
     68  CB        36.2190  -14.7140   33.6560 C.3    64  ALA64       0.0290
     69  N         31.1660  -11.0350   31.5140 N.3    98  ILE98      -0.1231
     70  CA        31.8240  -11.0260   32.7920 C.3    98  ILE98       0.1692
     71  C         31.0190  -10.2450   33.8230 C.2    98  ILE98       0.2592
     72  O         30.8590  -10.6640   34.9630 O.2    98  ILE98      -0.2718
     73  CB        33.2340  -10.4630   32.6410 C.3    98  ILE98       0.0266
     74  CG1       34.1290  -11.4980   31.9210 C.3    98  ILE98       0.0019
     75  CG2       33.8410  -10.1150   33.9850 C.3    98  ILE98       0.0020
     76  CD1       35.5550  -11.0120   31.6640 C.3    98  ILE98       0.0001
     77  N         30.5310   -9.0780   33.4190 N.am   99  TYR99      -0.1976
     78  CA        29.7440   -8.2090   34.3030 C.3    99  TYR99       0.1639
     79  C         28.4060   -8.8180   34.6520 C.2    99  TYR99       0.2290
     80  O         27.9110   -8.6940   35.7700 O.2    99  TYR99      -0.2864
     81  CB        29.5610   -6.8470   33.6880 C.3    99  TYR99       0.0560
     82  CG        30.7870   -5.9760   33.8040 C.ar   99  TYR99      -0.0198
     83  CD1       31.2740   -5.6170   35.0410 C.ar   99  TYR99      -0.0009
     84  CD2       31.4340   -5.4810   32.6820 C.ar   99  TYR99      -0.0009
     85  CE1       32.3760   -4.8030   35.1670 C.ar   99  TYR99       0.0417
     86  CE2       32.5400   -4.6680   32.7980 C.ar   99  TYR99       0.0417
     87  CZ        33.0060   -4.3380   34.0410 C.ar   99  TYR99       0.1957
     88  OH        34.0960   -3.5440   34.1900 O.3    99  TYR99      -0.2866
     89  N         27.9780  -12.0930   34.8550 N.3   101  MET101     -0.1230
     90  CA        28.2200  -13.2400   35.7190 C.3   101  MET101      0.1702
     91  C         28.5980  -12.6920   37.0540 C.2   101  MET101      0.2592
     92  O         28.2850  -13.2830   38.0580 O.2   101  MET101     -0.2718
     93  CB        29.3110  -14.1490   35.1690 C.3   101  MET101      0.0401
     94  CG        28.9360  -14.7480   33.8180 C.3   101  MET101      0.0596
     95  SD        29.6900  -16.3190   33.4910 S.3   101  MET101     -0.1393
     96  CE        31.4440  -15.8310   33.5340 C.3   101  MET101      0.0692
     97  N         29.2140  -11.5170   37.0570 N.am  102  LEU102     -0.1980
     98  CA        29.6530  -10.8890   38.2900 C.3   102  LEU102      0.1596
     99  C         28.4530  -10.6220   39.1860 C.2   102  LEU102      0.2287
    100  O         28.5300  -10.7920   40.4010 O.2   102  LEU102     -0.2864
    101  CB        30.3780   -9.5770   37.9860 C.3   102  LEU102      0.0297
    102  CG        31.5840   -9.2210   38.8550 C.3   102  LEU102      0.0022
    103  CD1       32.0600   -7.8100   38.5490 C.3   102  LEU102      0.0001
    104  CD2       31.2520   -9.3680   40.3300 C.3   102  LEU102      0.0001
    105  N         27.5330  -13.0380   41.9330 N.3   105  LEU105     -0.1245
    106  CA        28.3140  -13.1370   43.1730 C.3   105  LEU105      0.1561
    107  C         28.2230  -11.8620   43.9840 C.2   105  LEU105      0.2260
    108  O         29.0120  -11.6660   44.9280 O.2   105  LEU105     -0.2867
    109  CB        29.7800  -13.3970   42.8500 C.3   105  LEU105      0.0270
    110  CG        30.1050  -14.3800   41.7190 C.3   105  LEU105      0.0019
    111  CD1       31.5930  -14.6370   41.6190 C.3   105  LEU105      0.0001
    112  CD2       29.3900  -15.6850   41.8650 C.3   105  LEU105      0.0001
    113  N         30.7270   -8.2610   47.3610 N.3   111  VAL111     -0.1231
    114  CA        31.0330   -9.1960   46.2610 C.3   111  VAL111      0.1692
    115  C         31.9190  -10.3650   46.6820 C.2   111  VAL111      0.2592
    116  O         32.9310  -10.2080   47.3570 O.2   111  VAL111     -0.2718
    117  CB        31.7010   -8.4670   45.0870 C.3   111  VAL111      0.0266
    118  CG1       32.9400   -7.7090   45.5410 C.3   111  VAL111      0.0020
    119  CG2       32.0440   -9.4390   43.9800 C.3   111  VAL111      0.0020
    120  N         31.5220  -11.5600   46.2740 N.am  112  LEU112     -0.1966
    121  CA        32.3270  -12.7710   46.4960 C.3   112  LEU112      0.1728
    122  C         33.5730  -12.8290   45.6320 C.2   112  LEU112      0.2616
    123  O         33.5190  -12.4820   44.4640 O.2   112  LEU112     -0.2715
    124  CB        31.5080  -13.9900   46.1710 C.3   112  LEU112      0.0311
    125  CG        30.5300  -14.4950   47.2110 C.3   112  LEU112      0.0022
    126  CD1       29.9740  -15.8310   46.7520 C.3   112  LEU112      0.0001
    127  CD2       31.1640  -14.6490   48.6000 C.3   112  LEU112      0.0001
    128  N         34.6690  -13.3150   46.2020 N.am  113  ILE113     -0.1963
    129  CA        35.9660  -13.4240   45.5090 C.3   113  ILE113      0.1727
    130  C         36.6370  -14.7920   45.7030 C.2   113  ILE113      0.2617
    131  O         36.2740  -15.5580   46.6070 O.2   113  ILE113     -0.2715
    132  CB        36.9460  -12.3720   46.0280 C.3   113  ILE113      0.0290
    133  CG1       37.2170  -12.5690   47.5180 C.3   113  ILE113      0.0022
    134  CG2       36.3590  -10.9940   45.8270 C.3   113  ILE113      0.0023
    135  CD1       38.6570  -12.2890   47.8890 C.3   113  ILE113      0.0001
    136  N         37.6220  -15.0620   44.8420 N.am  114  SER114     -0.1936
    137  CA        38.4430  -16.2810   44.8330 C.3   114  SER114      0.2055
    138  C         37.6020  -17.5150   45.0360 C.2   114  SER114      0.2642
    139  O         37.7560  -18.2370   46.0230 O.2   114  SER114     -0.2714
    140  CB        39.5240  -16.2240   45.8950 C.3   114  SER114      0.2130
    141  OG        38.9250  -16.1630   47.1570 O.3   114  SER114     -0.2179
    142  N         36.6810  -17.7310   44.1070 N.am  115  GLU115     -0.1976
    143  CA        35.8970  -18.9610   44.0730 C.3   115  GLU115      0.1602
    144  C         34.9180  -19.0130   45.2330 C.2   115  GLU115      0.2287
    145  O         34.4140  -20.0860   45.6010 O.2   115  GLU115     -0.2864
    146  CB        36.8170  -20.1830   44.1200 C.3   115  GLU115      0.0415
    147  CG        38.1350  -19.9960   43.3570 C.3   115  GLU115      0.1163
    148  CD        39.1830  -21.0510   43.6660 C.2   115  GLU115      0.3649
    149  OE1       38.9360  -21.9670   44.5040 O.co2 115  GLU115     -0.2457
    150  OE2       40.2710  -20.9440   43.0580 O.co2 115  GLU115     -0.2457
    151  N         34.2530   -9.4420   49.7740 N.3   120  MET120     -0.1245
    152  CA        34.7800   -8.0900   49.8610 C.3   120  MET120      0.1570
    153  C         33.5940   -7.1410   49.9640 C.2   120  MET120      0.2261
    154  O         32.6730   -7.1950   49.1570 O.2   120  MET120     -0.2867
    155  CB        35.6190   -7.8000   48.6330 C.3   120  MET120      0.0387
    156  CG        36.7710   -6.8380   48.8680 C.3   120  MET120      0.0595
    157  SD        37.8540   -6.8040   47.4240 S.3   120  MET120     -0.1393
    158  CE        39.3310   -7.5340   48.1390 C.3   120  MET120      0.0692
    159  N         35.3620   -1.3510   49.0910 N.3   125  LEU125     -0.1245
    160  CA        35.6790   -1.0540   47.6680 C.3   125  LEU125      0.1561
    161  C         35.4670    0.4190   47.3160 C.2   125  LEU125      0.2260
    162  O         36.2390    1.0200   46.5630 O.2   125  LEU125     -0.2867
    163  CB        34.8450   -1.9310   46.7170 C.3   125  LEU125      0.0270
    164  CG        35.2020   -3.4280   46.7330 C.3   125  LEU125      0.0019
    165  CD1       34.1460   -4.2310   45.9980 C.3   125  LEU125      0.0001
    166  CD2       36.5760   -3.6950   46.1250 C.3   125  LEU125      0.0001
    167  N         34.7520    3.6810   40.1030 N.3   135  PHE135     -0.1227
    168  CA        34.7820    2.6400   39.0800 C.3   135  PHE135      0.1736
    169  C         34.0660    1.3850   39.4910 C.2   135  PHE135      0.2595
    170  O         33.3950    0.7640   38.6550 O.2   135  PHE135     -0.2718
    171  CB        36.2070    2.2400   38.7470 C.3   135  PHE135      0.0547
    172  CG        36.3240    0.9000   38.0580 C.ar  135  PHE135     -0.0202
    173  CD1       36.1200    0.8210   36.6850 C.ar  135  PHE135     -0.0042
    174  CD2       36.6330   -0.2420   38.7790 C.ar  135  PHE135     -0.0042
    175  CE1       36.2280   -0.4040   36.0210 C.ar  135  PHE135     -0.0003
    176  CE2       36.7650   -1.4600   38.1290 C.ar  135  PHE135     -0.0003
    177  CZ        36.5440   -1.5460   36.7530 C.ar  135  PHE135     -0.0000
    178  N         34.2020    0.9760   40.7470 N.am  136  MET136     -0.1979
    179  CA        33.4870   -0.2400   41.1740 C.3   136  MET136      0.1605
    180  C         32.0630   -0.0300   41.7360 C.2   136  MET136      0.2287
    181  O         31.2960   -0.9890   41.8190 O.2   136  MET136     -0.2864
    182  CB        34.3220   -1.0960   42.1330 C.3   136  MET136      0.0413
    183  CG        33.7880   -2.5290   42.2950 C.3   136  MET136      0.0598
    184  SD        34.2330   -3.7150   41.0050 S.3   136  MET136     -0.1393
    185  CE        33.3250   -5.1420   41.5520 C.3   136  MET136      0.0692
    186  N         33.5890    1.2120   31.7020 N.3   221  HIS221     -0.1241
    187  CA        34.7440    0.4640   32.1870 C.3   221  HIS221      0.1621
    188  C         36.0060    0.7660   31.3530 C.2   221  HIS221      0.2264
    189  O         37.0940    0.9900   31.8990 O.2   221  HIS221     -0.2867
    190  CB        34.4280   -1.0330   32.1840 C.3   221  HIS221      0.0745
    191  CG        35.6150   -1.9080   32.4240 C.ar  221  HIS221      0.0817
    192  ND1       36.1680   -2.0910   33.6730 N.ar  221  HIS221     -0.2268
    193  CD2       36.3380   -2.6770   31.5790 C.ar  221  HIS221      0.1154
    194  CE1       37.1860   -2.9270   33.5860 C.ar  221  HIS221      0.1986
    195  NE2       37.3090   -3.3010   32.3250 N.ar  221  HIS221     -0.2212
@<TRIPOS>BOND
     1    67    66    2
     2   188   189    2
     3   188   187    1
     4    69    70    1
     5   193   195   ar
     6   193   191   ar
     7    66    65    1
     8    76    74    1
     9   186   187    1
    10    74    73    1
    11   190   187    1
    12   190   191    1
    13   195   194   ar
    14    61    60    2
    15   191   192   ar
    16    73    70    1
    17    73    75    1
    18    84    86   ar
    19    84    82   ar
    20    70    71    1
    21    86    87   ar
    22    65    64    1
    23    65    68    1
    24    60    59    1
    25    77    71   am
    26    77    78    1
    27    95    96    1
    28    95    94    1
    29   194   192   ar
    30    81    82    1
    31    81    78    1
    32    82    83   ar
    33    94    93    1
    34    71    72    2
    35    46    44   am
    36    62    59    1
    37    62    63    1
    38    87    88    1
    39    87    85   ar
    40    59    58    1
    41    45    44    2
    42    78    79    1
    43    44    43    1
    44    79    80    2
    45    89    90    1
    46    41    40    2
    47    83    85   ar
    48    93    90    1
    49    58    49   am
    50    42    43    1
    51    42    39    1
    52    90    91    1
    53    50    49    2
    54    40    39    1
    55    39    38    1
    56   175   173   ar
    57   175   177   ar
    58    49    48    1
    59   173   172   ar
    60   177   176   ar
    61    91    97   am
    62    91    92    2
    63    97    98    1
    64    35    34    2
    65    56    55    1
    66    57    55    1
    67    38    34   am
    68    47    48    1
    69    55    54    2
    70    48    51    1
    71    34    33    1
    72   101    98    1
    73   101   102    1
    74   172   171    1
    75   172   174   ar
    76   176   174   ar
    77    54    53    1
    78    98    99    1
    79   103   102    1
    80    53    52    1
    81   170   169    2
    82    51    52    1
    83   171   168    1
    84   102   104    1
    85   168   169    1
    86   168   167    1
    87    99   100    2
    88    33    36    1
    89    33    32    1
    90    36    37    1
    91   169   178   am
    92    31    30    2
    93    32    30   am
    94    30    29    1
    95   178   179    1
    96    28    29    1
    97   184   185    1
    98   184   183    1
    99   179   180    1
   100   179   182    1
   101   111   110    1
   102   110   112    1
   103   110   109    1
   104   180   181    2
   105   105   106    1
   106   182   183    1
   107    23    22    2
   108    22    21    1
   109   109   106    1
   110   150   148   ar
   111   106   107    1
   112    12    11    2
   113   147   148    1
   114   147   146    1
   115   148   149   ar
   116    11    10    1
   117    11    20   am
   118     9    10    1
   119    10    13    1
   120   119   117    1
   121   107   108    2
   122   143   142    1
   123   143   146    1
   124   143   144    1
   125    21    20    1
   126    21    24    1
   127   142   138   am
   128   123   122    2
   129    26    24    1
   130   137   136    1
   131   137   138    1
   132   137   140    1
   133   136   130   am
   134    24    25    1
   135   138   139    2
   136   117   118    1
   137   117   114    1
   138   144   145    2
   139    13    14    1
   140    14    15    1
   141   129   130    1
   142   129   132    1
   143   129   128    1
   144   122   128   am
   145   122   121    1
   146   130   131    2
   147   134   132    1
   148   140   141    1
   149   165   164    1
   150   132   133    1
   151   166   164    1
   152   124   121    1
   153   124   125    1
   154    15    16    1
   155   114   115    1
   156   114   113    1
   157   120   121    1
   158   120   115   am
   159    25    27    1
   160   162   161    2
   161   115   116    2
   162   163   164    1
   163   163   160    1
   164   126   125    1
   165   125   127    1
   166   161   160    1
   167   157   158    1
   168   157   156    1
   169   133   135    1
   170    16    17    2
   171   160   159    1
   172   155   156    1
   173   155   152    1
   174    17    18    1
   175    17    19    1
   176   154   153    2
   177   151   152    1
   178   152   153    1
   179     7     6    1
   180     8     6    1
   181     6     5    1
   182     5     2    1
   183     4     3    2
   184     2     3    1
   185     2     1    1
