@<TRIPOS>MOLECULE
tmp/3x1kA00.pdb
 199 193 0 0 0
SMALL
GASTEIGER

@<TRIPOS>ATOM
      1  N        -15.1080  -10.1110  -24.9460 N.3     5  TYR5       -0.1228
      2  CA       -16.1510  -10.8760  -24.3020 C.3     5  TYR5        0.1721
      3  C        -17.3730  -10.9870  -25.2010 C.2     5  TYR5        0.2437
      4  O        -18.2150  -10.0810  -25.2280 O.2     5  TYR5       -0.2733
      5  CB       -16.5000  -10.2000  -22.9810 C.3     5  TYR5        0.0547
      6  CG       -17.5820  -10.8430  -22.1560 C.ar    5  TYR5       -0.0200
      7  CD1      -17.8690  -12.2010  -22.2600 C.ar    5  TYR5       -0.0009
      8  CD2      -18.2960  -10.0970  -21.2390 C.ar    5  TYR5       -0.0009
      9  CE1      -18.8510  -12.7930  -21.4850 C.ar    5  TYR5        0.0417
     10  CE2      -19.2830  -10.6880  -20.4600 C.ar    5  TYR5        0.0417
     11  CZ       -19.5500  -12.0320  -20.5920 C.ar    5  TYR5        0.1957
     12  OH       -20.5210  -12.6110  -19.8210 O.3     5  TYR5       -0.2866
     13  N        -17.4860  -12.1030  -25.9350 N.am    6  PRO6       -0.2718
     14  CA       -18.5880  -12.2230  -26.8940 C.3     6  PRO6        0.1535
     15  C        -19.7870  -12.9230  -26.2720 C.2     6  PRO6        0.2599
     16  O        -19.6320  -13.8020  -25.4320 O.2     6  PRO6       -0.2715
     17  CB       -17.9750  -13.0610  -28.0180 C.3     6  PRO6        0.0310
     18  CG       -17.0290  -13.9540  -27.3030 C.3     6  PRO6        0.0237
     19  CD       -16.5510  -13.2310  -26.0510 C.3     6  PRO6        0.0939
     20  N        -20.9750  -12.5210  -26.6810 N.am    7  GLY7       -0.1941
     21  CA       -22.1910  -13.1290  -26.1900 C.3     7  GLY7        0.2014
     22  C        -23.3620  -12.5680  -26.9620 C.2     7  GLY7        0.2640
     23  O        -23.1870  -11.7240  -27.8420 O.2     7  GLY7       -0.2714
     24  N        -24.5560  -13.0500  -26.6590 N.am    8  THR8       -0.1936
     25  CA       -25.7540  -12.5370  -27.2980 C.3     8  THR8        0.2028
     26  C        -26.3650  -11.3660  -26.5070 C.2     8  THR8        0.2642
     27  O        -26.8950  -10.4300  -27.0990 O.2     8  THR8       -0.2714
     28  CB       -26.7610  -13.6600  -27.5030 C.3     8  THR8        0.1808
     29  OG1      -26.1720  -14.6460  -28.3590 O.3     8  THR8       -0.2208
     30  CG2      -27.9910  -13.1260  -28.1840 C.3     8  THR8        0.0379
     31  N        -26.2300  -11.4120  -25.1800 N.am    9  PHE9       -0.1959
     32  CA       -26.6610  -10.3320  -24.3020 C.3     9  PHE9        0.1771
     33  C        -28.1100   -9.9490  -24.5860 C.2     9  PHE9        0.2619
     34  O        -28.4170   -8.7900  -24.9250 O.2     9  PHE9       -0.2715
     35  CB       -25.7200   -9.1200  -24.4280 C.3     9  PHE9        0.0574
     36  CG       -24.2640   -9.4570  -24.2060 C.ar    9  PHE9       -0.0200
     37  CD1      -23.8020   -9.7630  -22.9260 C.ar    9  PHE9       -0.0042
     38  CD2      -23.3570   -9.4690  -25.2650 C.ar    9  PHE9       -0.0042
     39  CE1      -22.4610  -10.0990  -22.7060 C.ar    9  PHE9       -0.0003
     40  CE2      -22.0030   -9.8010  -25.0580 C.ar    9  PHE9       -0.0003
     41  CZ       -21.5550  -10.1120  -23.7810 C.ar    9  PHE9       -0.0000
     42  N        -29.0000  -10.9310  -24.4810 N.am   10  ASP10      -0.1971
     43  CA       -30.3850  -10.6790  -24.8260 C.3    10  ASP10       0.1709
     44  C        -31.3450  -10.8000  -23.6620 C.2    10  ASP10       0.2293
     45  O        -32.1470  -11.7140  -23.6220 O.2    10  ASP10      -0.2864
     46  CB       -30.7760  -11.6700  -25.9260 C.3    10  ASP10       0.1436
     47  CG       -32.1740  -11.4650  -26.4410 C.2    10  ASP10       0.3671
     48  OD1      -32.6090  -10.2990  -26.5380 O.co2  10  ASP10      -0.2456
     49  OD2      -32.8480  -12.4870  -26.7070 O.co2  10  ASP10      -0.2456
     50  N        -27.3670   -8.8810  -18.4410 N.3    13  THR13      -0.1218
     51  CA       -27.9110   -9.1410  -17.1050 C.3    13  THR13       0.1862
     52  C        -26.8600   -8.8480  -16.0470 C.2    13  THR13       0.2287
     53  O        -25.7240   -8.5320  -16.3850 O.2    13  THR13      -0.2866
     54  CB       -28.3820  -10.6050  -16.9080 C.3    13  THR13       0.1770
     55  OG1      -27.2350  -11.4540  -16.8190 O.3    13  THR13      -0.2211
     56  CG2      -29.2340  -11.0750  -18.0490 C.3    13  THR13       0.0375
     57  N        -25.4370  -10.9500  -14.3080 N.3    15  GLY15      -0.1210
     58  CA       -24.4080  -11.9610  -14.3930 C.3    15  GLY15       0.1956
     59  C        -23.3500  -11.5080  -15.3800 C.2    15  GLY15       0.2611
     60  O        -22.1490  -11.5990  -15.0890 O.2    15  GLY15      -0.2717
     61  N        -23.7940  -10.9990  -16.5360 N.am   16  HIS16      -0.1975
     62  CA       -22.8650  -10.4540  -17.5200 C.3    16  HIS16       0.1656
     63  C        -22.1340   -9.2850  -16.8980 C.2    16  HIS16       0.2291
     64  O        -20.9190   -9.1620  -17.0200 O.2    16  HIS16      -0.2864
     65  CB       -23.5860   -9.9940  -18.7820 C.3    16  HIS16       0.0771
     66  CG       -24.2920  -11.0890  -19.5180 C.ar   16  HIS16       0.0820
     67  ND1      -25.6300  -11.0190  -19.8350 N.ar   16  HIS16      -0.2267
     68  CD2      -23.8310  -12.2470  -20.0490 C.ar   16  HIS16       0.1154
     69  CE1      -25.9730  -12.1130  -20.4970 C.ar   16  HIS16       0.1986
     70  NE2      -24.8990  -12.8650  -20.6480 N.ar   16  HIS16      -0.2212
     71  N        -19.2240  -10.0880  -14.5360 N.3    19  LEU19      -0.1245
     72  CA       -18.0320  -10.5230  -15.2500 C.3    19  LEU19       0.1561
     73  C        -17.3280   -9.3380  -15.9160 C.2    19  LEU19       0.2260
     74  O        -16.1030   -9.2890  -15.9880 O.2    19  LEU19      -0.2867
     75  CB       -18.3970  -11.5820  -16.2970 C.3    19  LEU19       0.0270
     76  CG       -17.9920  -13.0090  -15.9330 C.3    19  LEU19       0.0019
     77  CD1      -18.5230  -13.3790  -14.5710 C.3    19  LEU19       0.0001
     78  CD2      -18.4540  -14.0130  -16.9900 C.3    19  LEU19       0.0001
     79  N        -31.1130  -17.2790  -32.7400 N.3    40  LYS40      -0.1245
     80  CA       -31.6740  -17.2970  -31.4040 C.3    40  LYS40       0.1561
     81  C        -32.9420  -16.4500  -31.3070 C.2    40  LYS40       0.2260
     82  O        -33.4640  -16.2860  -30.2120 O.2    40  LYS40      -0.2867
     83  CB       -30.6330  -16.8050  -30.3970 C.3    40  LYS40       0.0271
     84  CG       -29.5950  -17.8390  -29.9620 C.3    40  LYS40       0.0035
     85  CD       -28.5550  -17.2320  -29.0010 C.3    40  LYS40       0.0206
     86  CE       -27.4970  -18.2500  -28.5450 C.3    40  LYS40       0.1093
     87  NZ       -26.3820  -17.6420  -27.7260 N.3    40  LYS40      -0.1314
     88  N        -14.9650  -15.8490  -21.4520 N.3    86  ARG86      -0.1231
     89  CA       -16.2820  -16.4660  -21.3620 C.3    86  ARG86       0.1694
     90  C        -16.6830  -16.8000  -19.9140 C.2    86  ARG86       0.2592
     91  O        -15.8170  -16.9570  -19.0410 O.2    86  ARG86      -0.2718
     92  CB       -16.3320  -17.7290  -22.2300 C.3    86  ARG86       0.0321
     93  CG       -16.2030  -17.4820  -23.7350 C.3    86  ARG86       0.0489
     94  CD       -17.4420  -16.8790  -24.3580 C.3    86  ARG86       0.2205
     95  NE       -18.4130  -17.9220  -24.6660 N.pl3  86  ARG86      -0.0865
     96  CZ       -19.6550  -17.7070  -25.0870 C.cat  86  ARG86       0.5346
     97  NH1      -20.0800  -16.4750  -25.2790 N.pl3  86  ARG86       0.1354
     98  NH2      -20.4690  -18.7310  -25.3150 N.pl3  86  ARG86       0.1354
     99  N        -17.9890  -16.9590  -19.6770 N.am   87  GLY87      -0.1957
    100  CA       -18.4790  -17.2910  -18.3530 C.3    87  GLY87       0.1869
    101  C        -18.7860  -18.7700  -18.1990 C.2    87  GLY87       0.2309
    102  O        -19.2010  -19.4180  -19.1550 O.2    87  GLY87      -0.2863
    103  N        -21.1080  -21.0420  -15.6770 N.3    89  ARG89      -0.1245
    104  CA       -22.0810  -21.1670  -14.5830 C.3    89  ARG89       0.1563
    105  C        -22.3100  -22.6200  -14.1830 C.2    89  ARG89       0.2260
    106  O        -22.5230  -22.9460  -13.0180 O.2    89  ARG89      -0.2867
    107  CB       -23.4450  -20.5850  -14.9820 C.3    89  ARG89       0.0307
    108  CG       -23.4830  -19.1160  -15.3630 C.3    89  ARG89       0.0489
    109  CD       -24.7650  -18.7960  -16.1520 C.3    89  ARG89       0.2205
    110  NE       -24.6370  -19.1700  -17.5600 N.pl3  89  ARG89      -0.0865
    111  CZ       -25.4740  -18.8020  -18.5280 C.cat  89  ARG89       0.5346
    112  NH1      -25.2640  -19.2020  -19.7750 N.pl3  89  ARG89       0.1354
    113  NH2      -26.5110  -18.0230  -18.2580 N.pl3  89  ARG89       0.1354
    114  N        -22.3890  -24.9740  -19.4300 N.3    93  ASP93      -0.1239
    115  CA       -21.5250  -23.9310  -19.9550 C.3    93  ASP93       0.1674
    116  C        -20.1490  -24.4990  -20.1780 C.2    93  ASP93       0.2266
    117  O        -19.5710  -24.3250  -21.2530 O.2    93  ASP93      -0.2867
    118  CB       -21.4420  -22.7520  -19.0040 C.3    93  ASP93       0.1410
    119  CG       -22.6740  -21.9010  -19.0380 C.2    93  ASP93       0.3668
    120  OD1      -23.3400  -21.8470  -20.0950 O.co2  93  ASP93      -0.2456
    121  OD2      -22.9920  -21.3100  -17.9890 O.co2  93  ASP93      -0.2456
    122  N        -19.7000  -26.5810  -23.3010 N.3    96  TYR96      -0.1227
    123  CA       -19.7980  -25.8530  -24.5290 C.3    96  TYR96       0.1736
    124  C        -18.5740  -24.9670  -24.7570 C.2    96  TYR96       0.2595
    125  O        -17.9680  -25.0230  -25.8280 O.2    96  TYR96      -0.2718
    126  CB       -21.0830  -25.0390  -24.5150 C.3    96  TYR96       0.0548
    127  CG       -21.2140  -24.1480  -25.6980 C.ar   96  TYR96      -0.0200
    128  CD1      -21.5020  -24.6710  -26.9460 C.ar   96  TYR96      -0.0009
    129  CD2      -21.0130  -22.7820  -25.5750 C.ar   96  TYR96      -0.0009
    130  CE1      -21.6120  -23.8630  -28.0440 C.ar   96  TYR96       0.0417
    131  CE2      -21.1120  -21.9570  -26.6680 C.ar   96  TYR96       0.0417
    132  CZ       -21.4160  -22.5000  -27.9030 C.ar   96  TYR96       0.1957
    133  OH       -21.5130  -21.6740  -28.9970 O.3    96  TYR96      -0.2866
    134  N        -18.1430  -24.2420  -23.7240 N.am   97  GLU97      -0.1979
    135  CA       -16.9960  -23.3470  -23.8590 C.3    97  GLU97       0.1602
    136  C        -15.7240  -24.1440  -24.1500 C.2    97  GLU97       0.2287
    137  O        -14.8370  -23.6920  -24.8770 O.2    97  GLU97      -0.2864
    138  CB       -16.8200  -22.5070  -22.5930 C.3    97  GLU97       0.0415
    139  CG       -18.0550  -21.6890  -22.2090 C.3    97  GLU97       0.1163
    140  CD       -18.4460  -20.6120  -23.2190 C.2    97  GLU97       0.3649
    141  OE1      -17.6890  -20.3840  -24.1780 O.co2  97  GLU97      -0.2457
    142  OE2      -19.5040  -19.9630  -23.0260 O.co2  97  GLU97      -0.2457
    143  N        -19.1140  -17.0720  -12.0060 N.3   118  PRO118     -0.2116
    144  CA       -19.8490  -15.9510  -11.4190 C.3   118  PRO118      0.1372
    145  C        -19.8360  -15.9710   -9.8960 C.2   118  PRO118      0.2244
    146  O        -19.6430  -17.0290   -9.3030 O.2   118  PRO118     -0.2868
    147  CB       -21.2740  -16.1710  -11.9290 C.3   118  PRO118      0.0268
    148  CG       -21.3730  -17.6630  -12.0620 C.3   118  PRO118      0.0207
    149  CD       -20.0110  -18.1180  -12.5330 C.3   118  PRO118      0.0892
    150  N        -24.9800  -14.3340   -8.5610 N.3   122  TYR122     -0.1241
    151  CA       -25.5160  -14.2520   -9.9210 C.3   122  TYR122      0.1605
    152  C        -25.4080  -15.5670  -10.6880 C.2   122  TYR122      0.2264
    153  O        -25.6500  -15.6140  -11.8890 O.2   122  TYR122     -0.2867
    154  CB       -24.8040  -13.1460  -10.7000 C.3   122  TYR122      0.0534
    155  CG       -24.6730  -11.8960   -9.8810 C.ar  122  TYR122     -0.0201
    156  CD1      -25.8080  -11.1930   -9.5130 C.ar  122  TYR122     -0.0009
    157  CD2      -23.4250  -11.4040   -9.4870 C.ar  122  TYR122     -0.0009
    158  CE1      -25.7310  -10.0580   -8.7700 C.ar  122  TYR122      0.0417
    159  CE2      -23.3340  -10.2420   -8.7330 C.ar  122  TYR122      0.0417
    160  CZ       -24.5030   -9.5710   -8.3810 C.ar  122  TYR122      0.1957
    161  OH       -24.4890   -8.4170   -7.6320 O.3   122  TYR122     -0.2866
    162  N        -28.4910  -16.8220  -12.7200 N.3   125  ILE125     -0.1231
    163  CA       -29.1010  -15.9110  -13.6880 C.3   125  ILE125      0.1692
    164  C        -28.8410  -16.3030  -15.1390 C.2   125  ILE125      0.2593
    165  O        -27.7030  -16.3920  -15.6010 O.2   125  ILE125     -0.2718
    166  CB       -28.6430  -14.4500  -13.4450 C.3   125  ILE125      0.0266
    167  CG1      -29.1760  -13.9610  -12.0910 C.3   125  ILE125      0.0019
    168  CG2      -29.1640  -13.5340  -14.5250 C.3   125  ILE125      0.0020
    169  CD1      -28.5270  -12.6900  -11.5870 C.3   125  ILE125      0.0001
    170  N        -29.9430  -16.5010  -15.8400 N.am  126  SER126     -0.1938
    171  CA       -29.9640  -16.8530  -17.2450 C.3   126  SER126      0.2055
    172  C        -30.6710  -15.7620  -18.0410 C.2   126  SER126      0.2644
    173  O        -31.6440  -15.1950  -17.5620 O.2   126  SER126     -0.2714
    174  CB       -30.7010  -18.1860  -17.4150 C.3   126  SER126      0.2130
    175  OG       -30.9080  -18.4880  -18.7730 O.3   126  SER126     -0.2179
    176  N        -30.2290  -15.4940  -19.2630 N.am  127  SER127     -0.1935
    177  CA       -30.9480  -14.5180  -20.0720 C.3   127  SER127      0.2055
    178  C        -32.2950  -15.0580  -20.4690 C.2   127  SER127      0.2643
    179  O        -33.3120  -14.3520  -20.4320 O.2   127  SER127     -0.2714
    180  CB       -30.1800  -14.1520  -21.3400 C.3   127  SER127      0.2130
    181  OG       -29.6130  -12.8660  -21.2280 O.3   127  SER127     -0.2179
    182  N        -32.2910  -16.3420  -20.7900 N.am  128  THR128     -0.1950
    183  CA       -33.4930  -17.0500  -21.1880 C.3   128  THR128      0.1897
    184  C        -34.5070  -17.0260  -20.0700 C.2   128  THR128      0.2313
    185  O        -35.7030  -16.8390  -20.2890 O.2   128  THR128     -0.2863
    186  CB       -33.1490  -18.4870  -21.5700 C.3   128  THR128      0.1794
    187  OG1      -32.1700  -18.4470  -22.6070 O.3   128  THR128     -0.2208
    188  CG2      -34.3900  -19.2440  -22.0600 C.3   128  THR128      0.0378
    189  N        -35.8850  -13.3500  -19.7320 N.3   131  ARG131     -0.1245
    190  CA       -36.8840  -13.1700  -20.7940 C.3   131  ARG131      0.1563
    191  C        -38.2260  -13.8600  -20.5150 C.2   131  ARG131      0.2260
    192  O        -39.2870  -13.2700  -20.6870 O.2   131  ARG131     -0.2867
    193  CB       -36.3540  -13.7110  -22.1420 C.3   131  ARG131      0.0307
    194  CG       -35.3020  -12.8400  -22.7980 C.3   131  ARG131      0.0489
    195  CD       -34.9670  -13.2470  -24.2280 C.3   131  ARG131      0.2205
    196  NE       -34.7070  -14.6670  -24.3900 N.pl3 131  ARG131     -0.0865
    197  CZ       -33.5080  -15.2170  -24.2450 C.cat 131  ARG131      0.5346
    198  NH1      -32.4840  -14.4580  -23.9090 N.pl3 131  ARG131      0.1354
    199  NH2      -33.3320  -16.5220  -24.4220 N.pl3 131  ARG131      0.1354
@<TRIPOS>BOND
     1    79    80    1
     2    80    81    1
     3    80    83    1
     4    81    82    2
     5    83    84    1
     6    84    85    1
     7    85    86    1
     8   133   132    1
     9    86    87    1
    10    29    28    1
    11    30    28    1
    12   130   132   ar
    13   130   128   ar
    14    17    18    1
    15    17    14    1
    16   132   131   ar
    17    23    22    2
    18    28    25    1
    19    18    19    1
    20    25    24    1
    21    25    26    1
    22    27    26    2
    23    22    24   am
    24    22    21    1
    25   128   127   ar
    26    14    15    1
    27    14    13    1
    28    49    47   ar
    29    20    15   am
    30    20    21    1
    31   131   129   ar
    32    48    47   ar
    33    26    31   am
    34    47    46    1
    35    15    16    2
    36    19    13    1
    37    13     3   am
    38    46    43    1
    39   125   124    2
    40   127   129   ar
    41   127   126    1
    42    98    96    1
    43    97    96    1
    44    38    40   ar
    45    38    36   ar
    46     4     3    2
    47     3     2    1
    48    31    32    1
    49    96    95    2
    50    40    41   ar
    51     1     2    1
    52    34    33    2
    53   137   136    2
    54    43    42    1
    55    43    44    1
    56   124   123    1
    57   124   134   am
    58    95    94    1
    59    33    42   am
    60    33    32    1
    61   123   126    1
    62   123   122    1
    63    35    32    1
    64    35    36    1
    65   199   197    1
    66   196   197    2
    67   196   195    1
    68    94    93    1
    69     2     5    1
    70   197   198    1
    71   195   194    1
    72    36    37   ar
    73   141   140   ar
    74   136   135    1
    75   135   134    1
    76   135   138    1
    77    41    39   ar
    78    93    92    1
    79    44    45    2
    80   140   142   ar
    81   140   139    1
    82     5     6    1
    83    37    39   ar
    84   194   193    1
    85   187   186    1
    86   138   139    1
    87     7     6   ar
    88     7     9   ar
    89    92    89    1
    90     6     8   ar
    91   193   190    1
    92   188   186    1
    93   186   183    1
    94     9    11   ar
    95    88    89    1
    96    89    90    1
    97   180   181    1
    98   180   177    1
    99   117   116    2
   100     8    10   ar
   101   183   182    1
   102   183   184    1
   103   190   191    1
   104   190   189    1
   105   182   178   am
   106   192   191    2
   107    70    69   ar
   108    70    68   ar
   109    11    10   ar
   110    11    12    1
   111    69    67   ar
   112   178   179    2
   113   178   177    1
   114   185   184    2
   115   116   115    1
   116   120   119   ar
   117   177   176    1
   118    68    66   ar
   119   115   114    1
   120   115   118    1
   121    90    99   am
   122    90    91    2
   123    67    66   ar
   124   112   111    1
   125    99   100    1
   126    66    65    1
   127   176   172   am
   128   102   101    2
   129   119   118    1
   130   119   121   ar
   131    65    62    1
   132   175   174    1
   133   111   113    1
   134   111   110    2
   135    50    51    1
   136   100   101    1
   137    56    54    1
   138   172   173    2
   139   172   171    1
   140   110   109    1
   141    62    63    1
   142    62    61    1
   143   174   171    1
   144   171   170    1
   145    51    54    1
   146    51    52    1
   147    64    63    2
   148    78    76    1
   149    54    55    1
   150    61    59   am
   151    53    52    2
   152    75    76    1
   153    75    72    1
   154   109   108    1
   155    74    73    2
   156    76    77    1
   157    73    72    1
   158   170   164   am
   159   103   104    1
   160   165   164    2
   161    59    60    2
   162    59    58    1
   163   108   107    1
   164    72    71    1
   165   164   163    1
   166   107   104    1
   167   104   105    1
   168   168   166    1
   169    58    57    1
   170   105   106    2
   171   163   166    1
   172   163   162    1
   173   166   167    1
   174   149   148    1
   175   149   143    1
   176   167   169    1
   177   148   147    1
   178   143   144    1
   179   147   144    1
   180   153   152    2
   181   144   145    1
   182   154   151    1
   183   154   155    1
   184   152   151    1
   185   151   150    1
   186   145   146    2
   187   155   156   ar
   188   155   157   ar
   189   156   158   ar
   190   157   159   ar
   191   158   160   ar
   192   159   160   ar
   193   160   161    1
