@<TRIPOS>MOLECULE
tmp/3x21H01.pdb
 148 139 0 0 0
SMALL
GASTEIGER

@<TRIPOS>ATOM
      1  N         -3.8670   48.7930   13.7740 N.3    10  ARG10      -0.1231
      2  CA        -4.9060   48.8510   14.8050 C.3    10  ARG10       0.1694
      3  C         -4.7380   47.6930   15.8020 C.2    10  ARG10       0.2592
      4  O         -4.1760   46.6730   15.4430 O.2    10  ARG10      -0.2718
      5  CB        -6.2620   48.8490   14.0790 C.3    10  ARG10       0.0321
      6  CG        -7.3400   47.9100   14.5220 C.3    10  ARG10       0.0489
      7  CD        -8.3470   48.5800   15.4140 C.3    10  ARG10       0.2205
      8  NE        -9.4180   47.6740   15.8270 N.pl3  10  ARG10      -0.0865
      9  CZ        -9.2480   46.5500   16.5280 C.cat  10  ARG10       0.5346
     10  NH1       -8.0380   46.1060   16.8560 N.pl3  10  ARG10       0.1354
     11  NH2      -10.3110   45.8330   16.8630 N.pl3  10  ARG10       0.1354
     12  N         -5.2050   47.8310   17.0430 N.am   11  HIS11      -0.1962
     13  CA        -5.0830   46.7310   18.0140 C.3    11  HIS11       0.1787
     14  C         -6.0800   46.8910   19.1590 C.2    11  HIS11       0.2620
     15  O         -6.6100   47.9840   19.3610 O.2    11  HIS11      -0.2715
     16  CB        -3.6660   46.6740   18.5890 C.3    11  HIS11       0.0785
     17  CG        -3.3450   47.8290   19.4810 C.ar   11  HIS11       0.0821
     18  ND1       -3.6100   47.8240   20.8350 N.ar   11  HIS11      -0.2267
     19  CD2       -2.8440   49.0540   19.2010 C.ar   11  HIS11       0.1154
     20  CE1       -3.2470   48.9810   21.3550 C.ar   11  HIS11       0.1986
     21  NE2       -2.7800   49.7470   20.3850 N.ar   11  HIS11      -0.2212
     22  N         -6.2910   45.8300   19.9410 N.am   12  SER12      -0.1950
     23  CA        -7.1120   45.9470   21.1480 C.3    12  SER12       0.1924
     24  C         -6.2970   46.5470   22.2950 C.2    12  SER12       0.2314
     25  O         -5.3010   45.9740   22.7310 O.2    12  SER12      -0.2863
     26  CB        -7.6960   44.5950   21.5670 C.3    12  SER12       0.2116
     27  OG        -8.4440   44.0170   20.5210 O.3    12  SER12      -0.2180
     28  N         -5.2880   47.6380   25.9900 N.3    14  LYS14      -0.1245
     29  CA        -5.4510   47.0310   27.3060 C.3    14  LYS14       0.1561
     30  C         -5.3550   48.0390   28.4450 C.2    14  LYS14       0.2260
     31  O         -5.7820   47.7610   29.5660 O.2    14  LYS14      -0.2867
     32  CB        -4.4200   45.9270   27.4950 C.3    14  LYS14       0.0271
     33  CG        -4.3890   44.9590   26.3210 C.3    14  LYS14       0.0035
     34  CD        -5.4550   43.8860   26.4150 C.3    14  LYS14       0.0206
     35  CE        -5.5450   43.1130   25.1100 C.3    14  LYS14       0.1093
     36  NZ        -6.6960   42.1720   25.1000 N.3    14  LYS14      -0.1314
     37  N        -11.5880   44.1010   33.2740 N.3    71  SER71      -0.1217
     38  CA       -12.1330   44.9220   32.2050 C.3    71  SER71       0.1889
     39  C        -12.5440   46.2870   32.7400 C.2    71  SER71       0.2288
     40  O        -12.9090   47.1760   31.9680 O.2    71  SER71      -0.2866
     41  CB       -13.3400   44.2380   31.5600 C.3    71  SER71       0.2089
     42  OG       -12.9390   43.2290   30.6550 O.3    71  SER71      -0.2183
     43  N        -10.3180   49.2580   32.0050 N.3    74  LYS74      -0.1245
     44  CA       -10.5160   49.5620   30.5980 C.3    74  LYS74       0.1561
     45  C        -11.7480   50.4440   30.3800 C.2    74  LYS74       0.2260
     46  O        -11.7570   51.3380   29.5280 O.2    74  LYS74      -0.2867
     47  CB       -10.6640   48.2700   29.8120 C.3    74  LYS74       0.0271
     48  CG        -9.4370   47.8820   29.0670 C.3    74  LYS74       0.0035
     49  CD        -9.5950   46.5460   28.4030 C.3    74  LYS74       0.0206
     50  CE        -8.6490   45.5720   29.0960 C.3    74  LYS74       0.1093
     51  NZ        -9.0040   44.1570   28.8220 N.3    74  LYS74      -0.1314
     52  N        -23.4160   42.7860   16.0600 N.3   144  TYR144     -0.1241
     53  CA       -22.0090   42.4410   15.9730 C.3   144  TYR144      0.1605
     54  C        -21.4000   42.9600   14.6730 C.2   144  TYR144      0.2264
     55  O        -20.2060   43.2680   14.6130 O.2   144  TYR144     -0.2867
     56  CB       -21.8380   40.9260   16.0800 C.3   144  TYR144      0.0534
     57  CG       -21.4690   40.4520   17.4690 C.ar  144  TYR144     -0.0201
     58  CD1      -22.4370   40.2770   18.4470 C.ar  144  TYR144     -0.0009
     59  CD2      -20.1540   40.1610   17.7940 C.ar  144  TYR144     -0.0009
     60  CE1      -22.1030   39.8470   19.7120 C.ar  144  TYR144      0.0417
     61  CE2      -19.8120   39.7220   19.0540 C.ar  144  TYR144      0.0417
     62  CZ       -20.7900   39.5630   20.0090 C.ar  144  TYR144      0.1957
     63  OH       -20.4510   39.1260   21.2710 O.3   144  TYR144     -0.2866
     64  N        -20.4480   46.4300   15.4510 N.3   147  VAL147     -0.1245
     65  CA       -19.2170   46.4610   16.2280 C.3   147  VAL147      0.1561
     66  C        -17.9970   46.3790   15.3220 C.2   147  VAL147      0.2260
     67  O        -17.0240   47.1030   15.5270 O.2   147  VAL147     -0.2867
     68  CB       -19.1480   45.3120   17.2640 C.3   147  VAL147      0.0252
     69  CG1      -17.9390   45.4890   18.1830 C.3   147  VAL147      0.0019
     70  CG2      -20.4150   45.2460   18.0760 C.3   147  VAL147      0.0019
     71  N        -15.0940   49.3770   14.9140 N.3   151  LEU151     -0.1245
     72  CA       -13.7260   49.1310   15.3640 C.3   151  LEU151      0.1561
     73  C        -12.7110   49.6390   14.3460 C.2   151  LEU151      0.2260
     74  O        -11.6450   50.1360   14.7110 O.2   151  LEU151     -0.2867
     75  CB       -13.5150   47.6310   15.6050 C.3   151  LEU151      0.0270
     76  CG       -14.1020   46.9980   16.8730 C.3   151  LEU151      0.0019
     77  CD1      -13.6970   45.5340   16.9870 C.3   151  LEU151      0.0001
     78  CD2      -13.7070   47.7680   18.1260 C.3   151  LEU151      0.0001
     79  N        -11.0460   48.9830   22.4590 N.3   162  VAL162     -0.1231
     80  CA       -11.0760   47.5480   22.6730 C.3   162  VAL162      0.1678
     81  C        -12.5010   47.0270   22.7010 C.2   162  VAL162      0.2434
     82  O        -13.3740   47.5960   23.3530 O.2   162  VAL162     -0.2733
     83  CB       -10.3580   47.1430   23.9700 C.3   162  VAL162      0.0265
     84  CG1      -10.9340   47.8660   25.1800 C.3   162  VAL162      0.0020
     85  CG2      -10.4180   45.6390   24.1470 C.3   162  VAL162      0.0020
     86  N        -12.7460   45.9310   21.9760 N.am  163  PRO163     -0.2718
     87  CA       -14.0470   45.2790   22.0910 C.3   163  PRO163      0.1535
     88  C        -14.0390   44.3970   23.3220 C.2   163  PRO163      0.2598
     89  O        -13.0120   43.7830   23.6030 O.2   163  PRO163     -0.2715
     90  CB       -14.1350   44.4520   20.8110 C.3   163  PRO163      0.0310
     91  CG       -12.7140   44.1970   20.4580 C.3   163  PRO163      0.0237
     92  CD       -11.9870   45.4380   20.8170 C.3   163  PRO163      0.0939
     93  N        -15.1450   44.3510   24.0560 N.am  164  ILE164     -0.1964
     94  CA       -15.1730   43.5830   25.2870 C.3   164  ILE164      0.1727
     95  C        -16.3940   42.6830   25.3480 C.2   164  ILE164      0.2616
     96  O        -17.5270   43.1410   25.1790 O.2   164  ILE164     -0.2715
     97  CB       -15.1560   44.4930   26.5290 C.3   164  ILE164      0.0290
     98  CG1      -13.8210   45.2210   26.6430 C.3   164  ILE164      0.0022
     99  CG2      -15.4210   43.6880   27.7870 C.3   164  ILE164      0.0023
    100  CD1      -13.8460   46.3560   27.6050 C.3   164  ILE164      0.0001
    101  N        -16.1490   41.3950   25.5660 N.am  165  GLU165     -0.1963
    102  CA       -17.2160   40.4500   25.8560 C.3   165  GLU165      0.1733
    103  C        -17.1310   40.0680   27.3110 C.2   165  GLU165      0.2616
    104  O        -18.0710   39.5060   27.8740 O.2   165  GLU165     -0.2715
    105  CB       -17.1080   39.1990   25.0000 C.3   165  GLU165      0.0429
    106  CG       -17.7950   39.2860   23.6690 C.3   165  GLU165      0.1163
    107  CD       -17.6890   37.9850   22.9110 C.2   165  GLU165      0.3649
    108  OE1      -17.1280   37.0190   23.4820 O.co2 165  GLU165     -0.2457
    109  OE2      -18.1850   37.9210   21.7640 O.co2 165  GLU165     -0.2457
    110  N        -16.0000   40.4120   27.9210 N.am  166  GLY166     -0.1955
    111  CA       -15.7350   40.0830   29.3080 C.3   166  GLY166      0.1869
    112  C        -16.4430   41.0330   30.2490 C.2   166  GLY166      0.2309
    113  O        -15.8220   41.8850   30.8870 O.2   166  GLY166     -0.2863
    114  N        -21.8820   43.6350   23.4920 N.3   187  VAL187     -0.1245
    115  CA       -20.4810   44.0270   23.4490 C.3   187  VAL187      0.1561
    116  C        -20.2840   45.4120   24.0610 C.2   187  VAL187      0.2260
    117  O        -21.1130   46.3020   23.8610 O.2   187  VAL187     -0.2867
    118  CB       -19.9510   44.0250   21.9930 C.3   187  VAL187      0.0252
    119  CG1      -18.5030   44.4940   21.9380 C.3   187  VAL187      0.0019
    120  CG2      -20.0960   42.6470   21.3710 C.3   187  VAL187      0.0019
    121  N         -0.3530   45.6430   24.5760 N.3   200  ASN200     -0.1240
    122  CA        -0.7630   45.0780   23.2920 C.3   200  ASN200      0.1653
    123  C         -0.3840   46.0250   22.1640 C.2   200  ASN200      0.2266
    124  O         -0.4570   45.6700   20.9810 O.2   200  ASN200     -0.2867
    125  CB        -2.2670   44.8100   23.2620 C.3   200  ASN200      0.1155
    126  CG        -2.6640   43.8460   22.1610 C.2   200  ASN200      0.2627
    127  OD1       -1.9630   42.8670   21.8940 O.2   200  ASN200     -0.2716
    128  ND2       -3.7830   44.1280   21.4990 N.am  200  ASN200     -0.0877
    129  N          1.1950   41.5920   15.6410 N.3   205  LYS205     -0.1245
    130  CA        -0.1350   41.0850   15.4080 C.3   205  LYS205      0.1561
    131  C         -0.0490   39.6630   14.9090 C.2   205  LYS205      0.2260
    132  O          0.8750   39.3020   14.1930 O.2   205  LYS205     -0.2867
    133  CB        -0.8720   41.9740   14.4190 C.3   205  LYS205      0.0271
    134  CG        -2.3550   41.8190   14.4930 C.3   205  LYS205      0.0035
    135  CD        -3.0590   42.8770   13.7190 C.3   205  LYS205      0.0206
    136  CE        -3.3640   43.9540   14.6980 C.3   205  LYS205      0.1093
    137  NZ        -4.3260   44.8960   14.1080 N.3   205  LYS205     -0.1314
    138  N         -2.2570   36.4350   13.1090 N.3   207  ARG207     -0.1245
    139  CA        -3.4430   35.9140   12.4630 C.3   207  ARG207      0.1563
    140  C         -3.0230   34.6430   11.7620 C.2   207  ARG207      0.2260
    141  O         -1.8450   34.4620   11.4400 O.2   207  ARG207     -0.2867
    142  CB        -4.0300   36.9150   11.4750 C.3   207  ARG207      0.0307
    143  CG        -4.6630   38.1200   12.1200 C.3   207  ARG207      0.0489
    144  CD        -5.9710   37.7800   12.8010 C.3   207  ARG207      0.2205
    145  NE        -6.6250   38.9730   13.3340 N.pl3 207  ARG207     -0.0865
    146  CZ        -6.1590   39.7090   14.3400 C.cat 207  ARG207      0.5346
    147  NH1       -5.0440   39.3660   14.9760 N.pl3 207  ARG207      0.1354
    148  NH2       -6.8300   40.7820   14.7280 N.pl3 207  ARG207      0.1354
@<TRIPOS>BOND
     1   141   140    2
     2   142   143    1
     3   142   139    1
     4   140   139    1
     5   143   144    1
     6   139   138    1
     7   144   145    1
     8   145   146    2
     9   135   134    1
    10   135   136    1
    11     1     2    1
    12     5     6    1
    13     5     2    1
    14   137   136    1
    15   132   131    2
    16   146   148    1
    17   146   147    1
    18    73    74    2
    19    73    72    1
    20   133   134    1
    21   133   130    1
    22     6     7    1
    23    55    54    2
    24    54    53    1
    25     2     3    1
    26   131   130    1
    27    71    72    1
    28    66    67    2
    29    66    65    1
    30    72    75    1
    31   130   129    1
    32     7     8    1
    33     4     3    2
    34    64    65    1
    35    75    76    1
    36     3    12   am
    37     8     9    2
    38    53    52    1
    39    53    56    1
    40    56    57    1
    41    65    68    1
    42     9    10    1
    43     9    11    1
    44    76    77    1
    45    76    78    1
    46    12    13    1
    47    68    70    1
    48    68    69    1
    49    57    59   ar
    50    57    58   ar
    51    59    61   ar
    52    13    16    1
    53    13    14    1
    54    58    60   ar
    55    16    17    1
    56    61    62   ar
    57    14    15    2
    58    14    22   am
    59    19    17   ar
    60    19    21   ar
    61    17    18   ar
    62    60    62   ar
    63    22    23    1
    64    62    63    1
    65    21    20   ar
    66    91    90    1
    67    91    92    1
    68    27    26    1
    69    90    87    1
    70    92    86    1
    71    18    20   ar
    72   124   123    2
    73    23    26    1
    74    23    24    1
    75   120   118    1
    76   128   126   am
    77   109   107   ar
    78   127   126    2
    79   119   118    1
    80    86    87    1
    81    86    81   am
    82   118   115    1
    83    87    88    1
    84   126   125    1
    85   123   122    1
    86    24    25    2
    87    79    80    1
    88    80    81    1
    89    80    83    1
    90    81    82    2
    91   107   108   ar
    92   107   106    1
    93   125   122    1
    94   122   121    1
    95    88    89    2
    96    88    93   am
    97   115   114    1
    98   115   116    1
    99   106   105    1
   100   117   116    2
   101    83    85    1
   102    83    84    1
   103    93    94    1
   104   105   102    1
   105    36    35    1
   106    35    34    1
   107    96    95    2
   108    94    95    1
   109    94    97    1
   110    95   101   am
   111   101   102    1
   112   102   103    1
   113    28    29    1
   114    33    34    1
   115    33    32    1
   116    97    98    1
   117    97    99    1
   118    98   100    1
   119    29    32    1
   120    29    30    1
   121   103   104    2
   122   103   110   am
   123   110   111    1
   124    49    48    1
   125    49    50    1
   126    30    31    2
   127    51    50    1
   128    48    47    1
   129   111   112    1
   130    46    45    2
   131    47    44    1
   132   112   113    2
   133    45    44    1
   134    44    43    1
   135    42    41    1
   136    41    38    1
   137    40    39    2
   138    38    39    1
   139    38    37    1
