@<TRIPOS>MOLECULE
tmp/3x21H00.pdb
 84 80 0 0 0
SMALL
GASTEIGER

@<TRIPOS>ATOM
      1  N        -25.0150   54.8620   11.0830 N.3    36  TYR36      -0.1241
      2  CA       -25.0760   54.5450    9.6560 C.3    36  TYR36       0.1605
      3  C        -24.4860   53.1910    9.2700 C.2    36  TYR36       0.2264
      4  O        -24.1890   52.9490    8.1050 O.2    36  TYR36      -0.2867
      5  CB       -24.3860   55.6620    8.8580 C.3    36  TYR36       0.0534
      6  CG       -25.2690   56.8800    8.6990 C.ar   36  TYR36      -0.0201
      7  CD1      -26.2240   56.9450    7.6940 C.ar   36  TYR36      -0.0009
      8  CD2      -25.2010   57.9350    9.6000 C.ar   36  TYR36      -0.0009
      9  CE1      -27.0530   58.0490    7.5650 C.ar   36  TYR36       0.0417
     10  CE2      -26.0320   59.0370    9.4810 C.ar   36  TYR36       0.0417
     11  CZ       -26.9530   59.0870    8.4650 C.ar   36  TYR36       0.1957
     12  OH       -27.7740   60.1830    8.3500 O.3    36  TYR36      -0.2866
     13  N        -24.8410   49.2480    8.4080 N.3    38  PRO38      -0.2102
     14  CA       -25.9300   48.4590    7.8280 C.3    38  PRO38       0.1504
     15  C        -26.4620   47.3750    8.7580 C.2    38  PRO38       0.2576
     16  O        -25.8000   46.9850    9.7150 O.2    38  PRO38      -0.2718
     17  CB       -25.2820   47.8220    6.5920 C.3    38  PRO38       0.0282
     18  CG       -23.8140   47.8300    6.8830 C.3    38  PRO38       0.0208
     19  CD       -23.5720   49.0690    7.6830 C.3    38  PRO38       0.0893
     20  N        -27.6840   46.9360    8.4930 N.am   39  SER39      -0.1938
     21  CA       -28.2640   45.7940    9.1870 C.3    39  SER39       0.2055
     22  C        -29.1390   45.0890    8.1800 C.2    39  SER39       0.2644
     23  O        -29.5290   45.6910    7.1870 O.2    39  SER39      -0.2714
     24  CB       -29.0810   46.1870   10.4230 C.3    39  SER39       0.2130
     25  OG       -29.9670   47.2660   10.1670 O.3    39  SER39      -0.2179
     26  N        -29.4360   43.8180    8.4250 N.am   40  SER40      -0.1935
     27  CA       -30.2850   43.0600    7.5160 C.3    40  SER40       0.2055
     28  C        -31.6360   43.7490    7.4340 C.2    40  SER40       0.2643
     29  O        -32.2110   44.0970    8.4610 O.2    40  SER40      -0.2714
     30  CB       -30.4570   41.6170    7.9940 C.3    40  SER40       0.2130
     31  OG       -31.3540   40.8900    7.1720 O.3    40  SER40      -0.2179
     32  N        -32.0830   44.0400    6.2120 N.am   41  LEU41      -0.1963
     33  CA       -33.3990   44.6400    5.9720 C.3    41  LEU41       0.1728
     34  C        -33.4450   46.0880    6.4550 C.2    41  LEU41       0.2616
     35  O        -34.5130   46.7110    6.4850 O.2    41  LEU41      -0.2715
     36  CB       -34.4950   43.8290    6.6570 C.3    41  LEU41       0.0311
     37  CG       -34.6920   42.4250    6.1080 C.3    41  LEU41       0.0022
     38  CD1      -35.5940   41.6710    7.0590 C.3    41  LEU41       0.0001
     39  CD2      -35.2630   42.4530    4.7080 C.3    41  LEU41       0.0001
     40  N        -32.2840   46.5910    6.8720 N.am   42  ASN42      -0.1972
     41  CA       -32.1650   47.8870    7.5340 C.3    42  ASN42       0.1688
     42  C        -33.0240   47.9140    8.7850 C.2    42  ASN42       0.2292
     43  O        -33.6560   48.9220    9.0950 O.2    42  ASN42      -0.2864
     44  CB       -32.5430   49.0330    6.6000 C.3    42  ASN42       0.1181
     45  CG       -31.8770   50.3390    6.9900 C.2    42  ASN42       0.2629
     46  OD1      -30.7830   50.3520    7.5670 O.2    42  ASN42      -0.2716
     47  ND2      -32.5330   51.4470    6.6770 N.am   42  ASN42      -0.0877
     48  N        -37.5390   55.3630    5.9380 N.3   102  GLU102     -0.1245
     49  CA       -37.0180   55.2850    4.5820 C.3   102  GLU102      0.1567
     50  C        -37.8850   56.1830    3.7120 C.2   102  GLU102      0.2260
     51  O        -37.4370   56.7480    2.7190 O.2   102  GLU102     -0.2867
     52  CB       -37.0300   53.8430    4.0580 C.3   102  GLU102      0.0388
     53  CG       -36.1470   52.8700    4.8350 C.3   102  GLU102      0.1160
     54  CD       -35.6410   51.7300    3.9670 C.2   102  GLU102      0.3649
     55  OE1      -36.1690   51.5430    2.8530 O.co2 102  GLU102     -0.2457
     56  OE2      -34.7210   51.0080    4.4000 O.co2 102  GLU102     -0.2457
     57  N        -36.8890   57.6170   -0.1850 N.3   107  ARG107     -0.1245
     58  CA       -36.4300   56.3770   -0.7950 C.3   107  ARG107      0.1563
     59  C        -37.5270   55.6860   -1.5960 C.2   107  ARG107      0.2260
     60  O        -37.2810   54.6670   -2.2460 O.2   107  ARG107     -0.2867
     61  CB       -35.8950   55.4300    0.2810 C.3   107  ARG107      0.0307
     62  CG       -34.5060   55.7800    0.7770 C.3   107  ARG107      0.0489
     63  CD       -33.9630   54.7260    1.7260 C.3   107  ARG107      0.2205
     64  NE       -33.8710   53.4180    1.0900 N.pl3 107  ARG107     -0.0865
     65  CZ       -32.8230   53.0080    0.3840 C.cat 107  ARG107      0.5346
     66  NH1      -31.8010   53.8310    0.1780 N.pl3 107  ARG107      0.1354
     67  NH2      -32.8140   51.7970   -0.1580 N.pl3 107  ARG107      0.1354
     68  N        -26.5830   41.2860   13.9950 N.3   142  GLN142     -0.1245
     69  CA       -26.5210   42.5420   13.2720 C.3   142  GLN142      0.1566
     70  C        -25.8580   43.5740   14.1460 C.2   142  GLN142      0.2260
     71  O        -25.2670   44.5370   13.6570 O.2   142  GLN142     -0.2867
     72  CB       -27.9200   43.0060   12.8710 C.3   142  GLN142      0.0367
     73  CG       -28.7940   41.8960   12.3490 C.3   142  GLN142      0.0905
     74  CD       -28.4480   41.5100   10.9260 C.2   142  GLN142      0.2608
     75  OE1      -28.0610   42.3540   10.1140 O.2   142  GLN142     -0.2717
     76  NE2      -28.5870   40.2240   10.6130 N.am  142  GLN142     -0.0878
     77  N        -22.2360   43.0810   13.6450 N.3   145  LEU145     -0.1245
     78  CA       -21.8210   43.6820   12.3870 C.3   145  LEU145      0.1561
     79  C        -21.4740   45.1460   12.5970 C.2   145  LEU145      0.2260
     80  O        -20.5170   45.6550   12.0200 O.2   145  LEU145     -0.2867
     81  CB       -22.9200   43.5340   11.3360 C.3   145  LEU145      0.0270
     82  CG       -22.5320   43.6160    9.8580 C.3   145  LEU145      0.0019
     83  CD1      -23.4210   42.6950    9.0500 C.3   145  LEU145      0.0001
     84  CD2      -22.6660   45.0340    9.3360 C.3   145  LEU145      0.0001
@<TRIPOS>BOND
     1    60    59    2
     2    59    58    1
     3    58    57    1
     4    58    61    1
     5    67    65    1
     6    66    65    1
     7    61    62    1
     8    65    64    2
     9    62    63    1
    10    64    63    1
    11    51    50    2
    12    55    54   ar
    13    50    49    1
    14    54    56   ar
    15    54    53    1
    16    52    49    1
    17    52    53    1
    18    49    48    1
    19    39    37    1
    20    33    32    1
    21    33    34    1
    22    33    36    1
    23    37    36    1
    24    37    38    1
    25    32    28   am
    26    34    35    2
    27    34    40   am
    28    17    18    1
    29    17    14    1
    30    44    45    1
    31    44    41    1
    32    47    45   am
    33    40    41    1
    34    18    19    1
    35    45    46    2
    36    31    30    1
    37    23    22    2
    38    28    27    1
    39    28    29    2
    40    27    30    1
    41    27    26    1
    42    41    42    1
    43     9     7   ar
    44     9    11   ar
    45    19    13    1
    46     7     6   ar
    47    14    13    1
    48    14    15    1
    49     4     3    2
    50    22    26   am
    51    22    21    1
    52    12    11    1
    53    11    10   ar
    54    20    15   am
    55    20    21    1
    56     6     5    1
    57     6     8   ar
    58    15    16    2
    59    42    43    2
    60     5     2    1
    61    83    82    1
    62    21    24    1
    63     3     2    1
    64    84    82    1
    65    10     8   ar
    66     2     1    1
    67    82    81    1
    68    75    74    2
    69    25    24    1
    70    76    74   am
    71    74    73    1
    72    81    78    1
    73    80    79    2
    74    73    72    1
    75    78    79    1
    76    78    77    1
    77    72    69    1
    78    69    68    1
    79    69    70    1
    80    71    70    2
