@<TRIPOS>MOLECULE
tmp/3x27D01.pdb
 125 118 0 0 0
SMALL
GASTEIGER

@<TRIPOS>ATOM
      1  N         73.9800  119.7160   80.6730 N.3    46  ALA46      -0.1231
      2  CA        74.5840  118.7610   81.5860 C.3    46  ALA46       0.1694
      3  C         74.6160  119.3670   82.9870 C.2    46  ALA46       0.2592
      4  O         75.0330  120.5110   83.1510 O.2    46  ALA46      -0.2718
      5  CB        76.0020  118.4210   81.1300 C.3    46  ALA46       0.0304
      6  N         74.1720  118.6140   83.9900 N.am   47  LEU47      -0.1966
      7  CA        74.2560  119.1000   85.3610 C.3    47  LEU47       0.1728
      8  C         75.5240  118.6060   86.0470 C.2    47  LEU47       0.2616
      9  O         75.8830  119.0960   87.1090 O.2    47  LEU47      -0.2715
     10  CB        73.0240  118.6890   86.1700 C.3    47  LEU47       0.0311
     11  CG        71.6560  119.2750   85.7930 C.3    47  LEU47       0.0022
     12  CD1       71.7560  120.7520   85.3770 C.3    47  LEU47       0.0001
     13  CD2       70.9500  118.4500   84.7060 C.3    47  LEU47       0.0001
     14  N         76.2080  117.6340   85.4400 N.am   48  VAL48      -0.1963
     15  CA        77.4230  117.0680   86.0400 C.3    48  VAL48       0.1727
     16  C         78.6750  117.2690   85.1690 C.2    48  VAL48       0.2616
     17  O         79.7290  117.6440   85.6670 O.2    48  VAL48      -0.2715
     18  CB        77.2300  115.5650   86.4090 C.3    48  VAL48       0.0290
     19  CG1       78.4290  115.0140   87.1430 C.3    48  VAL48       0.0023
     20  CG2       75.9920  115.3980   87.2490 C.3    48  VAL48       0.0023
     21  N         78.5540  117.0320   83.8690 N.am   49  SER49      -0.1950
     22  CA        79.7210  116.9710   82.9820 C.3    49  SER49       0.1924
     23  C         80.4430  118.2790   82.7320 C.2    49  SER49       0.2314
     24  O         81.6250  118.2600   82.4100 O.2    49  SER49      -0.2863
     25  CB        79.3290  116.3790   81.6260 C.3    49  SER49       0.2116
     26  OG        78.6880  115.1410   81.8150 O.3    49  SER49      -0.2180
     27  N         78.2070  121.6280   78.6320 N.3    52  HIS52      -0.1241
     28  CA        77.8130  120.5750   77.7340 C.3    52  HIS52       0.1621
     29  C         76.3090  120.6380   77.5240 C.2    52  HIS52       0.2264
     30  O         75.5380  120.6550   78.4880 O.2    52  HIS52      -0.2867
     31  CB        78.1830  119.2450   78.3770 C.3    52  HIS52       0.0745
     32  CG        78.5140  118.1740   77.3940 C.ar   52  HIS52       0.0817
     33  ND1       78.2430  116.8430   77.6260 N.ar   52  HIS52      -0.2268
     34  CD2       79.1000  118.2360   76.1740 C.ar   52  HIS52       0.1154
     35  CE1       78.6420  116.1310   76.5870 C.ar   52  HIS52       0.1986
     36  NE2       79.1700  116.9500   75.6950 N.ar   52  HIS52      -0.2212
     37  N         73.1310  118.6590   75.8260 N.3    54  TYR54      -0.1241
     38  CA        72.6200  117.4910   75.1220 C.3    54  TYR54       0.1605
     39  C         71.1020  117.5420   75.0010 C.2    54  TYR54       0.2264
     40  O         70.4200  118.1870   75.8110 O.2    54  TYR54      -0.2867
     41  CB        73.1120  116.1520   75.7230 C.3    54  TYR54       0.0534
     42  CG        72.7610  115.9000   77.1770 C.ar   54  TYR54      -0.0201
     43  CD1       71.5120  115.4070   77.5400 C.ar   54  TYR54      -0.0009
     44  CD2       73.6890  116.1550   78.1880 C.ar   54  TYR54      -0.0009
     45  CE1       71.1940  115.1770   78.8740 C.ar   54  TYR54       0.0417
     46  CE2       73.3850  115.9230   79.5230 C.ar   54  TYR54       0.0417
     47  CZ        72.1360  115.4320   79.8600 C.ar   54  TYR54       0.1957
     48  OH        71.8400  115.2100   81.1860 O.3    54  TYR54      -0.2866
     49  N         86.2470  113.3020   75.9080 N.3    73  ARG73      -0.1245
     50  CA        85.4560  114.4550   75.5200 C.3    73  ARG73       0.1563
     51  C         85.9660  115.7420   76.1720 C.2    73  ARG73       0.2260
     52  O         85.6810  116.8420   75.6820 O.2    73  ARG73      -0.2867
     53  CB        83.9760  114.2290   75.8280 C.3    73  ARG73       0.0307
     54  CG        83.6540  114.2500   77.3230 C.3    73  ARG73       0.0489
     55  CD        82.2100  113.8530   77.6160 C.3    73  ARG73       0.2205
     56  NE        81.9780  112.4590   77.2520 N.pl3  73  ARG73      -0.0865
     57  CZ        80.7900  111.8630   77.2160 C.cat  73  ARG73       0.5346
     58  NH1       79.6870  112.5380   77.5340 N.pl3  73  ARG73       0.1354
     59  NH2       80.7110  110.5920   76.8460 N.pl3  73  ARG73       0.1354
     60  N         73.1560  107.0380   74.5770 N.3    86  LEU86      -0.1245
     61  CA        72.0530  107.4780   75.4190 C.3    86  LEU86       0.1561
     62  C         70.9780  108.1930   74.5980 C.2    86  LEU86       0.2260
     63  O         70.0650  108.8080   75.1780 O.2    86  LEU86      -0.2867
     64  CB        72.5470  108.4000   76.5210 C.3    86  LEU86       0.0270
     65  CG        73.7570  107.9210   77.3240 C.3    86  LEU86       0.0019
     66  CD1       74.2560  109.0600   78.2080 C.3    86  LEU86       0.0001
     67  CD2       73.4240  106.6560   78.1420 C.3    86  LEU86       0.0001
     68  N         71.4850  110.8010   72.4820 N.3    88  HIS88      -0.1241
     69  CA        71.7200  112.2410   72.5460 C.3    88  HIS88       0.1621
     70  C         72.4540  112.7500   71.3230 C.2    88  HIS88       0.2264
     71  O         73.2740  112.0310   70.7560 O.2    88  HIS88      -0.2867
     72  CB        72.6470  112.5860   73.7170 C.3    88  HIS88       0.0745
     73  CG        72.0270  112.4350   75.0600 C.ar   88  HIS88       0.0817
     74  ND1       72.7770  112.2030   76.1910 N.ar   88  HIS88      -0.2268
     75  CD2       70.7350  112.4970   75.4610 C.ar   88  HIS88       0.1154
     76  CE1       71.9720  112.1220   77.2370 C.ar   88  HIS88       0.1986
     77  NE2       70.7290  112.2950   76.8210 N.ar   88  HIS88      -0.2212
     78  N         83.8150  115.4760   82.9080 N.3    98  GLU98      -0.1245
     79  CA        83.5570  114.0890   82.5190 C.3    98  GLU98       0.1567
     80  C         84.4720  113.6050   81.3970 C.2    98  GLU98       0.2260
     81  O         84.2640  113.9350   80.2420 O.2    98  GLU98      -0.2867
     82  CB        82.1010  113.9170   82.0990 C.3    98  GLU98       0.0388
     83  CG        81.7000  112.4770   81.9060 C.3    98  GLU98       0.1160
     84  CD        80.4560  112.3370   81.0570 C.2    98  GLU98       0.3649
     85  OE1       79.8400  113.3720   80.7340 O.co2  98  GLU98      -0.2457
     86  OE2       80.0980  111.1950   80.6980 O.co2  98  GLU98      -0.2457
     87  N         84.7740  110.6560   80.1390 N.3   100  LEU100     -0.1245
     88  CA        84.3120  109.4290   79.4950 C.3   100  LEU100      0.1561
     89  C         84.4040  109.5860   77.9840 C.2   100  LEU100      0.2260
     90  O         84.0500  110.6260   77.4510 O.2   100  LEU100     -0.2867
     91  CB        82.8780  109.0850   79.9210 C.3   100  LEU100      0.0270
     92  CG        82.7410  108.2670   81.2170 C.3   100  LEU100      0.0019
     93  CD1       83.2850  109.0270   82.4100 C.3   100  LEU100      0.0001
     94  CD2       81.3070  107.8090   81.4990 C.3   100  LEU100      0.0001
     95  N         65.5100  108.0710   85.1850 N.3   212  ARG212     -0.1245
     96  CA        66.6470  108.0810   84.2830 C.3   212  ARG212      0.1563
     97  C         67.2320  106.6870   83.9180 C.2   212  ARG212      0.2260
     98  O         67.2760  106.3360   82.7310 O.2   212  ARG212     -0.2867
     99  CB        67.7230  109.0600   84.7590 C.3   212  ARG212      0.0307
    100  CG        69.0090  108.9820   83.9570 C.3   212  ARG212      0.0489
    101  CD        69.9390  110.1080   84.3190 C.3   212  ARG212      0.2205
    102  NE        70.0680  110.2540   85.7730 N.pl3 212  ARG212     -0.0865
    103  CZ        69.5400  111.2610   86.4700 C.cat 212  ARG212      0.5346
    104  NH1       68.8510  112.2160   85.8540 N.pl3 212  ARG212      0.1354
    105  NH2       69.7140  111.3150   87.7760 N.pl3 212  ARG212      0.1354
    106  N         67.3480  104.8160   80.2850 N.3   216  TYR216     -0.1241
    107  CA        68.5740  104.6090   79.5150 C.3   216  TYR216      0.1605
    108  C         69.2320  103.2450   79.6790 C.2   216  TYR216      0.2264
    109  O         69.9660  102.7950   78.7940 O.2   216  TYR216     -0.2867
    110  CB        69.5890  105.7170   79.7850 C.3   216  TYR216      0.0534
    111  CG        70.5680  105.4400   80.9010 C.ar  216  TYR216     -0.0201
    112  CD1       71.7420  104.7250   80.6790 C.ar  216  TYR216     -0.0009
    113  CD2       70.3410  105.9420   82.1770 C.ar  216  TYR216     -0.0009
    114  CE1       72.6310  104.4880   81.6990 C.ar  216  TYR216      0.0417
    115  CE2       71.2330  105.7210   83.2050 C.ar  216  TYR216      0.0417
    116  CZ        72.3710  104.9920   82.9700 C.ar  216  TYR216      0.1957
    117  OH        73.2430  104.7800   84.0250 O.3   216  TYR216     -0.2866
    118  N         65.5080  116.4950   84.3310 N.3   297  LEU297     -0.1245
    119  CA        66.7110  117.3050   84.1920 C.3   297  LEU297      0.1561
    120  C         66.3710  118.7810   84.0560 C.2   297  LEU297      0.2260
    121  O         67.1330  119.6480   84.4850 O.2   297  LEU297     -0.2867
    122  CB        67.5110  116.8870   82.9620 C.3   297  LEU297      0.0270
    123  CG        68.1290  115.4900   82.9300 C.3   297  LEU297      0.0019
    124  CD1       68.7970  115.2510   81.5810 C.3   297  LEU297      0.0001
    125  CD2       69.1150  115.2650   84.0700 C.3   297  LEU297      0.0001
@<TRIPOS>BOND
     1    71    70    2
     2    70    69    1
     3    68    69    1
     4    69    72    1
     5    72    73    1
     6    60    61    1
     7    62    63    2
     8    62    61    1
     9    39    38    1
    10    39    40    2
    11    73    75   ar
    12    73    74   ar
    13    38    41    1
    14    38    37    1
    15    61    64    1
    16    75    77   ar
    17    50    53    1
    18    50    49    1
    19    50    51    1
    20    52    51    2
    21    36    34   ar
    22    36    35   ar
    23    41    42    1
    24    53    54    1
    25    34    32   ar
    26    74    76   ar
    27    64    65    1
    28    35    33   ar
    29    77    76   ar
    30    59    57    1
    31    42    43   ar
    32    42    44   ar
    33    57    56    2
    34    57    58    1
    35    56    55    1
    36    54    55    1
    37    65    67    1
    38    65    66    1
    39    32    33   ar
    40    32    31    1
    41    90    89    2
    42    29    28    1
    43    29    30    2
    44    43    45   ar
    45    28    31    1
    46    28    27    1
    47    89    88    1
    48    44    46   ar
    49   109   108    2
    50    45    47   ar
    51    88    91    1
    52    88    87    1
    53   107   108    1
    54   107   110    1
    55   107   106    1
    56    46    47   ar
    57   110   111    1
    58    47    48    1
    59    91    92    1
    60    81    80    2
    61     1     2    1
    62   112   111   ar
    63   112   114   ar
    64    86    84   ar
    65    85    84   ar
    66   111   113   ar
    67    84    83    1
    68     5     2    1
    69    92    94    1
    70    92    93    1
    71    80    79    1
    72   124   123    1
    73     2     3    1
    74    25    26    1
    75    25    22    1
    76   114   116   ar
    77    83    82    1
    78    82    79    1
    79   113   115   ar
    80    24    23    2
    81    79    78    1
    82    98    97    2
    83    23    22    1
    84   123   122    1
    85   123   125    1
    86   122   119    1
    87   116   115   ar
    88   116   117    1
    89    22    21    1
    90     3     4    2
    91     3     6   am
    92    21    16   am
    93    97    96    1
    94   100   101    1
    95   100    99    1
    96     6     7    1
    97   120   119    1
    98   120   121    2
    99   119   118    1
   100    96    99    1
   101    96    95    1
   102   101   102    1
   103    13    11    1
   104    16    17    2
   105    16    15    1
   106     7     8    1
   107     7    10    1
   108    12    11    1
   109    14    15    1
   110    14     8   am
   111   102   103    2
   112    11    10    1
   113   104   103    1
   114    15    18    1
   115     8     9    2
   116    18    19    1
   117    18    20    1
   118   103   105    1
