@<TRIPOS>MOLECULE
tmp/3x2kA05.pdb
 85 84 0 0 0
SMALL
GASTEIGER

@<TRIPOS>ATOM
      1  N         14.6370    3.4980  -11.6880 N.3    56  ARG56      -0.1231
      2  CA        14.6070    2.9400  -13.0310 C.3    56  ARG56       0.1694
      3  C         15.2640    3.8880  -14.0200 C.2    56  ARG56       0.2592
      4  O         15.1740    5.1130  -13.8810 O.2    56  ARG56      -0.2718
      5  CB        13.1810    2.6470  -13.4650 C.3    56  ARG56       0.0321
      6  CG        12.5050    1.6290  -12.5880 C.3    56  ARG56       0.0489
      7  CD        11.0390    1.3640  -13.0000 C.3    56  ARG56       0.2205
      8  NE        10.3970    0.4970  -12.0170 N.pl3  56  ARG56      -0.0865
      9  CZ        10.4990   -0.8360  -12.0130 C.cat  56  ARG56       0.5346
     10  NH1       11.1570   -1.4890  -12.9690 N.pl3  56  ARG56       0.1354
     11  NH2        9.9380   -1.5220  -11.0290 N.pl3  56  ARG56       0.1354
     12  N         15.9430    3.3070  -15.0050 N.am   57  CYS57      -0.1970
     13  CA        16.6030    4.0680  -16.0590 C.3    57  CYS57       0.1712
     14  C         15.8180    3.9260  -17.3510 C.2    57  CYS57       0.2296
     15  O         15.3480    2.8310  -17.6940 O.2    57  CYS57      -0.2864
     16  CB        18.0430    3.5640  -16.2710 C.3    57  CYS57       0.0983
     17  SG        19.1290    3.9000  -14.8670 S.3    57  CYS57      -0.0798
     18  N         12.3370    1.6450  -20.9240 N.3   139  GLU139     -0.1231
     19  CA        13.1260    1.2670  -19.7580 C.3   139  GLU139      0.1699
     20  C         14.3210    0.4190  -20.2000 C.2   139  GLU139      0.2592
     21  O         14.1460   -0.5350  -20.9630 O.2   139  GLU139     -0.2718
     22  CB        12.2530    0.5030  -18.7670 C.3   139  GLU139      0.0402
     23  CG        12.9060    0.3500  -17.4010 C.3   139  GLU139      0.1161
     24  CD        12.0410   -0.3610  -16.3630 C.2   139  GLU139      0.3649
     25  OE1       10.8400   -0.6180  -16.6260 O.co2 139  GLU139     -0.2457
     26  OE2       12.5740   -0.6680  -15.2640 O.co2 139  GLU139     -0.2457
     27  N         15.5250    0.7850  -19.7600 N.am  140  VAL140     -0.1966
     28  CA        16.7410    0.0930  -20.1510 C.3   140  VAL140      0.1727
     29  C         17.5630   -0.2240  -18.9200 C.2   140  VAL140      0.2617
     30  O         17.3400    0.3500  -17.8500 O.2   140  VAL140     -0.2715
     31  CB        17.5730    0.9330  -21.1510 C.3   140  VAL140      0.0290
     32  CG1       16.7690    1.1560  -22.4220 C.3   140  VAL140      0.0023
     33  CG2       18.0040    2.2710  -20.5500 C.3   140  VAL140      0.0023
     34  N         18.5140   -1.1420  -19.0500 N.am  141  SER141     -0.1936
     35  CA        19.4410   -1.3890  -17.9660 C.3   141  SER141      0.2055
     36  C         20.1350   -0.0970  -17.5200 C.2   141  SER141      0.2643
     37  O         20.5480    0.7220  -18.3500 O.2   141  SER141     -0.2714
     38  CB        20.4980   -2.3850  -18.4080 C.3   141  SER141      0.2130
     39  OG        21.5410   -2.4830  -17.4430 O.3   141  SER141     -0.2179
     40  N         20.3090    0.0570  -16.2010 N.am  142  CYS142     -0.1967
     41  CA        21.0860    1.1810  -15.6980 C.3   142  CYS142      0.1712
     42  C         22.5780    1.0480  -16.0200 C.2   142  CYS142      0.2296
     43  O         23.3400    1.9940  -15.8120 O.2   142  CYS142     -0.2864
     44  CB        20.8330    1.4190  -14.2170 C.3   142  CYS142      0.0983
     45  SG        19.1970    2.1280  -13.8480 S.3   142  CYS142     -0.0798
     46  N         14.8030    0.3820   -8.1980 N.3   161  GLY161     -0.1210
     47  CA        14.4230    0.1760   -9.5850 C.3   161  GLY161      0.1956
     48  C         15.6330    0.0340  -10.5030 C.2   161  GLY161      0.2612
     49  O         15.5170   -0.4810  -11.6260 O.2   161  GLY161     -0.2717
     50  N         16.7970    0.4970  -10.0340 N.am  162  GLU162     -0.1965
     51  CA        18.0060    0.4900  -10.8440 C.3   162  GLU162      0.1733
     52  C         18.5050   -0.9340  -11.1470 C.2   162  GLU162      0.2617
     53  O         19.2740   -1.1090  -12.1000 O.2   162  GLU162     -0.2715
     54  CB        19.1010    1.3450  -10.1820 C.3   162  GLU162      0.0429
     55  CG        19.6220    0.7460   -8.8770 C.3   162  GLU162      0.1163
     56  CD        20.2980    1.7500   -7.9530 C.2   162  GLU162      0.3649
     57  OE1       20.3640    2.9520   -8.2990 O.co2 162  GLU162     -0.2457
     58  OE2       20.7580    1.3230   -6.8690 O.co2 162  GLU162     -0.2457
     59  N         18.0520   -1.9430  -10.3840 N.am  163  THR163     -0.1937
     60  CA        18.4220   -3.3410  -10.6890 C.3   163  THR163      0.2028
     61  C         17.2260   -4.2820  -10.7350 C.2   163  THR163      0.2642
     62  O         17.3880   -5.4940  -10.8790 O.2   163  THR163     -0.2714
     63  CB        19.4170   -3.9340   -9.6910 C.3   163  THR163      0.1808
     64  OG1       18.8140   -3.9600   -8.3970 O.3   163  THR163     -0.2208
     65  CG2       20.7170   -3.1440   -9.6790 C.3   163  THR163      0.0379
     66  N         16.0230   -3.7390  -10.6220 N.am  164  ALA164     -0.1963
     67  CA        14.8130   -4.5580  -10.6980 C.3   164  ALA164      0.1713
     68  C         14.5250   -4.9220  -12.1570 C.2   164  ALA164      0.2458
     69  O         15.0350   -4.2820  -13.0680 O.2   164  ALA164     -0.2730
     70  CB        13.6360   -3.7970  -10.0960 C.3   164  ALA164      0.0333
     71  N         13.7070   -5.9550  -12.3950 N.am  165  PRO165     -0.2716
     72  CA        13.2850   -6.1860  -13.7830 C.3   165  PRO165      0.1536
     73  C         12.4310   -5.0270  -14.3040 C.2   165  PRO165      0.2598
     74  O         11.9490   -4.2090  -13.5160 O.2   165  PRO165     -0.2715
     75  CB        12.4620   -7.4830  -13.7000 C.3   165  PRO165      0.0310
     76  CG        12.7130   -8.0300  -12.2920 C.3   165  PRO165      0.0237
     77  CD        13.0010   -6.8350  -11.4550 C.3   165  PRO165      0.0939
     78  N         12.2250   -4.9730  -15.6150 N.am  166  ASN166     -0.1973
     79  CA        11.3830   -3.9320  -16.1960 C.3   166  ASN166      0.1688
     80  C          9.9920   -3.9230  -15.5940 C.2   166  ASN166      0.2292
     81  O          9.4400   -4.9700  -15.2290 O.2   166  ASN166     -0.2864
     82  CB        11.2140   -4.1490  -17.7000 C.3   166  ASN166      0.1181
     83  CG        12.2940   -3.4860  -18.5310 C.2   166  ASN166      0.2629
     84  OD1       13.3160   -3.0240  -18.0210 O.2   166  ASN166     -0.2716
     85  ND2       12.0660   -3.4390  -19.8430 N.am  166  ASN166     -0.0877
@<TRIPOS>BOND
     1    32    31    1
     2    31    33    1
     3    31    28    1
     4    21    20    2
     5    18    19    1
     6    20    27   am
     7    20    19    1
     8    28    27    1
     9    28    29    1
    10    85    83   am
    11    19    22    1
    12    34    29   am
    13    34    35    1
    14    29    30    2
    15    22    23    1
    16    83    84    2
    17    83    82    1
    18    38    35    1
    19    38    39    1
    20    37    36    2
    21    35    36    1
    22    82    79    1
    23    15    14    2
    24    36    40   am
    25    23    24    1
    26    14    13    1
    27    25    24   ar
    28    24    26   ar
    29    16    13    1
    30    16    17    1
    31    40    41    1
    32    79    78    1
    33    79    80    1
    34    13    12    1
    35    42    43    2
    36    42    41    1
    37    41    44    1
    38    78    73   am
    39    80    81    2
    40    12     3   am
    41    17    45    1
    42    73    72    1
    43    73    74    2
    44    44    45    1
    45     3     4    2
    46     3     2    1
    47    72    75    1
    48    72    71    1
    49    75    76    1
    50     5     2    1
    51     5     6    1
    52    69    68    2
    53     2     1    1
    54     7     6    1
    55     7     8    1
    56    10     9    1
    57    71    68   am
    58    71    77    1
    59    76    77    1
    60    68    67    1
    61    53    52    2
    62     8     9    2
    63     9    11    1
    64    49    48    2
    65    52    51    1
    66    52    59   am
    67    62    61    2
    68    51    54    1
    69    51    50    1
    70    61    60    1
    71    61    66   am
    72    67    66    1
    73    67    70    1
    74    60    59    1
    75    60    63    1
    76    48    50   am
    77    48    47    1
    78    54    55    1
    79    63    65    1
    80    63    64    1
    81    47    46    1
    82    55    56    1
    83    57    56   ar
    84    56    58   ar
