@<TRIPOS>MOLECULE
tmp/3x2mA00.pdb
 136 131 0 0 0
SMALL
GASTEIGER

@<TRIPOS>ATOM
      1  N         13.4620  -17.0560  -14.6360 N.3    16  THR16      -0.1203
      2  CA        14.8600  -17.2390  -14.9980 C.3    16  THR16       0.1994
      3  C         15.7160  -16.8400  -13.7940 C.2    16  THR16       0.2618
      4  O         15.1800  -16.4510  -12.7490 O.2    16  THR16      -0.2717
      5  CB        15.2530  -16.3830  -16.2250 C.3    16  THR16       0.1784
      6  OG1       14.8660  -15.0240  -16.0210 O.3    16  THR16      -0.2211
      7  CG2       14.5930  -16.9020  -17.4990 C.3    16  THR16       0.0376
      8  N         17.0350  -16.9340  -13.9540 N.am   17  MET17      -0.1965
      9  CA        17.9700  -16.4380  -12.9530 C.3    17  MET17       0.1736
     10  C         18.8840  -15.4070  -13.5960 C.2    17  MET17       0.2616
     11  O         19.1560  -15.4620  -14.8080 O.2    17  MET17      -0.2715
     12  CB        18.8070  -17.5810  -12.3530 C.3    17  MET17       0.0427
     13  CG        19.7760  -18.2010  -13.3640 C.3    17  MET17       0.0599
     14  SD        20.7750  -19.5580  -12.7050 S.3    17  MET17      -0.1393
     15  CE        19.5580  -20.8630  -12.6510 C.3    17  MET17       0.0692
     16  N         19.3840  -14.4880  -12.7690 N.am   18  TYR18      -0.1960
     17  CA        20.3360  -13.4910  -13.2250 C.3    18  TYR18       0.1771
     18  C         21.3790  -13.2030  -12.1640 C.2    18  TYR18       0.2620
     19  O         21.1900  -13.4860  -10.9780 O.2    18  TYR18      -0.2715
     20  CB        19.6540  -12.1880  -13.6540 C.3    18  TYR18       0.0574
     21  CG        19.2130  -11.2150  -12.5760 C.ar   18  TYR18      -0.0198
     22  CD1       18.0960  -11.4680  -11.7810 C.ar   18  TYR18      -0.0009
     23  CD2       19.8550   -9.9900  -12.4300 C.ar   18  TYR18      -0.0009
     24  CE1       17.6300  -10.5310  -10.8720 C.ar   18  TYR18       0.0417
     25  CE2       19.3950   -9.0370  -11.5360 C.ar   18  TYR18       0.0417
     26  CZ        18.2690   -9.3110  -10.7700 C.ar   18  TYR18       0.1957
     27  OH        17.7730   -8.3840   -9.8850 O.3    18  TYR18      -0.2866
     28  N         22.4760  -12.6110  -12.6270 N.am   19  SER19      -0.1950
     29  CA        23.5810  -12.2140  -11.7710 C.3    19  SER19       0.1924
     30  C         23.6690  -10.7140  -11.6150 C.2    19  SER19       0.2314
     31  O         23.4500   -9.9630  -12.5680 O.2    19  SER19      -0.2863
     32  CB        24.8980  -12.6830  -12.3710 C.3    19  SER19       0.2116
     33  OG        24.9530  -14.0900  -12.3880 O.3    19  SER19      -0.2180
     34  N          9.0940  -27.0900  -17.1520 N.3    65  ASP65      -0.1239
     35  CA        10.2900  -26.6350  -17.8500 C.3    65  ASP65       0.1674
     36  C          9.9110  -26.4630  -19.3230 C.2    65  ASP65       0.2266
     37  O          9.7270  -27.4480  -20.0340 O.2    65  ASP65      -0.2867
     38  CB        11.4160  -27.6520  -17.7060 C.3    65  ASP65       0.1410
     39  CG        12.6900  -27.2200  -18.4160 C.2    65  ASP65       0.3668
     40  OD1       12.6210  -26.3320  -19.2930 O.co2  65  ASP65      -0.2456
     41  OD2       13.7580  -27.7890  -18.1010 O.co2  65  ASP65      -0.2456
     42  N         11.5050  -25.5950  -21.8980 N.3    67  TYR67      -0.1227
     43  CA        12.4890  -26.0760  -22.8550 C.3    67  TYR67       0.1736
     44  C         12.5450  -27.6050  -22.9280 C.2    67  TYR67       0.2596
     45  O         13.0260  -28.1600  -23.9120 O.2    67  TYR67      -0.2718
     46  CB        13.8700  -25.5320  -22.5230 C.3    67  TYR67       0.0548
     47  CG        13.9760  -24.0400  -22.6340 C.ar   67  TYR67      -0.0200
     48  CD1       14.1960  -23.4330  -23.8630 C.ar   67  TYR67      -0.0009
     49  CD2       13.8850  -23.2320  -21.5090 C.ar   67  TYR67      -0.0009
     50  CE1       14.3270  -22.0520  -23.9690 C.ar   67  TYR67       0.0417
     51  CE2       14.0110  -21.8560  -21.6050 C.ar   67  TYR67       0.0417
     52  CZ        14.2360  -21.2640  -22.8340 C.ar   67  TYR67       0.1957
     53  OH        14.3870  -19.8940  -22.8940 O.3    67  TYR67      -0.2866
     54  N         12.0710  -28.2600  -21.8730 N.am   68  SER68      -0.1952
     55  CA        12.0480  -29.7090  -21.7660 C.3    68  SER68       0.1924
     56  C         10.6800  -30.1130  -21.2510 C.2    68  SER68       0.2314
     57  O         10.5280  -30.5090  -20.0930 O.2    68  SER68      -0.2863
     58  CB        13.1350  -30.2130  -20.8240 C.3    68  SER68       0.2116
     59  OG        14.4070  -30.0380  -21.4120 O.3    68  SER68      -0.2180
     60  N          8.9510  -32.6660  -21.5850 N.3    70  ASN70      -0.1240
     61  CA         8.8110  -34.0470  -21.1250 C.3    70  ASN70       0.1653
     62  C          9.2660  -34.2430  -19.6670 C.2    70  ASN70       0.2266
     63  O          9.0160  -35.2860  -19.0770 O.2    70  ASN70      -0.2867
     64  CB         9.5270  -35.0310  -22.0710 C.3    70  ASN70       0.1155
     65  CG         8.9480  -35.0100  -23.4780 C.2    70  ASN70       0.2627
     66  OD1        7.7410  -34.8610  -23.6470 O.2    70  ASN70      -0.2716
     67  ND2        9.8090  -35.1220  -24.4910 N.am   70  ASN70      -0.0877
     68  N         13.0290   -6.1190  -14.8660 N.3    87  CYS87      -0.1235
     69  CA        13.4140   -6.8780  -16.0530 C.3    87  CYS87       0.1677
     70  C         12.7720   -6.1280  -17.2300 C.2    87  CYS87       0.2270
     71  O         11.5700   -6.2580  -17.4770 O.2    87  CYS87      -0.2867
     72  CB        12.9030   -8.3190  -15.9450 C.3    87  CYS87       0.0956
     73  SG        13.4360   -9.3610  -17.3280 S.3    87  CYS87      -0.0801
     74  N         15.9270   -5.7450  -24.5430 N.3    91  GLY91      -0.1210
     75  CA        16.9430   -6.7590  -24.3340 C.3    91  GLY91       0.1956
     76  C         16.4440   -8.0700  -23.7510 C.2    91  GLY91       0.2611
     77  O         17.2360   -8.9890  -23.5740 O.2    91  GLY91      -0.2717
     78  N         15.1470   -8.1620  -23.4580 N.am   92  ASN92      -0.1974
     79  CA        14.5630   -9.3650  -22.8580 C.3    92  ASN92       0.1688
     80  C         13.2680   -9.7650  -23.5540 C.2    92  ASN92       0.2292
     81  O         12.2320   -9.9420  -22.9160 O.2    92  ASN92      -0.2864
     82  CB        14.2810   -9.1430  -21.3770 C.3    92  ASN92       0.1181
     83  CG        15.5280   -8.8500  -20.5860 C.2    92  ASN92       0.2629
     84  OD1       16.4220   -9.6950  -20.4660 O.2    92  ASN92      -0.2716
     85  ND2       15.5870   -7.6650  -20.0070 N.am   92  ASN92      -0.0877
     86  N         12.2130  -12.5070  -25.0050 N.3    94  GLU94      -0.1231
     87  CA        11.6210  -13.8150  -24.7770 C.3    94  GLU94       0.1699
     88  C         10.7640  -13.8300  -23.5140 C.2    94  GLU94       0.2592
     89  O          9.6660  -14.3930  -23.5070 O.2    94  GLU94      -0.2718
     90  CB        12.7010  -14.8930  -24.7020 C.3    94  GLU94       0.0402
     91  CG        12.1430  -16.2890  -24.5000 C.3    94  GLU94       0.1161
     92  CD        13.1910  -17.3920  -24.5630 C.2    94  GLU94       0.3649
     93  OE1       14.3840  -17.0980  -24.7850 O.co2  94  GLU94      -0.2457
     94  OE2       12.8090  -18.5680  -24.3870 O.co2  94  GLU94      -0.2457
     95  N         11.2730  -13.2130  -22.4460 N.am   95  PHE95      -0.1976
     96  CA        10.6610  -13.3560  -21.1290 C.3    95  PHE95       0.1639
     97  C          9.9930  -12.1150  -20.5520 C.2    95  PHE95       0.2290
     98  O          9.0500  -12.2610  -19.7780 O.2    95  PHE95      -0.2864
     99  CB        11.6960  -13.8760  -20.1220 C.3    95  PHE95       0.0560
    100  CG        12.0510  -15.3240  -20.3480 C.ar   95  PHE95      -0.0200
    101  CD1       11.1420  -16.3150  -20.0310 C.ar   95  PHE95      -0.0042
    102  CD2       13.2660  -15.6910  -20.9090 C.ar   95  PHE95      -0.0042
    103  CE1       11.4390  -17.6550  -20.2460 C.ar   95  PHE95      -0.0003
    104  CE2       13.5680  -17.0300  -21.1360 C.ar   95  PHE95      -0.0003
    105  CZ        12.6550  -18.0080  -20.8000 C.ar   95  PHE95      -0.0000
    106  N         12.7500  -12.7400  -12.6520 N.3   114  ASP114     -0.1239
    107  CA        14.1680  -13.0430  -12.8590 C.3   114  ASP114      0.1674
    108  C         14.7650  -13.0950  -11.4540 C.2   114  ASP114      0.2266
    109  O         14.8590  -12.0720  -10.7700 O.2   114  ASP114     -0.2867
    110  CB        14.7920  -11.9300  -13.7160 C.3   114  ASP114      0.1410
    111  CG        16.0640  -12.3280  -14.4650 C.2   114  ASP114      0.3668
    112  OD1       16.4310  -13.5190  -14.4970 O.co2 114  ASP114     -0.2456
    113  OD2       16.6620  -11.3830  -15.0410 O.co2 114  ASP114     -0.2456
    114  N         20.4720  -28.1180  -13.9770 N.3   129  GLY129     -0.1210
    115  CA        20.1160  -28.4770  -15.3360 C.3   129  GLY129      0.1956
    116  C         18.7770  -27.9380  -15.8240 C.2   129  GLY129      0.2612
    117  O         18.3730  -28.2340  -16.9480 O.2   129  GLY129     -0.2717
    118  N         18.0850  -27.1550  -14.9970 N.am  130  HIS130     -0.1961
    119  CA        16.7890  -26.5910  -15.3790 C.3   130  HIS130      0.1787
    120  C         16.7030  -25.1550  -14.8790 C.2   130  HIS130      0.2621
    121  O         16.1130  -24.8860  -13.8330 O.2   130  HIS130     -0.2715
    122  CB        15.6500  -27.4300  -14.8020 C.3   130  HIS130      0.0785
    123  CG        15.7040  -28.8640  -15.2170 C.ar  130  HIS130      0.0821
    124  ND1       15.0150  -29.3490  -16.3050 N.ar  130  HIS130     -0.2267
    125  CD2       16.3980  -29.9100  -14.7120 C.ar  130  HIS130      0.1154
    126  CE1       15.2700  -30.6380  -16.4450 C.ar  130  HIS130      0.1986
    127  NE2       16.1060  -31.0030  -15.4900 N.ar  130  HIS130     -0.2212
    128  N         17.3110  -24.2390  -15.6330 N.am  131  GLY131     -0.1940
    129  CA        17.4840  -22.8590  -15.2050 C.3   131  GLY131      0.2014
    130  C         16.4560  -21.8610  -15.6990 C.2   131  GLY131      0.2638
    131  O         16.6600  -20.6500  -15.5800 O.2   131  GLY131     -0.2714
    132  N         15.3450  -22.3640  -16.2270 N.am  132  ALA132     -0.1977
    133  CA        14.2240  -21.5360  -16.6570 C.3   132  ALA132      0.1597
    134  C         12.9810  -22.4030  -16.5450 C.2   132  ALA132      0.2287
    135  O         12.9910  -23.5620  -16.9760 O.2   132  ALA132     -0.2864
    136  CB        14.4130  -21.0440  -18.0880 C.3   132  ALA132      0.0319
@<TRIPOS>BOND
     1    86    87    1
     2    93    92   ar
     3    87    90    1
     4    87    88    1
     5    90    91    1
     6    92    91    1
     7    92    94   ar
     8    74    75    1
     9    67    65   am
    10    75    76    1
    11    50    48   ar
    12    50    52   ar
    13    45    44    2
    14    48    47   ar
    15    76    77    2
    16    76    78   am
    17    66    65    2
    18    80    81    2
    19    80    79    1
    20    88    89    2
    21    88    95   am
    22    65    64    1
    23    78    79    1
    24    44    43    1
    25    44    54   am
    26    53    52    1
    27    79    82    1
    28    43    46    1
    29    43    42    1
    30    52    51   ar
    31    47    46    1
    32    47    49   ar
    33    95    96    1
    34    64    61    1
    35    54    55    1
    36    55    56    1
    37    55    58    1
    38    51    49   ar
    39    60    61    1
    40    59    58    1
    41    82    83    1
    42    56    57    2
    43   104   102   ar
    44   104   105   ar
    45    96    97    1
    46    96    99    1
    47    61    62    1
    48   102   100   ar
    49   105   103   ar
    50    83    84    2
    51    83    85   am
    52    97    98    2
    53   100    99    1
    54   100   101   ar
    55   103   101   ar
    56    37    36    2
    57    62    63    2
    58    36    35    1
    59    40    39   ar
    60    39    41   ar
    61    39    38    1
    62   136   133    1
    63    35    38    1
    64    35    34    1
    65     7     5    1
    66    71    70    2
    67    73    72    1
    68    70    69    1
    69   135   134    2
    70   117   116    2
    71   133   134    1
    72   133   132    1
    73   126   124   ar
    74   126   127   ar
    75   124   123   ar
    76   132   130   am
    77     5     6    1
    78     5     2    1
    79    69    72    1
    80    69    68    1
    81   116   115    1
    82   116   118   am
    83   130   131    2
    84   130   129    1
    85   128   129    1
    86   128   120   am
    87   127   125   ar
    88   119   118    1
    89   119   120    1
    90   119   122    1
    91   115   114    1
    92   123   122    1
    93   123   125   ar
    94   113   111   ar
    95     2     1    1
    96     2     3    1
    97   120   121    2
    98    11    10    2
    99   112   111   ar
   100   111   110    1
   101     8     3   am
   102     8     9    1
   103     3     4    2
   104   110   107    1
   105    20    17    1
   106    20    21    1
   107    10     9    1
   108    10    16   am
   109    13    14    1
   110    13    12    1
   111    17    16    1
   112    17    18    1
   113     9    12    1
   114   107   106    1
   115   107   108    1
   116    14    15    1
   117    28    18   am
   118    28    29    1
   119    21    23   ar
   120    21    22   ar
   121    31    30    2
   122    23    25   ar
   123    33    32    1
   124    32    29    1
   125    18    19    2
   126    22    24   ar
   127    29    30    1
   128    25    26   ar
   129   108   109    2
   130    24    26   ar
   131    26    27    1
