@<TRIPOS>MOLECULE
tmp/3x2mA01.pdb
 150 148 0 0 0
SMALL
GASTEIGER

@<TRIPOS>ATOM
      1  N         19.3840  -14.4880  -12.7690 N.3    18  TYR18      -0.1227
      2  CA        20.3360  -13.4910  -13.2250 C.3    18  TYR18       0.1736
      3  C         21.3790  -13.2030  -12.1640 C.2    18  TYR18       0.2596
      4  O         21.1900  -13.4860  -10.9780 O.2    18  TYR18      -0.2718
      5  CB        19.6540  -12.1880  -13.6540 C.3    18  TYR18       0.0548
      6  CG        19.2130  -11.2150  -12.5760 C.ar   18  TYR18      -0.0200
      7  CD1       18.0960  -11.4680  -11.7810 C.ar   18  TYR18      -0.0009
      8  CD2       19.8550   -9.9900  -12.4300 C.ar   18  TYR18      -0.0009
      9  CE1       17.6300  -10.5310  -10.8720 C.ar   18  TYR18       0.0417
     10  CE2       19.3950   -9.0370  -11.5360 C.ar   18  TYR18       0.0417
     11  CZ        18.2690   -9.3110  -10.7700 C.ar   18  TYR18       0.1957
     12  OH        17.7730   -8.3840   -9.8850 O.3    18  TYR18      -0.2866
     13  N         22.4760  -12.6110  -12.6270 N.am   19  SER19      -0.1938
     14  CA        23.5810  -12.2140  -11.7710 C.3    19  SER19       0.2055
     15  C         23.6690  -10.7140  -11.6150 C.2    19  SER19       0.2644
     16  O         23.4500   -9.9630  -12.5680 O.2    19  SER19      -0.2714
     17  CB        24.8980  -12.6830  -12.3710 C.3    19  SER19       0.2130
     18  OG        24.9530  -14.0900  -12.3880 O.3    19  SER19      -0.2179
     19  N         24.0230  -10.2790  -10.4140 N.am   20  GLY20      -0.1939
     20  CA        24.3270   -8.8840  -10.1750 C.3    20  GLY20       0.2014
     21  C         23.1220   -8.0420   -9.8340 C.2    20  GLY20       0.2639
     22  O         22.7010   -7.1950  -10.6180 O.2    20  GLY20      -0.2714
     23  N         22.5630   -8.2660   -8.6490 N.am   21  CYS21      -0.1967
     24  CA        21.3740   -7.5300   -8.2230 C.3    21  CYS21       0.1712
     25  C         21.6570   -6.5130   -7.1180 C.2    21  CYS21       0.2296
     26  O         20.7320   -6.0550   -6.4550 O.2    21  CYS21      -0.2864
     27  CB        20.2300   -8.4760   -7.8220 C.3    21  CYS21       0.0983
     28  SG        20.6010   -9.6050   -6.4760 S.3    21  CYS21      -0.0798
     29  N         22.6830   -3.3420   -7.2840 N.3    23  SER23      -0.1203
     30  CA        22.3190   -1.9510   -7.4820 C.3    23  SER23       0.2005
     31  C         21.1150   -1.8900   -8.4160 C.2    23  SER23       0.2461
     32  O         21.2180   -1.4270   -9.5470 O.2    23  SER23      -0.2732
     33  CB        23.5000   -1.1560   -8.0270 C.3    23  SER23       0.2103
     34  OG        23.1350    0.2020   -8.1430 O.3    23  SER23      -0.2182
     35  N         19.9620   -2.3790   -7.9350 N.am   24  PRO24      -0.2717
     36  CA        18.7860   -2.6580   -8.7510 C.3    24  PRO24       0.1535
     37  C         17.8850   -1.4360   -8.9500 C.2    24  PRO24       0.2598
     38  O         18.0890   -0.3730   -8.3560 O.2    24  PRO24      -0.2715
     39  CB        18.0860   -3.7410   -7.9340 C.3    24  PRO24       0.0310
     40  CG        18.3270   -3.3000   -6.5090 C.3    24  PRO24       0.0237
     41  CD        19.7530   -2.7670   -6.5240 C.3    24  PRO24       0.0939
     42  N         16.8680   -1.6100   -9.7940 N.am   25  ALA25      -0.1978
     43  CA        16.0700   -0.4850  -10.2690 C.3    25  ALA25       0.1597
     44  C         15.2240    0.1840   -9.1930 C.2    25  ALA25       0.2287
     45  O         14.8620    1.3520   -9.3470 O.2    25  ALA25      -0.2864
     46  CB        15.1630   -0.9390  -11.4100 C.3    25  ALA25       0.0319
     47  N         13.9100   -9.5240  -10.0340 N.3    36  ALA36      -0.1245
     48  CA        13.4150   -8.5230  -10.9520 C.3    36  ALA36       0.1562
     49  C         12.0790   -9.0260  -11.5050 C.2    36  ALA36       0.2260
     50  O         11.8770  -10.2310  -11.6680 O.2    36  ALA36      -0.2867
     51  CB        14.4020   -8.3050  -12.0920 C.3    36  ALA36       0.0290
     52  N         10.0120    2.4040  -15.9960 N.3    45  ALA45      -0.1231
     53  CA        10.8380    2.1230  -17.1660 C.3    45  ALA45       0.1679
     54  C         12.2910    2.3710  -16.7950 C.2    45  ALA45       0.2434
     55  O         12.5650    3.0410  -15.8020 O.2    45  ALA45      -0.2733
     56  CB        10.4290    3.0190  -18.3270 C.3    45  ALA45       0.0304
     57  N         13.2360    1.8580  -17.6000 N.am   46  PRO46      -0.2718
     58  CA        14.6500    2.0860  -17.2870 C.3    46  PRO46       0.1535
     59  C         14.9550    3.5680  -17.0940 C.2    46  PRO46       0.2599
     60  O         14.5510    4.4140  -17.8930 O.2    46  PRO46      -0.2715
     61  CB        15.3680    1.5360  -18.5210 C.3    46  PRO46       0.0310
     62  CG        14.4600    0.4390  -18.9940 C.3    46  PRO46       0.0237
     63  CD        13.0690    0.9740  -18.7680 C.3    46  PRO46       0.0939
     64  N         15.6470    3.8720  -16.0050 N.am   47  GLY47      -0.1941
     65  CA        16.0460    5.2320  -15.7080 C.3    47  GLY47       0.2014
     66  C         15.0520    6.0670  -14.9180 C.2    47  GLY47       0.2639
     67  O         15.4010    7.1490  -14.4590 O.2    47  GLY47      -0.2714
     68  N         13.8270    5.5730  -14.7490 N.am   48  LEU48      -0.1963
     69  CA        12.7800    6.3420  -14.0730 C.3    48  LEU48       0.1728
     70  C         12.6280    5.9740  -12.5980 C.2    48  LEU48       0.2616
     71  O         11.7720    6.5240  -11.9060 O.2    48  LEU48      -0.2715
     72  CB        11.4260    6.1680  -14.7700 C.3    48  LEU48       0.0311
     73  CG        11.2520    6.6620  -16.2070 C.3    48  LEU48       0.0022
     74  CD1        9.7880    6.5750  -16.6200 C.3    48  LEU48       0.0001
     75  CD2       11.7790    8.0820  -16.3670 C.3    48  LEU48       0.0001
     76  N         13.4390    5.0350  -12.1220 N.am   49  GLY49      -0.1955
     77  CA        13.4170    4.6670  -10.7210 C.3    49  GLY49       0.1869
     78  C         12.3510    3.6540  -10.3560 C.2    49  GLY49       0.2309
     79  O         11.9080    2.8680  -11.1890 O.2    49  GLY49      -0.2863
     80  N         13.9240   -5.1420   -8.3960 N.3    85  ASP85      -0.1225
     81  CA        14.5510   -4.8360   -9.6730 C.3    85  ASP85       0.1805
     82  C         13.5560   -4.9920  -10.8240 C.2    85  ASP85       0.2598
     83  O         12.4790   -5.5750  -10.6800 O.2    85  ASP85      -0.2718
     84  CB        15.7890   -5.7480   -9.8380 C.3    85  ASP85       0.1424
     85  CG        16.8780   -5.2090  -10.7660 C.2    85  ASP85       0.3668
     86  OD1       16.7480   -4.0820  -11.2880 O.co2  85  ASP85      -0.2456
     87  OD2       17.8790   -5.9460  -10.9350 O.co2  85  ASP85      -0.2456
     88  N         13.9750   -4.4260  -11.9530 N.am   86  LEU86      -0.1966
     89  CA        13.2180   -4.3630  -13.1930 C.3    86  LEU86       0.1728
     90  C         13.8530   -5.2820  -14.2310 C.2    86  LEU86       0.2616
     91  O         15.0620   -5.2010  -14.4680 O.2    86  LEU86      -0.2715
     92  CB        13.2620   -2.9130  -13.7060 C.3    86  LEU86       0.0311
     93  CG        12.8290   -2.6730  -15.1580 C.3    86  LEU86       0.0022
     94  CD1       11.3690   -3.0430  -15.3920 C.3    86  LEU86       0.0001
     95  CD2       13.0680   -1.2110  -15.5200 C.3    86  LEU86       0.0001
     96  N         13.0290   -6.1190  -14.8660 N.am   87  CYS87      -0.1954
     97  CA        13.4140   -6.8780  -16.0530 C.3    87  CYS87       0.1828
     98  C         12.7720   -6.1280  -17.2300 C.2    87  CYS87       0.2467
     99  O         11.5700   -6.2580  -17.4770 O.2    87  CYS87      -0.2730
    100  CB        12.9030   -8.3190  -15.9450 C.3    87  CYS87       0.0996
    101  SG        13.4360   -9.3610  -17.3280 S.3    87  CYS87      -0.0797
    102  N         13.5470   -5.2690  -17.9050 N.am   88  PRO88      -0.2726
    103  CA        12.9400   -4.3900  -18.9050 C.3    88  PRO88       0.1402
    104  C         12.5450   -5.1370  -20.1700 C.2    88  PRO88       0.2269
    105  O         13.1080   -6.1820  -20.4900 O.2    88  PRO88      -0.2865
    106  CB        14.0580   -3.3900  -19.2040 C.3    88  PRO88       0.0296
    107  CG        15.3040   -4.1700  -18.9670 C.3    88  PRO88       0.0237
    108  CD        15.0000   -5.0550  -17.7950 C.3    88  PRO88       0.0939
    109  N         15.1470   -8.1620  -23.4580 N.3    92  ASN92      -0.1240
    110  CA        14.5630   -9.3650  -22.8580 C.3    92  ASN92       0.1653
    111  C         13.2680   -9.7650  -23.5540 C.2    92  ASN92       0.2266
    112  O         12.2320   -9.9420  -22.9160 O.2    92  ASN92      -0.2867
    113  CB        14.2810   -9.1430  -21.3770 C.3    92  ASN92       0.1155
    114  CG        15.5280   -8.8500  -20.5860 C.2    92  ASN92       0.2627
    115  OD1       16.4220   -9.6950  -20.4660 O.2    92  ASN92      -0.2716
    116  ND2       15.5870   -7.6650  -20.0070 N.am   92  ASN92      -0.0877
    117  N         12.7500  -12.7400  -12.6520 N.3   114  ASP114     -0.1239
    118  CA        14.1680  -13.0430  -12.8590 C.3   114  ASP114      0.1674
    119  C         14.7650  -13.0950  -11.4540 C.2   114  ASP114      0.2266
    120  O         14.8590  -12.0720  -10.7700 O.2   114  ASP114     -0.2867
    121  CB        14.7920  -11.9300  -13.7160 C.3   114  ASP114      0.1410
    122  CG        16.0640  -12.3280  -14.4650 C.2   114  ASP114      0.3668
    123  OD1       16.4310  -13.5190  -14.4970 O.co2 114  ASP114     -0.2456
    124  OD2       16.6620  -11.3830  -15.0410 O.co2 114  ASP114     -0.2456
    125  N         20.2020    6.0920   -4.2320 N.3   154  TRP154     -0.1227
    126  CA        19.9580    7.3740   -4.8660 C.3   154  TRP154      0.1737
    127  C         18.6500    7.9300   -4.3230 C.2   154  TRP154      0.2595
    128  O         17.8220    7.1970   -3.7790 O.2   154  TRP154     -0.2718
    129  CB        19.9490    7.2740   -6.4040 C.3   154  TRP154      0.0564
    130  CG        19.4870    5.9540   -6.9990 C.ar  154  TRP154      0.0003
    131  CD1       20.2770    4.9230   -7.4210 C.ar  154  TRP154      0.0946
    132  CD2       18.1390    5.5580   -7.2750 C.ar  154  TRP154      0.0152
    133  NE1       19.5040    3.9080   -7.9310 N.ar  154  TRP154     -0.2442
    134  CE2       18.1870    4.2710   -7.8490 C.ar  154  TRP154      0.0810
    135  CE3       16.8960    6.1660   -7.0870 C.ar  154  TRP154      0.0012
    136  CZ2       17.0390    3.5850   -8.2490 C.ar  154  TRP154      0.0191
    137  CZ3       15.7610    5.4780   -7.4690 C.ar  154  TRP154      0.0001
    138  CH2       15.8390    4.1990   -8.0380 C.ar  154  TRP154      0.0015
    139  N         18.4810    9.2400   -4.4720 N.am  155  ASN155     -0.1960
    140  CA        17.2560    9.9060   -4.0690 C.3   155  ASN155      0.1819
    141  C         16.0650    9.2820   -4.7770 C.2   155  ASN155      0.2621
    142  O         16.0920    9.0700   -5.9910 O.2   155  ASN155     -0.2715
    143  CB        17.3340   11.3960   -4.4010 C.3   155  ASN155      0.1195
    144  CG        16.1520   12.1770   -3.8620 C.2   155  ASN155      0.2630
    145  OD1       15.6870   11.9330   -2.7490 O.2   155  ASN155     -0.2716
    146  ND2       15.6570   13.1210   -4.6530 N.am  155  ASN155     -0.0877
    147  N         15.0250    8.9660   -4.0150 N.am  156  GLY156     -0.1954
    148  CA        13.8330    8.3920   -4.6020 C.3   156  GLY156      0.1869
    149  C         13.7940    6.8770   -4.5370 C.2   156  GLY156      0.2309
    150  O         12.7930    6.2730   -4.9100 O.2   156  GLY156     -0.2863
@<TRIPOS>BOND
     1   111   112    2
     2   111   110    1
     3   109   110    1
     4   110   113    1
     5   113   114    1
     6   114   115    2
     7   114   116   am
     8   105   104    2
     9   104   103    1
    10   106   107    1
    11   106   103    1
    12    62    63    1
    13    62    61    1
    14   107   108    1
    15   103   102    1
    16    63    57    1
    17    61    58    1
    18    56    53    1
    19   102   108    1
    20   102    98   am
    21    60    59    2
    22    57    58    1
    23    57    54   am
    24    99    98    2
    25   101   100    1
    26    58    59    1
    27    98    97    1
    28    53    54    1
    29    53    52    1
    30    59    64   am
    31    54    55    2
    32    74    73    1
    33    75    73    1
    34    73    72    1
    35    97   100    1
    36    97    96    1
    37    64    65    1
    38    65    66    1
    39    95    93    1
    40    94    93    1
    41    93    92    1
    42   124   122   ar
    43    66    68   am
    44    66    67    2
    45    96    90   am
    46    72    69    1
    47    68    69    1
    48   123   122   ar
    49    91    90    2
    50   122   121    1
    51    90    89    1
    52    69    70    1
    53   121   118    1
    54    92    89    1
    55     5     2    1
    56     5     6    1
    57     2     1    1
    58     2     3    1
    59    89    88    1
    60   118   117    1
    61   118   119    1
    62    13     3   am
    63    13    14    1
    64    70    76   am
    65    70    71    2
    66     6     8   ar
    67     6     7   ar
    68    16    15    2
    69     8    10   ar
    70    18    17    1
    71    17    14    1
    72     3     4    2
    73    76    77    1
    74    51    48    1
    75    88    82   am
    76     7     9   ar
    77    14    15    1
    78    50    49    2
    79    15    19   am
    80    10    11   ar
    81    49    48    1
    82   119   120    2
    83    46    43    1
    84    86    85   ar
    85    79    78    2
    86    48    47    1
    87    87    85   ar
    88     9    11   ar
    89    82    83    2
    90    82    81    1
    91    11    12    1
    92    85    84    1
    93    77    78    1
    94    22    21    2
    95    19    20    1
    96    43    42    1
    97    43    44    1
    98    20    21    1
    99    84    81    1
   100    21    23   am
   101    42    37   am
   102    81    80    1
   103    32    31    2
   104    45    44    2
   105    37    36    1
   106    37    38    2
   107    36    35    1
   108    36    39    1
   109    23    24    1
   110    31    35   am
   111    31    30    1
   112   136   138   ar
   113   136   134   ar
   114    24    27    1
   115    24    25    1
   116    34    33    1
   117   138   137   ar
   118    33    30    1
   119    35    41    1
   120    39    40    1
   121   133   134   ar
   122   133   131   ar
   123   134   132   ar
   124    27    28    1
   125    30    29    1
   126   137   135   ar
   127   131   130   ar
   128   132   135   ar
   129   132   130   ar
   130    25    26    2
   131   130   129    1
   132    41    40    1
   133   129   126    1
   134   142   141    2
   135   150   149    2
   136   126   127    1
   137   126   125    1
   138   141   140    1
   139   141   147   am
   140   146   144   am
   141   148   149    1
   142   148   147    1
   143   139   127   am
   144   139   140    1
   145   143   140    1
   146   143   144    1
   147   127   128    2
   148   144   145    2
