@<TRIPOS>MOLECULE
tmp/3x34A00.pdb
 161 154 0 0 0
SMALL
GASTEIGER

@<TRIPOS>ATOM
      1  N         27.6550   20.0760   -9.4320 N.3    21  LEU21      -0.1245
      2  CA        28.2200   18.7190   -9.5910 C.3    21  LEU21       0.1561
      3  C         27.8640   17.9350   -8.3240 C.2    21  LEU21       0.2260
      4  O         27.4060   18.4560   -7.3130 O.2    21  LEU21      -0.2867
      5  CB        29.6970   18.7680   -9.9780 C.3    21  LEU21       0.0270
      6  CG        30.6270   19.5750   -9.0620 C.3    21  LEU21       0.0019
      7  CD1       30.8600   18.9360   -7.7160 C.3    21  LEU21       0.0001
      8  CD2       31.9870   19.7460   -9.7970 C.3    21  LEU21       0.0001
      9  N         29.2490   15.3840   -5.3000 N.3    23  LEU23      -0.1245
     10  CA        30.3550   14.7800   -4.5600 C.3    23  LEU23       0.1561
     11  C         29.7380   13.9670   -3.4310 C.2    23  LEU23       0.2260
     12  O         28.9760   14.5270   -2.6130 O.2    23  LEU23      -0.2867
     13  CB        31.3410   15.7750   -3.9400 C.3    23  LEU23       0.0270
     14  CG        31.9350   16.8110   -4.9030 C.3    23  LEU23       0.0019
     15  CD1       32.6690   17.8820   -4.1290 C.3    23  LEU23       0.0001
     16  CD2       32.8590   16.1540   -5.9210 C.3    23  LEU23       0.0001
     17  N         28.4140   25.2790   -8.0650 N.3    30  LEU30      -0.1245
     18  CA        29.7110   25.9130   -8.2590 C.3    30  LEU30       0.1561
     19  C         29.6790   26.9910   -9.3420 C.2    30  LEU30       0.2260
     20  O         30.7330   27.4270   -9.8090 O.2    30  LEU30      -0.2867
     21  CB        30.7990   24.8720   -8.5590 C.3    30  LEU30       0.0270
     22  CG        30.9150   23.7740   -7.4890 C.3    30  LEU30       0.0019
     23  CD1       32.1080   22.8980   -7.8230 C.3    30  LEU30       0.0001
     24  CD2       31.0210   24.3150   -6.0930 C.3    30  LEU30       0.0001
     25  N         31.5950   29.8490   -7.8280 N.3    33  PHE33      -0.1241
     26  CA        32.8700   29.4240   -7.2680 C.3    33  PHE33       0.1605
     27  C         33.8680   29.0650   -8.3450 C.2    33  PHE33       0.2264
     28  O         35.0880   29.2800   -8.1640 O.2    33  PHE33      -0.2867
     29  CB        32.6610   28.2130   -6.3370 C.3    33  PHE33       0.0534
     30  CG        33.9990   27.7080   -5.8260 C.ar   33  PHE33      -0.0203
     31  CD1       34.7620   28.4670   -4.9780 C.ar   33  PHE33      -0.0042
     32  CD2       34.4950   26.4650   -6.2510 C.ar   33  PHE33      -0.0042
     33  CE1       36.0230   28.0440   -4.5620 C.ar   33  PHE33      -0.0003
     34  CE2       35.7310   26.0320   -5.8340 C.ar   33  PHE33      -0.0003
     35  CZ        36.4850   26.8210   -4.9920 C.ar   33  PHE33      -0.0000
     36  N         38.0700   29.1620   -8.2470 N.3    37  HIS37      -0.1227
     37  CA        38.6600   27.9050   -7.8180 C.3    37  HIS37       0.1737
     38  C         40.1530   27.8900   -8.0930 C.2    37  HIS37       0.2438
     39  O         40.5740   28.0480   -9.2640 O.2    37  HIS37      -0.2733
     40  CB        37.9910   26.7900   -8.6310 C.3    37  HIS37       0.0758
     41  CG        38.5580   25.4280   -8.3380 C.ar   37  HIS37       0.0818
     42  ND1       38.8980   24.5460   -9.3380 N.ar   37  HIS37      -0.2268
     43  CD2       38.7740   24.7670   -7.1610 C.ar   37  HIS37       0.1154
     44  CE1       39.2840   23.3970   -8.7410 C.ar   37  HIS37       0.1986
     45  NE2       39.2280   23.4970   -7.4350 N.ar   37  HIS37      -0.2212
     46  N         41.0080   27.6010   -7.1180 N.am   38  PRO38      -0.2718
     47  CA        42.4600   27.5750   -7.4010 C.3    38  PRO38       0.1535
     48  C         42.8640   26.5320   -8.4060 C.2    38  PRO38       0.2599
     49  O         43.8720   26.7650   -9.1360 O.2    38  PRO38      -0.2715
     50  CB        43.0510   27.3060   -5.9940 C.3    38  PRO38       0.0310
     51  CG        42.1200   27.9250   -5.0590 C.3    38  PRO38       0.0237
     52  CD        40.7320   27.5870   -5.6630 C.3    38  PRO38       0.0939
     53  N         42.1600   25.4360   -8.5450 N.am   39  GLY39      -0.1955
     54  CA        42.4600   24.4600   -9.5770 C.3    39  GLY39       0.1869
     55  C         42.0040   24.8150  -10.9870 C.2    39  GLY39       0.2309
     56  O         42.1920   24.0160  -11.9110 O.2    39  GLY39      -0.2863
     57  N         38.6720   22.1120  -15.0230 N.3    43  VAL43      -0.1231
     58  CA        38.4260   20.8450  -14.3560 C.3    43  VAL43       0.1692
     59  C         36.9980   20.7690  -13.8470 C.2    43  VAL43       0.2591
     60  O         36.4030   19.6770  -13.7880 O.2    43  VAL43      -0.2718
     61  CB        39.4520   20.5330  -13.2350 C.3    43  VAL43       0.0266
     62  CG1       40.8340   20.3220  -13.7990 C.3    43  VAL43       0.0020
     63  CG2       39.4670   21.6510  -12.1780 C.3    43  VAL43       0.0020
     64  N         36.5070   21.9310  -13.4630 N.am   44  LEU44      -0.1980
     65  CA        35.1450   21.9260  -12.9640 C.3    44  LEU44       0.1596
     66  C         34.1290   21.8960  -14.0990 C.2    44  LEU44       0.2287
     67  O         33.1350   21.1550  -14.0390 O.2    44  LEU44      -0.2864
     68  CB        34.9010   23.1200  -12.0340 C.3    44  LEU44       0.0297
     69  CG        35.8170   23.1700  -10.8040 C.3    44  LEU44       0.0022
     70  CD1       35.4730   24.3920   -9.9640 C.3    44  LEU44       0.0001
     71  CD2       35.7550   21.9280   -9.9790 C.3    44  LEU44       0.0001
     72  N         33.2700   18.5300  -15.4240 N.3    47  GLN47      -0.1245
     73  CA        32.4740   17.7340  -14.5190 C.3    47  GLN47       0.1566
     74  C         31.0110   18.2080  -14.3790 C.2    47  GLN47       0.2260
     75  O         30.2080   17.5370  -13.7540 O.2    47  GLN47      -0.2867
     76  CB        33.0880   17.7330  -13.1220 C.3    47  GLN47       0.0367
     77  CG        34.4840   17.1550  -13.0930 C.3    47  GLN47       0.0905
     78  CD        34.5340   15.7230  -13.5600 C.2    47  GLN47       0.2608
     79  OE1       33.6190   14.9460  -13.2230 O.2    47  GLN47      -0.2717
     80  NE2       35.5430   15.3760  -14.3290 N.am   47  GLN47      -0.0878
     81  N         31.6790   14.0860   -9.5820 N.3    52  ALA52      -0.1245
     82  CA        33.1020   14.3750   -9.6340 C.3    52  ALA52       0.1562
     83  C         33.8330   13.8820   -8.3800 C.2    52  ALA52       0.2260
     84  O         34.9320   14.3590   -8.0800 O.2    52  ALA52      -0.2867
     85  CB        33.3220   15.8750   -9.8120 C.3    52  ALA52       0.0290
     86  N         37.5060   12.5540   -8.7780 N.3    55  ASN55      -0.1225
     87  CA        38.4330   13.5980   -9.1470 C.3    55  ASN55       0.1785
     88  C         38.7680   14.4830   -7.9330 C.2    55  ASN55       0.2597
     89  O         39.9090   14.8420   -7.6990 O.2    55  ASN55      -0.2718
     90  CB        37.8670   14.4730  -10.2580 C.3    55  ASN55       0.1169
     91  CG        37.2750   13.6880  -11.3960 C.2    55  ASN55       0.2627
     92  OD1       36.2620   13.0110  -11.1970 O.2    55  ASN55      -0.2716
     93  ND2       37.9110   13.7360  -12.5420 N.am   55  ASN55      -0.0877
     94  N         37.7150   14.8480   -7.1860 N.am   56  PHE56      -0.1976
     95  CA        37.8970   15.6730   -6.0060 C.3    56  PHE56       0.1639
     96  C         38.8110   14.9970   -4.9770 C.2    56  PHE56       0.2290
     97  O         39.7150   15.6120   -4.4200 O.2    56  PHE56      -0.2864
     98  CB        36.5340   15.9650   -5.3880 C.3    56  PHE56       0.0560
     99  CG        36.6010   16.7860   -4.1140 C.ar   56  PHE56      -0.0200
    100  CD1       36.5550   16.1850   -2.8830 C.ar   56  PHE56      -0.0042
    101  CD2       36.7010   18.1650   -4.1770 C.ar   56  PHE56      -0.0042
    102  CE1       36.6710   16.9440   -1.7230 C.ar   56  PHE56      -0.0003
    103  CE2       36.7840   18.9400   -3.0280 C.ar   56  PHE56      -0.0003
    104  CZ        36.8180   18.3340   -1.8000 C.ar   56  PHE56      -0.0000
    105  N         42.8550   14.7180   -5.5240 N.3    59  VAL59      -0.1231
    106  CA        43.7560   15.8700   -5.4410 C.3    59  VAL59       0.1692
    107  C         44.4800   15.9470   -4.1100 C.2    59  VAL59       0.2593
    108  O         45.6270   16.3740   -4.0790 O.2    59  VAL59      -0.2718
    109  CB        42.9370   17.1790   -5.6770 C.3    59  VAL59       0.0266
    110  CG1       43.7430   18.4420   -5.4210 C.3    59  VAL59       0.0020
    111  CG2       42.3790   17.1690   -7.0970 C.3    59  VAL59       0.0020
    112  N         43.7950   15.6030   -3.0430 N.am   60  GLY60      -0.1942
    113  CA        44.2860   15.9100   -1.6840 C.3    60  GLY60       0.2014
    114  C         43.9350   17.3480   -1.2870 C.2    60  GLY60       0.2639
    115  O         44.8030   18.1110   -0.8480 O.2    60  GLY60      -0.2714
    116  N         42.6300   17.6730   -1.5330 N.am   61  HIS61      -0.1959
    117  CA        42.2230   18.9820   -1.1120 C.3    61  HIS61       0.1787
    118  C         42.4910   19.1480    0.3870 C.2    61  HIS61       0.2620
    119  O         42.3050   18.2130    1.2220 O.2    61  HIS61      -0.2715
    120  CB        40.7010   19.1730   -1.3710 C.3    61  HIS61       0.0785
    121  CG        40.3820   19.5160   -2.8030 C.ar   61  HIS61       0.0821
    122  ND1       40.1170   18.6200   -3.8110 N.ar   61  HIS61      -0.2267
    123  CD2       40.3020   20.7440   -3.4200 C.ar   61  HIS61       0.1154
    124  CE1       39.8840   19.2970   -4.9230 C.ar   61  HIS61       0.1986
    125  NE2       39.9820   20.5950   -4.7390 N.ar   61  HIS61      -0.2212
    126  N         42.8670   20.3620    0.7780 N.am   62  SER62      -0.1950
    127  CA        43.1210   20.6950    2.1850 C.3    62  SER62       0.1924
    128  C         41.8530   20.6340    3.0270 C.2    62  SER62       0.2314
    129  O         40.7390   20.6700    2.4880 O.2    62  SER62      -0.2863
    130  CB        43.7430   22.0690    2.2360 C.3    62  SER62       0.2116
    131  OG        42.7580   23.0780    1.9040 O.3    62  SER62      -0.2180
    132  N         39.8960   23.6060    2.2230 N.3    65  ALA65      -0.1245
    133  CA        39.1620   23.4480    0.9680 C.3    65  ALA65       0.1562
    134  C         37.9010   22.5730    1.1700 C.2    65  ALA65       0.2260
    135  O         36.8460   22.8650    0.6150 O.2    65  ALA65      -0.2867
    136  CB        40.0580   22.8660   -0.1350 C.3    65  ALA65       0.0290
    137  N         35.3610   24.6900    2.8600 N.3    68  LEU68      -0.1231
    138  CA        34.8570   25.6390    1.8760 C.3    68  LEU68       0.1693
    139  C         33.8300   24.9380    0.9850 C.2    68  LEU68       0.2592
    140  O         32.7760   25.5340    0.6610 O.2    68  LEU68      -0.2718
    141  CB        36.0180   26.2170    1.0710 C.3    68  LEU68       0.0284
    142  CG        35.6690   27.1720   -0.0150 C.3    68  LEU68       0.0019
    143  CD1       34.9190   28.4040    0.4660 C.3    68  LEU68       0.0001
    144  CD2       36.9350   27.5840   -0.7610 C.3    68  LEU68       0.0001
    145  N         34.0950   23.7190    0.5540 N.am   69  SER69      -0.1952
    146  CA        33.1620   23.0380   -0.3170 C.3    69  SER69       0.1924
    147  C         31.7700   22.9420    0.2530 C.2    69  SER69       0.2314
    148  O         30.7770   23.0160   -0.4820 O.2    69  SER69      -0.2863
    149  CB        33.6840   21.6440   -0.7190 C.3    69  SER69       0.2116
    150  OG        33.5780   20.6920    0.2880 O.3    69  SER69      -0.2180
    151  N         28.8530   25.3660   -0.5370 N.3    72  PHE72      -0.1241
    152  CA        28.1920   25.3310   -1.8360 C.3    72  PHE72       0.1605
    153  C         27.1760   24.2050   -1.9510 C.2    72  PHE72       0.2264
    154  O         26.5570   24.0510   -3.0150 O.2    72  PHE72      -0.2867
    155  CB        29.2270   25.2190   -2.9640 C.3    72  PHE72       0.0534
    156  CG        30.2210   26.3710   -2.9370 C.ar   72  PHE72      -0.0203
    157  CD1       29.7930   27.6500   -3.2880 C.ar   72  PHE72      -0.0042
    158  CD2       31.5170   26.1990   -2.5810 C.ar   72  PHE72      -0.0042
    159  CE1       30.6630   28.7140   -3.1800 C.ar   72  PHE72      -0.0003
    160  CE2       32.4090   27.2710   -2.5290 C.ar   72  PHE72      -0.0003
    161  CZ        31.9590   28.5350   -2.8160 C.ar   72  PHE72      -0.0000
@<TRIPOS>BOND
     1    72    73    1
     2    57    58    1
     3    73    74    1
     4    73    76    1
     5    74    75    2
     6    58    59    1
     7    58    61    1
     8    80    78   am
     9    66    67    2
    10    66    65    1
    11    59    60    2
    12    59    64   am
    13    62    61    1
    14    78    79    2
    15    78    77    1
    16    64    65    1
    17    61    63    1
    18    76    77    1
    19    65    68    1
    20    93    91   am
    21    68    69    1
    22    56    55    2
    23    91    92    2
    24    91    90    1
    25    55    54    1
    26    69    71    1
    27    69    70    1
    28    90    87    1
    29     5     2    1
    30     5     6    1
    31    85    82    1
    32    20    19    2
    33     8     6    1
    34    82    81    1
    35    82    83    1
    36     2     1    1
    37     2     3    1
    38    54    53    1
    39    19    18    1
    40    42    44   ar
    41    42    41   ar
    42    39    38    2
    43    87    86    1
    44    87    88    1
    45    49    48    2
    46     6     7    1
    47    44    45   ar
    48    40    41    1
    49    40    37    1
    50    21    18    1
    51    21    22    1
    52    53    48   am
    53    48    47    1
    54    83    84    2
    55    27    28    2
    56    27    26    1
    57    41    43   ar
    58     3     4    2
    59    18    17    1
    60    36    37    1
    61    38    37    1
    62    38    46   am
    63    88    89    2
    64    88    94   am
    65    25    26    1
    66    23    22    1
    67    22    24    1
    68    45    43   ar
    69    47    46    1
    70    47    50    1
    71    26    29    1
    72    94    95    1
    73    46    52    1
    74   111   109    1
    75    29    30    1
    76    32    34   ar
    77    32    30   ar
    78    95    98    1
    79    95    96    1
    80    50    51    1
    81    16    14    1
    82    34    35   ar
    83    30    31   ar
    84   109   106    1
    85   109   110    1
    86    52    51    1
    87   105   106    1
    88   106   107    1
    89    98    99    1
    90     9    10    1
    91    35    33   ar
    92    31    33   ar
    93    96    97    2
    94   124   125   ar
    95   124   122   ar
    96    14    15    1
    97    14    13    1
    98   125   123   ar
    99    10    13    1
   100    10    11    1
   101   101    99   ar
   102   101   103   ar
   103    99   100   ar
   104   107   108    2
   105   107   112   am
   106   122   121   ar
   107    11    12    2
   108   123   121   ar
   109   157   159   ar
   110   157   156   ar
   111   159   161   ar
   112   112   113    1
   113   103   104   ar
   114   154   153    2
   115   155   156    1
   116   155   152    1
   117   156   158   ar
   118   100   102   ar
   119   161   160   ar
   120   121   120    1
   121   158   160   ar
   122   153   152    1
   123   152   151    1
   124   104   102   ar
   125   113   114    1
   126   116   114   am
   127   116   117    1
   128   120   117    1
   129   114   115    2
   130   117   118    1
   131   144   142    1
   132   149   146    1
   133   149   150    1
   134   148   147    2
   135   146   147    1
   136   146   145    1
   137   136   133    1
   138   142   143    1
   139   142   141    1
   140   118   126   am
   141   118   119    2
   142   145   139   am
   143   135   134    2
   144   140   139    2
   145   126   127    1
   146   133   134    1
   147   133   132    1
   148   139   138    1
   149   141   138    1
   150   138   137    1
   151   131   130    1
   152   127   130    1
   153   127   128    1
   154   129   128    2
