@<TRIPOS>MOLECULE
tmp/3x3bA00.pdb
 176 172 0 0 0
SMALL
GASTEIGER

@<TRIPOS>ATOM
      1  N         64.9220  105.3740  257.8160 N.3   106  TYR106     -0.1241
      2  CA        65.8600  104.5990  258.6280 C.3   106  TYR106      0.1605
      3  C         66.7880  105.4840  259.4750 C.2   106  TYR106      0.2264
      4  O         67.1430  105.1120  260.6100 O.2   106  TYR106     -0.2867
      5  CB        66.6890  103.6580  257.7460 C.3   106  TYR106      0.0534
      6  CG        65.9640  102.3710  257.4100 C.ar  106  TYR106     -0.0201
      7  CD1       64.8430  102.3800  256.5910 C.ar  106  TYR106     -0.0009
      8  CD2       66.4010  101.1490  257.9130 C.ar  106  TYR106     -0.0009
      9  CE1       64.1750  101.2150  256.2810 C.ar  106  TYR106      0.0417
     10  CE2       65.7350   99.9690  257.6060 C.ar  106  TYR106      0.0417
     11  CZ        64.6230  100.0080  256.7910 C.ar  106  TYR106      0.1957
     12  OH        63.9510   98.8410  256.4790 O.3   106  TYR106     -0.2866
     13  N         65.8650  108.3500  260.7290 N.3   108  ASN108     -0.1225
     14  CA        64.9390  108.7570  261.7690 C.3   108  ASN108      0.1785
     15  C         64.8520  107.7100  262.8760 C.2   108  ASN108      0.2597
     16  O         64.8800  108.0390  264.0520 O.2   108  ASN108     -0.2718
     17  CB        63.5540  109.0110  261.1690 C.3   108  ASN108      0.1169
     18  CG        62.5290  109.3970  262.2180 C.2   108  ASN108      0.2627
     19  OD1       62.6760  110.4180  262.8920 O.2   108  ASN108     -0.2716
     20  ND2       61.4760  108.5900  262.3530 N.am  108  ASN108     -0.0877
     21  N         64.7680  106.4480  262.4660 N.am  109  TRP109     -0.1976
     22  CA        64.7390  105.3080  263.3690 C.3   109  TRP109      0.1640
     23  C         66.0260  105.1930  264.1760 C.2   109  TRP109      0.2290
     24  O         65.9900  104.9220  265.3770 O.2   109  TRP109     -0.2864
     25  CB        64.5220  104.0180  262.5820 C.3   109  TRP109      0.0576
     26  CG        63.1750  103.9250  261.9150 C.ar  109  TRP109      0.0006
     27  CD1       62.1140  104.7830  262.0610 C.ar  109  TRP109      0.0946
     28  CD2       62.7440  102.9040  261.0160 C.ar  109  TRP109      0.0152
     29  NE1       61.0540  104.3540  261.3030 N.ar  109  TRP109     -0.2442
     30  CE2       61.4160  103.2050  260.6460 C.ar  109  TRP109      0.0810
     31  CE3       63.3510  101.7640  260.4830 C.ar  109  TRP109      0.0012
     32  CZ2       60.6880  102.4060  259.7710 C.ar  109  TRP109      0.0191
     33  CZ3       62.6220  100.9720  259.6050 C.ar  109  TRP109      0.0001
     34  CH2       61.3060  101.2970  259.2640 C.ar  109  TRP109      0.0015
     35  N         65.9420  108.0370  266.6830 N.3   112  ASP112     -0.1225
     36  CA        64.8310  108.0640  267.6310 C.3   112  ASP112      0.1805
     37  C         64.7070  106.8400  268.5200 C.2   112  ASP112      0.2597
     38  O         64.3190  106.9700  269.6820 O.2   112  ASP112     -0.2718
     39  CB        63.5180  108.2690  266.8890 C.3   112  ASP112      0.1424
     40  CG        63.3980  109.6670  266.3190 C.2   112  ASP112      0.3668
     41  OD1       64.2490  110.5260  266.6360 O.co2 112  ASP112     -0.2456
     42  OD2       62.4450  109.9150  265.5590 O.co2 112  ASP112     -0.2456
     43  N         65.0020  105.6610  267.9850 N.am  113  VAL113     -0.1980
     44  CA        64.9240  104.4430  268.7780 C.3   113  VAL113      0.1595
     45  C         65.6780  104.5600  270.1340 C.2   113  VAL113      0.2287
     46  O         65.0930  104.2400  271.1690 O.2   113  VAL113     -0.2864
     47  CB        65.4250  103.2170  267.9760 C.3   113  VAL113      0.0276
     48  CG1       65.8830  102.1020  268.9070 C.3   113  VAL113      0.0022
     49  CG2       64.3190  102.7050  267.0720 C.3   113  VAL113      0.0022
     50  N         63.7380  107.0870  272.5410 N.3   116  LEU116     -0.1245
     51  CA        62.4440  106.5900  273.0000 C.3   116  LEU116      0.1561
     52  C         62.6090  105.5750  274.1220 C.2   116  LEU116      0.2260
     53  O         61.8580  105.5830  275.0920 O.2   116  LEU116     -0.2867
     54  CB        61.6600  105.9670  271.8570 C.3   116  LEU116      0.0270
     55  CG        61.1690  106.9640  270.8100 C.3   116  LEU116      0.0019
     56  CD1       60.7880  106.2390  269.5200 C.3   116  LEU116      0.0001
     57  CD2       59.9970  107.7450  271.3840 C.3   116  LEU116      0.0001
     58  N         69.4570   96.6750  265.7090 N.3   145  MET145     -0.1230
     59  CA        68.1870   96.3710  265.0550 C.3   145  MET145      0.1702
     60  C         67.9680   97.1990  263.7750 C.2   145  MET145      0.2592
     61  O         67.5540   96.6710  262.7370 O.2   145  MET145     -0.2718
     62  CB        67.0290   96.6090  266.0210 C.3   145  MET145      0.0401
     63  CG        65.6470   96.2810  265.4600 C.3   145  MET145      0.0596
     64  SD        64.3550   96.7610  266.6470 S.3   145  MET145     -0.1393
     65  CE        64.5110   98.5500  266.6130 C.3   145  MET145      0.0692
     66  N         68.2310   98.5000  263.8580 N.am  146  ILE146     -0.1980
     67  CA        68.0170   99.3730  262.7140 C.3   146  ILE146      0.1595
     68  C         69.1110   99.1340  261.6820 C.2   146  ILE146      0.2287
     69  O         68.8310   99.0830  260.4910 O.2   146  ILE146     -0.2864
     70  CB        67.9950  100.8640  263.1050 C.3   146  ILE146      0.0276
     71  CG1       66.9670  101.1040  264.2090 C.3   146  ILE146      0.0022
     72  CG2       67.6650  101.7310  261.8940 C.3   146  ILE146      0.0022
     73  CD1       65.5560  100.6280  263.8490 C.3   146  ILE146      0.0001
     74  N         68.3950   95.8490  259.9550 N.3   149  GLY149     -0.1225
     75  CA        67.2380   96.0740  259.1030 C.3   149  GLY149      0.1811
     76  C         67.5980   96.8990  257.8730 C.2   149  GLY149      0.2280
     77  O         67.0730   96.6890  256.7790 O.2   149  GLY149     -0.2866
     78  N         66.4560   90.7260  258.0810 N.3   167  GLY167     -0.1225
     79  CA        65.2770   91.1190  258.8210 C.3   167  GLY167      0.1811
     80  C         65.0800   90.2060  260.0120 C.2   167  GLY167      0.2280
     81  O         64.6740   90.6540  261.0850 O.2   167  GLY167     -0.2866
     82  N         67.5850   91.2470  262.5420 N.3   170  SER170     -0.1202
     83  CA        67.0310   92.4530  263.1460 C.3   170  SER170      0.2020
     84  C         65.9350   92.1260  264.1770 C.2   170  SER170      0.2619
     85  O         65.8410   92.7440  265.2550 O.2   170  SER170     -0.2717
     86  CB        66.4760   93.3640  262.0470 C.3   170  SER170      0.2103
     87  OG        66.1070   94.6310  262.5570 O.3   170  SER170     -0.2182
     88  N         65.1070   91.1440  263.8390 N.am  171  SER171     -0.1951
     89  CA        64.0440   90.7090  264.7320 C.3   171  SER171      0.1924
     90  C         64.6040   90.0930  266.0190 C.2   171  SER171      0.2314
     91  O         63.9340   90.0830  267.0420 O.2   171  SER171     -0.2863
     92  CB        63.1290   89.7130  264.0190 C.3   171  SER171      0.2116
     93  OG        62.4680   90.3420  262.9290 O.3   171  SER171     -0.2180
     94  N         65.2820   93.0720  268.2080 N.3   174  PHE174     -0.1241
     95  CA        63.9610   93.5440  268.6050 C.3   174  PHE174      0.1605
     96  C         63.3550   92.7110  269.7520 C.2   174  PHE174      0.2264
     97  O         62.7710   93.2530  270.6930 O.2   174  PHE174     -0.2867
     98  CB        63.0250   93.5330  267.3970 C.3   174  PHE174      0.0534
     99  CG        61.6010   93.9260  267.7230 C.ar  174  PHE174     -0.0203
    100  CD1       61.3190   95.1420  268.3310 C.ar  174  PHE174     -0.0042
    101  CD2       60.5500   93.0790  267.4220 C.ar  174  PHE174     -0.0042
    102  CE1       60.0150   95.4990  268.6360 C.ar  174  PHE174     -0.0003
    103  CE2       59.2570   93.4290  267.7150 C.ar  174  PHE174     -0.0003
    104  CZ        58.9850   94.6430  268.3260 C.ar  174  PHE174     -0.0000
    105  N         55.4790   98.9500  267.9810 N.3   211  TRP211     -0.1241
    106  CA        56.8160   98.5790  267.5370 C.3   211  TRP211      0.1605
    107  C         56.7560   97.3170  266.6650 C.2   211  TRP211      0.2264
    108  O         57.5590   97.1500  265.7320 O.2   211  TRP211     -0.2867
    109  CB        57.7670   98.3910  268.7300 C.3   211  TRP211      0.0550
    110  CG        58.2450   99.7220  269.3410 C.ar  211  TRP211      0.0003
    111  CD1       57.4590  100.7620  269.7440 C.ar  211  TRP211      0.0946
    112  CD2       59.6040  100.1340  269.5810 C.ar  211  TRP211      0.0152
    113  NE1       58.2360  101.7920  270.2040 N.ar  211  TRP211     -0.2442
    114  CE2       59.5570  101.4350  270.1140 C.ar  211  TRP211      0.0810
    115  CE3       60.8550   99.5320  269.3820 C.ar  211  TRP211      0.0012
    116  CZ2       60.7170  102.1460  270.4720 C.ar  211  TRP211      0.0191
    117  CZ3       62.0010  100.2370  269.7320 C.ar  211  TRP211      0.0001
    118  CH2       61.9230  101.5270  270.2790 C.ar  211  TRP211      0.0015
    119  N         56.3720   97.7890  262.8050 N.3   214  TYR214     -0.1228
    120  CA        57.4560   98.1290  261.8810 C.3   214  TYR214      0.1721
    121  C         57.9320   96.9120  261.0620 C.2   214  TYR214      0.2437
    122  O         57.9900   96.9970  259.8350 O.2   214  TYR214     -0.2733
    123  CB        58.6220   98.7880  262.6200 C.3   214  TYR214      0.0547
    124  CG        58.3260  100.2090  263.0560 C.ar  214  TYR214     -0.0200
    125  CD1       58.4750  101.2840  262.1700 C.ar  214  TYR214     -0.0009
    126  CD2       57.9030  100.4770  264.3560 C.ar  214  TYR214     -0.0009
    127  CE1       58.2060  102.5840  262.5710 C.ar  214  TYR214      0.0417
    128  CE2       57.6380  101.7700  264.7720 C.ar  214  TYR214      0.0417
    129  CZ        57.7830  102.8200  263.8850 C.ar  214  TYR214      0.1957
    130  OH        57.5040  104.1010  264.3220 O.3   214  TYR214     -0.2866
    131  N         58.2500   95.7790  261.7230 N.am  215  PRO215     -0.2729
    132  CA        58.5430   94.6020  260.8930 C.3   215  PRO215      0.1401
    133  C         57.3190   94.1480  260.0920 C.2   215  PRO215      0.2269
    134  O         57.4670   93.4710  259.0720 O.2   215  PRO215     -0.2865
    135  CB        58.9600   93.5340  261.9130 C.3   215  PRO215      0.0296
    136  CG        58.3120   93.9810  263.2270 C.3   215  PRO215      0.0237
    137  CD        58.3730   95.4840  263.1660 C.3   215  PRO215      0.0939
    138  N         57.6030   96.2000  256.9720 N.3   218  TYR218     -0.1241
    139  CA        58.7870   95.7180  256.2740 C.3   218  TYR218      0.1605
    140  C         58.4170   94.4840  255.4460 C.2   218  TYR218      0.2264
    141  O         58.7690   94.3930  254.2640 O.2   218  TYR218     -0.2867
    142  CB        59.8870   95.4090  257.2840 C.3   218  TYR218      0.0534
    143  CG        61.2270   94.8750  256.7760 C.ar  218  TYR218     -0.0201
    144  CD1       61.4500   93.5050  256.6490 C.ar  218  TYR218     -0.0009
    145  CD2       62.2940   95.7360  256.5160 C.ar  218  TYR218     -0.0009
    146  CE1       62.6750   93.0100  256.2520 C.ar  218  TYR218      0.0417
    147  CE2       63.5260   95.2480  256.1130 C.ar  218  TYR218      0.0417
    148  CZ        63.7060   93.8820  255.9860 C.ar  218  TYR218      0.1957
    149  OH        64.9180   93.3820  255.5900 O.3   218  TYR218     -0.2866
    150  N         53.5910  102.1540  258.6160 N.3   243  TYR243     -0.1241
    151  CA        54.7400  102.9250  259.0880 C.3   243  TYR243      0.1605
    152  C         54.2850  104.2150  259.7610 C.2   243  TYR243      0.2264
    153  O         54.7760  104.5830  260.8320 O.2   243  TYR243     -0.2867
    154  CB        55.7030  103.2680  257.9460 C.3   243  TYR243      0.0534
    155  CG        56.7570  102.2170  257.6250 C.ar  243  TYR243     -0.0201
    156  CD1       57.2430  101.3580  258.6040 C.ar  243  TYR243     -0.0009
    157  CD2       57.2790  102.0970  256.3280 C.ar  243  TYR243     -0.0009
    158  CE1       58.2100  100.3970  258.3000 C.ar  243  TYR243      0.0417
    159  CE2       58.2520  101.1430  256.0160 C.ar  243  TYR243      0.0417
    160  CZ        58.7110  100.2980  257.0020 C.ar  243  TYR243      0.1957
    161  OH        59.6650   99.3450  256.7080 O.3   243  TYR243     -0.2866
    162  N         54.1940  105.2410  268.4160 N.3   250  SER250     -0.1202
    163  CA        55.4380  104.9830  269.1450 C.3   250  SER250      0.2020
    164  C         56.1400  106.2500  269.5910 C.2   250  SER250      0.2618
    165  O         56.9600  106.2090  270.5050 O.2   250  SER250     -0.2717
    166  CB        56.4080  104.1600  268.2830 C.3   250  SER250      0.2103
    167  OG        56.8740  104.9110  267.1710 O.3   250  SER250     -0.2182
    168  N         55.8260  107.3740  268.9540 N.am  251  LYS251     -0.1979
    169  CA        56.4850  108.6240  269.2990 C.3   251  LYS251      0.1596
    170  C         55.5660  109.5720  270.0520 C.2   251  LYS251      0.2287
    171  O         55.8640  109.9550  271.1970 O.2   251  LYS251     -0.2864
    172  CB        57.0210  109.3090  268.0510 C.3   251  LYS251      0.0298
    173  CG        57.9980  108.4400  267.2660 C.3   251  LYS251      0.0038
    174  CD        58.7450  109.2490  266.2320 C.3   251  LYS251      0.0206
    175  CE        58.9020  108.4980  264.9360 C.3   251  LYS251      0.1093
    176  NZ        59.8380  107.3830  265.0970 N.3   251  LYS251     -0.1314
@<TRIPOS>BOND
     1   141   140    2
     2   140   139    1
     3   149   148    1
     4   148   147   ar
     5   148   146   ar
     6   159   157   ar
     7   159   160   ar
     8   147   145   ar
     9   146   144   ar
    10   139   138    1
    11   139   142    1
    12     9     7   ar
    13     9    11   ar
    14   157   155   ar
    15    12    11    1
    16   145   143   ar
    17     7     6   ar
    18   144   143   ar
    19   161   160    1
    20   143   142    1
    21    77    76    2
    22    11    10   ar
    23   160   158   ar
    24     6     5    1
    25     6     8   ar
    26    10     8   ar
    27   155   154    1
    28   155   156   ar
    29     5     2    1
    30     1     2    1
    31    76    75    1
    32   154   151    1
    33    78    79    1
    34   158   156   ar
    35   150   151    1
    36     2     3    1
    37    79    80    1
    38   134   133    2
    39   151   152    1
    40    75    74    1
    41    34    33   ar
    42    34    32   ar
    43     3     4    2
    44    33    31   ar
    45   152   153    2
    46    32    30   ar
    47   122   121    2
    48    80    81    2
    49   133   132    1
    50    31    28   ar
    51    69    68    2
    52    30    28   ar
    53    30    29   ar
    54    13    14    1
    55   132   131    1
    56   132   135    1
    57    28    26   ar
    58   121   131   am
    59   121   120    1
    60    17    14    1
    61    17    18    1
    62    29    27   ar
    63    68    67    1
    64   131   137    1
    65    14    15    1
    66   120   123    1
    67   120   119    1
    68    72    70    1
    69   135   136    1
    70    26    27   ar
    71    26    25    1
    72    86    87    1
    73    86    83    1
    74   125   127   ar
    75   125   124   ar
    76    18    20   am
    77    18    19    2
    78    21    15   am
    79    21    22    1
    80    82    83    1
    81   127   129   ar
    82    25    22    1
    83   123   124    1
    84    67    70    1
    85    67    66    1
    86    61    60    2
    87    15    16    2
    88    93    92    1
    89   124   126   ar
    90    70    71    1
    91    83    84    1
    92   137   136    1
    93    22    23    1
    94    60    66   am
    95    60    59    1
    96    88    84   am
    97    88    89    1
    98    73    71    1
    99   129   130    1
   100   129   128   ar
   101    92    89    1
   102    23    24    2
   103    84    85    2
   104   126   128   ar
   105    89    90    1
   106   175   176    1
   107   175   174    1
   108    59    58    1
   109    59    62    1
   110    63    62    1
   111    63    64    1
   112    42    40   ar
   113   108   107    2
   114    90    91    2
   115   174   173    1
   116    40    41   ar
   117    40    39    1
   118    65    64    1
   119   107   106    1
   120    35    36    1
   121    39    36    1
   122    49    47    1
   123   167   166    1
   124   173   172    1
   125    98    99    1
   126    98    95    1
   127   101   103   ar
   128   101    99   ar
   129   106   105    1
   130   106   109    1
   131    36    37    1
   132   103   104   ar
   133    99   100   ar
   134    47    44    1
   135    47    48    1
   136    43    37   am
   137    43    44    1
   138   172   169    1
   139    94    95    1
   140   166   163    1
   141   104   102   ar
   142   100   102   ar
   143   162   163    1
   144    37    38    2
   145    95    96    1
   146   109   110    1
   147    44    45    1
   148   168   169    1
   149   168   164   am
   150   163   164    1
   151   169   170    1
   152   110   112   ar
   153   110   111   ar
   154   115   112   ar
   155   115   117   ar
   156    56    55    1
   157   112   114   ar
   158   164   165    2
   159   117   118   ar
   160   111   113   ar
   161    96    97    2
   162   170   171    2
   163   114   113   ar
   164   114   116   ar
   165    45    46    2
   166   118   116   ar
   167    55    57    1
   168    55    54    1
   169    54    51    1
   170    50    51    1
   171    51    52    1
   172    52    53    2
