@<TRIPOS>MOLECULE
tmp/3x3cA03.pdb
 77 70 0 0 0
SMALL
GASTEIGER

@<TRIPOS>ATOM
      1  N        -42.2060  -77.6070  506.9230 N.3    62  VAL62      -0.1245
      2  CA       -43.2930  -77.3430  505.9960 C.3    62  VAL62       0.1561
      3  C        -42.8640  -76.3070  504.9430 C.2    62  VAL62       0.2260
      4  O        -43.1470  -76.4640  503.7580 O.2    62  VAL62      -0.2867
      5  CB       -44.5680  -76.8570  506.7250 C.3    62  VAL62       0.0252
      6  CG1      -45.6570  -76.5280  505.7090 C.3    62  VAL62       0.0019
      7  CG2      -45.0660  -77.9290  507.6980 C.3    62  VAL62       0.0019
      8  N        -40.8650  -78.1050  502.3820 N.3    65  VAL65      -0.1231
      9  CA       -41.7020  -78.8690  501.4580 C.3    65  VAL65       0.1692
     10  C        -42.2690  -77.9790  500.3520 C.2    65  VAL65       0.2592
     11  O        -42.1490  -78.2760  499.1680 O.2    65  VAL65      -0.2718
     12  CB       -42.8730  -79.5690  502.1810 C.3    65  VAL65       0.0266
     13  CG1      -43.8920  -80.0510  501.1690 C.3    65  VAL65       0.0020
     14  CG2      -42.3660  -80.7490  502.9900 C.3    65  VAL65       0.0020
     15  N        -42.8870  -76.8890  500.7740 N.am   66  SER66      -0.1952
     16  CA       -43.4380  -75.8760  499.8930 C.3    66  SER66       0.1924
     17  C        -42.4080  -75.3180  498.9150 C.2    66  SER66       0.2314
     18  O        -42.6540  -75.2400  497.7130 O.2    66  SER66      -0.2863
     19  CB       -44.0090  -74.7330  500.7430 C.3    66  SER66       0.2116
     20  OG       -44.1690  -73.5590  499.9650 O.3    66  SER66      -0.2180
     21  N        -40.9980  -78.0210  496.2990 N.3    69  LEU69      -0.1231
     22  CA       -41.9150  -78.3250  495.2150 C.3    69  LEU69       0.1693
     23  C        -42.0930  -77.1380  494.2530 C.2    69  LEU69       0.2591
     24  O        -42.0830  -77.3050  493.0240 O.2    69  LEU69      -0.2718
     25  CB       -43.2620  -78.7660  495.7840 C.3    69  LEU69       0.0284
     26  CG       -43.1840  -79.9870  496.7150 C.3    69  LEU69       0.0019
     27  CD1      -44.4710  -80.1600  497.4760 C.3    69  LEU69       0.0001
     28  CD2      -42.8640  -81.2470  495.9440 C.3    69  LEU69       0.0001
     29  N        -42.2440  -75.9380  494.7940 N.am   70  LEU70      -0.1980
     30  CA       -42.5290  -74.8050  493.9250 C.3    70  LEU70       0.1596
     31  C        -41.2650  -74.3040  493.2040 C.2    70  LEU70       0.2287
     32  O        -41.3330  -73.8950  492.0490 O.2    70  LEU70      -0.2864
     33  CB       -43.2070  -73.6950  494.7340 C.3    70  LEU70       0.0297
     34  CG       -44.6890  -74.0310  494.9610 C.3    70  LEU70       0.0022
     35  CD1      -45.3330  -73.1710  496.0590 C.3    70  LEU70       0.0001
     36  CD2      -45.5010  -73.9440  493.6320 C.3    70  LEU70       0.0001
     37  N        -40.5770  -76.9160  490.4250 N.3    73  ALA73      -0.1245
     38  CA       -41.4850  -76.6440  489.3100 C.3    73  ALA73       0.1562
     39  C        -41.0950  -75.3610  488.5760 C.2    73  ALA73       0.2260
     40  O        -41.1770  -75.2950  487.3490 O.2    73  ALA73      -0.2867
     41  CB       -42.9340  -76.5510  489.7930 C.3    73  ALA73       0.0290
     42  N        -45.3470  -69.7210  490.2030 N.3   104  TYR104     -0.1241
     43  CA       -44.7390  -70.6810  491.1090 C.3   104  TYR104      0.1605
     44  C        -44.0880  -69.9550  492.2880 C.2   104  TYR104      0.2264
     45  O        -44.3320  -70.2960  493.4520 O.2   104  TYR104     -0.2867
     46  CB       -43.7120  -71.5500  490.3710 C.3   104  TYR104      0.0534
     47  CG       -44.3210  -72.3770  489.2580 C.ar  104  TYR104     -0.0201
     48  CD1      -45.1320  -73.4690  489.5510 C.ar  104  TYR104     -0.0009
     49  CD2      -44.1010  -72.0580  487.9120 C.ar  104  TYR104     -0.0009
     50  CE1      -45.7020  -74.2380  488.5500 C.ar  104  TYR104      0.0417
     51  CE2      -44.6770  -72.8310  486.8840 C.ar  104  TYR104      0.0417
     52  CZ       -45.4760  -73.9200  487.2260 C.ar  104  TYR104      0.1957
     53  OH       -46.0670  -74.7000  486.2590 O.3   104  TYR104     -0.2866
     54  N        -46.6660  -67.8760  494.4790 N.3   107  LEU107     -0.1245
     55  CA       -47.3970  -68.8210  495.3070 C.3   107  LEU107      0.1561
     56  C        -46.5390  -69.2710  496.4810 C.2   107  LEU107      0.2260
     57  O        -47.0130  -69.3630  497.6150 O.2   107  LEU107     -0.2867
     58  CB       -47.8430  -70.0270  494.4940 C.3   107  LEU107      0.0270
     59  CG       -48.5710  -71.1020  495.2930 C.3   107  LEU107      0.0019
     60  CD1      -49.7830  -70.4860  495.9980 C.3   107  LEU107      0.0001
     61  CD2      -49.0040  -72.2310  494.3660 C.3   107  LEU107      0.0001
     62  N        -47.4590  -68.6680  500.6600 N.3   111  ILE111     -0.1245
     63  CA       -47.5480  -69.7750  501.5980 C.3   111  ILE111      0.1561
     64  C        -46.4880  -69.6490  502.6800 C.2   111  ILE111      0.2260
     65  O        -46.7380  -69.9250  503.8590 O.2   111  ILE111     -0.2867
     66  CB       -47.3570  -71.1410  500.8830 C.3   111  ILE111      0.0252
     67  CG1      -48.5400  -71.4830  499.9870 C.3   111  ILE111      0.0019
     68  CG2      -47.1350  -72.2540  501.8630 C.3   111  ILE111      0.0019
     69  CD1      -48.2280  -72.6530  499.0380 C.3   111  ILE111      0.0001
     70  N        -45.7080  -68.4330  507.4560 N.3   115  MET115     -0.1245
     71  CA       -45.1120  -69.4560  508.3040 C.3   115  MET115      0.1570
     72  C        -43.7720  -69.0140  508.8950 C.2   115  MET115      0.2261
     73  O        -43.4680  -69.3540  510.0370 O.2   115  MET115     -0.2867
     74  CB       -44.9470  -70.7610  507.5290 C.3   115  MET115      0.0387
     75  CG       -46.2810  -71.4240  507.2330 C.3   115  MET115      0.0595
     76  SD       -46.1080  -73.1370  506.7270 S.3   115  MET115     -0.1393
     77  CE       -45.5820  -72.8760  505.0410 C.3   115  MET115      0.0692
@<TRIPOS>BOND
     1    53    52    1
     2    51    52   ar
     3    51    49   ar
     4    52    50   ar
     5    40    39    2
     6    49    47   ar
     7    50    48   ar
     8    39    38    1
     9    47    48   ar
    10    47    46    1
    11    38    41    1
    12    38    37    1
    13    42    43    1
    14    46    43    1
    15    43    44    1
    16    32    31    2
    17    44    45    2
    18    24    23    2
    19    31    30    1
    20    36    34    1
    21    30    33    1
    22    30    29    1
    23    23    29   am
    24    23    22    1
    25    61    59    1
    26    54    55    1
    27    58    59    1
    28    58    55    1
    29    33    34    1
    30    34    35    1
    31    22    25    1
    32    22    21    1
    33    59    60    1
    34    55    56    1
    35    25    26    1
    36    28    26    1
    37    56    57    2
    38    26    27    1
    39    18    17    2
    40    17    16    1
    41    69    67    1
    42    11    10    2
    43    16    19    1
    44    16    15    1
    45    20    19    1
    46    67    66    1
    47    10    15   am
    48    10     9    1
    49    62    63    1
    50    66    63    1
    51    66    68    1
    52    13    12    1
    53     9    12    1
    54     9     8    1
    55    63    64    1
    56    12    14    1
    57    64    65    2
    58     4     3    2
    59     3     2    1
    60    77    76    1
    61     6     5    1
    62     2     5    1
    63     2     1    1
    64     5     7    1
    65    76    75    1
    66    75    74    1
    67    70    71    1
    68    74    71    1
    69    71    72    1
    70    72    73    2
