@<TRIPOS>MOLECULE
tmp/3x43G00.pdb
 162 156 0 0 0
SMALL
GASTEIGER

@<TRIPOS>ATOM
      1  N         48.0150  -37.6760   60.3980 N.3    40  SER40      -0.1202
      2  CA        46.6930  -37.7270   61.0120 C.3    40  SER40       0.2020
      3  C         46.6250  -37.2920   62.4660 C.2    40  SER40       0.2619
      4  O         47.6350  -37.2100   63.1640 O.2    40  SER40      -0.2717
      5  CB        46.1160  -39.1450   60.8870 C.3    40  SER40       0.2103
      6  OG        46.0030  -39.7670   62.1520 O.3    40  SER40      -0.2182
      7  N         45.3990  -37.0310   62.9080 N.am   41  VAL41      -0.1965
      8  CA        45.1200  -36.6020   64.2700 C.3    41  VAL41       0.1727
      9  C         45.6230  -37.6040   65.3200 C.2    41  VAL41       0.2616
     10  O         45.8850  -37.2320   66.4670 O.2    41  VAL41      -0.2715
     11  CB        43.6110  -36.3960   64.4600 C.3    41  VAL41       0.0290
     12  CG1       42.8880  -37.7090   64.2610 C.3    41  VAL41       0.0023
     13  CG2       43.3260  -35.8360   65.8440 C.3    41  VAL41       0.0023
     14  N         45.7660  -38.8670   64.9330 N.am   42  LYS42      -0.1977
     15  CA        46.2440  -39.8840   65.8730 C.3    42  LYS42       0.1596
     16  C         47.6670  -39.6510   66.3430 C.2    42  LYS42       0.2287
     17  O         48.1270  -40.2880   67.2870 O.2    42  LYS42      -0.2864
     18  CB        46.1510  -41.2670   65.2530 C.3    42  LYS42       0.0298
     19  CG        44.7410  -41.7040   65.0350 C.3    42  LYS42       0.0038
     20  CD        43.9850  -41.7490   66.3550 C.3    42  LYS42       0.0206
     21  CE        42.7570  -42.6150   66.1900 C.3    42  LYS42       0.1093
     22  NZ        42.1300  -42.2380   64.9010 N.3    42  LYS42      -0.1314
     23  N         47.3120  -38.9050   70.0960 N.3    45  LEU45      -0.1245
     24  CA        47.2140  -39.8750   71.1830 C.3    45  LEU45       0.1561
     25  C         48.4970  -40.7010   71.2930 C.2    45  LEU45       0.2260
     26  O         48.9510  -41.0130   72.3960 O.2    45  LEU45      -0.2867
     27  CB        45.9830  -40.7850   71.0260 C.3    45  LEU45       0.0270
     28  CG        45.8710  -41.9310   70.0220 C.3    45  LEU45       0.0019
     29  CD1       46.8310  -43.0670   70.3660 C.3    45  LEU45       0.0001
     30  CD2       44.4400  -42.4310   70.0570 C.3    45  LEU45       0.0001
     31  N         45.3940  -45.5910   61.1540 N.3    72  ASN72      -0.1240
     32  CA        46.0850  -44.4220   61.6890 C.3    72  ASN72       0.1653
     33  C         46.7590  -44.5110   63.0530 C.2    72  ASN72       0.2266
     34  O         47.8480  -43.9570   63.2300 O.2    72  ASN72      -0.2867
     35  CB        45.1450  -43.2090   61.6450 C.3    72  ASN72       0.1155
     36  CG        44.7430  -42.8360   60.2180 C.2    72  ASN72       0.2627
     37  OD1       45.3810  -43.2490   59.2480 O.2    72  ASN72      -0.2716
     38  ND2       43.6770  -42.0630   60.0880 N.am   72  ASN72      -0.0877
     39  N         44.8460  -40.0820   76.1760 N.3   147  ASN147     -0.1240
     40  CA        44.2960  -39.7590   74.8630 C.3   147  ASN147      0.1653
     41  C         43.4640  -38.4670   74.9330 C.2   147  ASN147      0.2266
     42  O         43.8350  -37.4560   74.3420 O.2   147  ASN147     -0.2867
     43  CB        43.4460  -40.9350   74.3590 C.3   147  ASN147      0.1155
     44  CG        42.7160  -40.6170   73.0820 C.2   147  ASN147      0.2627
     45  OD1       42.8370  -39.5140   72.5450 O.2   147  ASN147     -0.2716
     46  ND2       41.9490  -41.5850   72.5790 N.am  147  ASN147     -0.0877
     47  N         44.1660  -33.9290   73.9540 N.3   151  HIS151     -0.1241
     48  CA        43.2530  -33.0940   73.1890 C.3   151  HIS151      0.1621
     49  C         42.8100  -31.8900   74.0040 C.2   151  HIS151      0.2264
     50  O         42.5900  -30.8130   73.4540 O.2   151  HIS151     -0.2867
     51  CB        42.0440  -33.9000   72.7590 C.3   151  HIS151      0.0745
     52  CG        42.3170  -34.8030   71.6040 C.ar  151  HIS151      0.0817
     53  ND1       42.7200  -34.3290   70.3750 N.ar  151  HIS151     -0.2268
     54  CD2       42.2540  -36.1520   71.4920 C.ar  151  HIS151      0.1154
     55  CE1       42.8930  -35.3500   69.5530 C.ar  151  HIS151      0.1986
     56  NE2       42.6160  -36.4670   70.2070 N.ar  151  HIS151     -0.2212
     57  N         33.4520  -36.2390   64.3130 N.3   174  GLY174     -0.1210
     58  CA        32.9100  -37.5780   64.3720 C.3   174  GLY174      0.1956
     59  C         33.7050  -38.2120   65.4950 C.2   174  GLY174      0.2612
     60  O         34.5590  -37.5490   66.0880 O.2   174  GLY174     -0.2717
     61  N         33.4490  -39.4710   65.8170 N.am  175  PHE175     -0.1962
     62  CA        34.2230  -40.0930   66.8780 C.3   175  PHE175      0.1771
     63  C         34.6200  -41.5130   66.5420 C.2   175  PHE175      0.2620
     64  O         33.9020  -42.2300   65.8440 O.2   175  PHE175     -0.2715
     65  CB        33.4610  -40.0680   68.2140 C.3   175  PHE175      0.0574
     66  CG        32.1150  -40.7210   68.1600 C.ar  175  PHE175     -0.0200
     67  CD1       31.9970  -42.1070   68.2180 C.ar  175  PHE175     -0.0042
     68  CD2       30.9620  -39.9540   68.0400 C.ar  175  PHE175     -0.0042
     69  CE1       30.7480  -42.7210   68.1540 C.ar  175  PHE175     -0.0003
     70  CE2       29.7100  -40.5580   67.9760 C.ar  175  PHE175     -0.0003
     71  CZ        29.6040  -41.9450   68.0330 C.ar  175  PHE175     -0.0000
     72  N         35.7970  -41.8880   67.0310 N.am  176  GLY176     -0.1940
     73  CA        36.3210  -43.2230   66.8400 C.3   176  GLY176      0.2014
     74  C         36.6100  -43.6640   68.2530 C.2   176  GLY176      0.2640
     75  O         35.8650  -44.4490   68.8300 O.2   176  GLY176     -0.2714
     76  N         37.6870  -43.1280   68.8170 N.am  177  THR177     -0.1936
     77  CA        38.0710  -43.4270   70.1900 C.3   177  THR177      0.2028
     78  C         37.3200  -42.4580   71.0900 C.2   177  THR177      0.2643
     79  O         37.1630  -42.7040   72.2790 O.2   177  THR177     -0.2714
     80  CB        39.5790  -43.2140   70.4150 C.3   177  THR177      0.1808
     81  OG1       39.8690  -41.8120   70.4410 O.3   177  THR177     -0.2208
     82  CG2       40.3780  -43.8710   69.3110 C.3   177  THR177      0.0379
     83  N         36.8700  -41.3540   70.4930 N.am  178  THR178     -0.1936
     84  CA        36.1290  -40.2820   71.1670 C.3   178  THR178      0.2028
     85  C         37.0230  -39.3510   71.9830 C.2   178  THR178      0.2643
     86  O         36.5410  -38.6100   72.8450 O.2   178  THR178     -0.2714
     87  CB        35.0110  -40.8200   72.1020 C.3   178  THR178      0.1808
     88  OG1       35.5790  -41.2020   73.3640 O.3   178  THR178     -0.2208
     89  CG2       34.2860  -41.9970   71.4600 C.3   178  THR178      0.0379
     90  N         38.3210  -39.3850   71.6980 N.am  179  GLY179     -0.1939
     91  CA        39.2630  -38.5380   72.4070 C.3   179  GLY179      0.2014
     92  C         39.1560  -37.0810   71.9980 C.2   179  GLY179      0.2640
     93  O         39.3130  -36.1860   72.8170 O.2   179  GLY179     -0.2714
     94  N         38.8920  -36.8350   70.7240 N.am  180  THR180     -0.1936
     95  CA        38.7690  -35.4650   70.2540 C.3   180  THR180      0.2028
     96  C         37.5230  -34.8570   70.8650 C.2   180  THR180      0.2642
     97  O         37.5810  -33.8040   71.5060 O.2   180  THR180     -0.2714
     98  CB        38.6570  -35.4080   68.7210 C.3   180  THR180      0.1808
     99  OG1       39.7210  -36.1730   68.1510 O.3   180  THR180     -0.2208
    100  CG2       38.7500  -33.9690   68.2260 C.3   180  THR180      0.0379
    101  N         36.4020  -35.5450   70.6660 N.am  181  LEU181     -0.1977
    102  CA        35.1030  -35.1120   71.1720 C.3   181  LEU181      0.1596
    103  C         35.1240  -34.8580   72.6760 C.2   181  LEU181      0.2287
    104  O         34.6390  -33.8270   73.1560 O.2   181  LEU181     -0.2864
    105  CB        34.0470  -36.1670   70.8460 C.3   181  LEU181      0.0297
    106  CG        32.6290  -35.9310   71.3680 C.3   181  LEU181      0.0022
    107  CD1       31.9950  -34.7310   70.6860 C.3   181  LEU181      0.0001
    108  CD2       31.8100  -37.1710   71.1090 C.3   181  LEU181      0.0001
    109  N         36.0690  -44.7750   57.4080 N.3   219  GLN219     -0.1231
    110  CA        37.2370  -45.1680   58.1940 C.3   219  GLN219      0.1698
    111  C         37.5450  -44.2300   59.3580 C.2   219  GLN219      0.2593
    112  O         37.4960  -43.0030   59.2200 O.2   219  GLN219     -0.2718
    113  CB        38.4730  -45.2650   57.2910 C.3   219  GLN219      0.0381
    114  CG        38.2110  -45.9000   55.9340 C.3   219  GLN219      0.0905
    115  CD        39.4140  -46.6620   55.3970 C.2   219  GLN219      0.2608
    116  OE1       40.2690  -47.1170   56.1590 O.2   219  GLN219     -0.2717
    117  NE2       39.4830  -46.8050   54.0760 N.am  219  GLN219     -0.0878
    118  N         37.8690  -44.8240   60.5030 N.am  220  GLY220     -0.1942
    119  CA        38.1930  -44.0450   61.6840 C.3   220  GLY220      0.2014
    120  C         37.0340  -43.7800   62.6270 C.2   220  GLY220      0.2638
    121  O         37.2470  -43.5490   63.8120 O.2   220  GLY220     -0.2714
    122  N         35.8090  -43.8250   62.1160 N.am  221  LEU221     -0.1977
    123  CA        34.6360  -43.5540   62.9400 C.3   221  LEU221      0.1596
    124  C         33.8890  -44.7790   63.4630 C.2   221  LEU221      0.2287
    125  O         34.1440  -45.9150   63.0580 O.2   221  LEU221     -0.2864
    126  CB        33.6410  -42.6800   62.1690 C.3   221  LEU221      0.0297
    127  CG        34.0930  -41.3020   61.6830 C.3   221  LEU221      0.0022
    128  CD1       32.8990  -40.5810   61.0700 C.3   221  LEU221      0.0001
    129  CD2       34.6720  -40.4920   62.8430 C.3   221  LEU221      0.0001
    130  N         36.2290  -39.2780   56.7090 N.3   264  SER264     -0.1217
    131  CA        35.6050  -38.7380   57.9190 C.3   264  SER264      0.1889
    132  C         35.6780  -37.2230   57.8670 C.2   264  SER264      0.2288
    133  O         34.8230  -36.5290   58.4200 O.2   264  SER264     -0.2866
    134  CB        36.3070  -39.2470   59.1870 C.3   264  SER264      0.2089
    135  OG        37.6970  -38.9540   59.1840 O.3   264  SER264     -0.2183
    136  N         40.2620  -35.0000   60.3220 N.3   290  PRO290     -0.2102
    137  CA        41.1330  -36.0180   60.9220 C.3   290  PRO290      0.1504
    138  C         42.4500  -36.3960   60.2470 C.2   290  PRO290      0.2575
    139  O         43.4880  -36.4350   60.9090 O.2   290  PRO290     -0.2718
    140  CB        40.2130  -37.2250   61.0790 C.3   290  PRO290      0.0282
    141  CG        38.8560  -36.6390   61.1510 C.3   290  PRO290      0.0208
    142  CD        38.8770  -35.4860   60.2060 C.3   290  PRO290      0.0893
    143  N         42.4240  -36.6810   58.9500 N.am  291  ASP291     -0.1974
    144  CA        43.6560  -37.0720   58.2850 C.3   291  ASP291      0.1708
    145  C         43.7890  -36.6770   56.8210 C.2   291  ASP291      0.2293
    146  O         42.8690  -36.1160   56.2230 O.2   291  ASP291     -0.2864
    147  CB        43.8530  -38.5900   58.4370 C.3   291  ASP291      0.1436
    148  CG        42.8640  -39.4080   57.6140 C.2   291  ASP291      0.3671
    149  OD1       42.0220  -38.8210   56.9050 O.co2 291  ASP291     -0.2456
    150  OD2       42.9370  -40.6550   57.6790 O.co2 291  ASP291     -0.2456
    151  N         44.0300  -42.7830   51.0270 N.3   296  TYR296     -0.1241
    152  CA        42.7290  -43.3070   50.6330 C.3   296  TYR296      0.1605
    153  C         42.6490  -43.5140   49.1240 C.2   296  TYR296      0.2264
    154  O         41.5590  -43.6020   48.5550 O.2   296  TYR296     -0.2867
    155  CB        41.6280  -42.3480   51.0710 C.3   296  TYR296      0.0534
    156  CG        41.4660  -42.2590   52.5660 C.ar  296  TYR296     -0.0201
    157  CD1       40.4590  -42.9670   53.2180 C.ar  296  TYR296     -0.0009
    158  CD2       42.3220  -41.4640   53.3280 C.ar  296  TYR296     -0.0009
    159  CE1       40.3090  -42.8830   54.5950 C.ar  296  TYR296      0.0417
    160  CE2       42.1750  -41.3810   54.7070 C.ar  296  TYR296      0.0417
    161  CZ        41.1700  -42.0900   55.3300 C.ar  296  TYR296      0.1957
    162  OH        41.0300  -42.0080   56.6910 O.3   296  TYR296     -0.2866
@<TRIPOS>BOND
     1   154   153    2
     2   153   152    1
     3   152   151    1
     4   152   155    1
     5   155   156    1
     6   156   157   ar
     7   156   158   ar
     8   157   159   ar
     9   158   160   ar
    10   117   115   am
    11   159   161   ar
    12   160   161   ar
    13   161   162    1
    14   115   114    1
    15   115   116    2
    16   114   113    1
    17   146   145    2
    18   130   131    1
    19   145   144    1
    20   149   148   ar
    21   113   110    1
    22   109   110    1
    23   148   150   ar
    24   148   147    1
    25   132   131    1
    26   132   133    2
    27   131   134    1
    28   110   111    1
    29   144   147    1
    30   144   143    1
    31   143   138   am
    32   135   134    1
    33   112   111    2
    34    37    36    2
    35   111   118   am
    36    38    36   am
    37   142   136    1
    38   142   141    1
    39    36    35    1
    40   138   139    2
    41   138   137    1
    42   136   137    1
    43     1     2    1
    44   118   119    1
    45     5     2    1
    46     5     6    1
    47   137   140    1
    48     2     3    1
    49   128   127    1
    50   140   141    1
    51    31    32    1
    52    35    32    1
    53   127   126    1
    54   127   129    1
    55   119   120    1
    56    32    33    1
    57   122   120   am
    58   122   123    1
    59   126   123    1
    60     3     7   am
    61     3     4    2
    62   120   121    2
    63     7     8    1
    64   123   124    1
    65    33    34    2
    66   125   124    2
    67    12    11    1
    68     8    11    1
    69     8     9    1
    70    57    58    1
    71    58    59    1
    72    11    13    1
    73    22    21    1
    74    14     9   am
    75    14    15    1
    76    19    18    1
    77    19    20    1
    78    18    15    1
    79     9    10    2
    80    59    61   am
    81    59    60    2
    82    61    62    1
    83    64    63    2
    84    15    16    1
    85    21    20    1
    86    16    17    2
    87    63    62    1
    88    63    72   am
    89    73    72    1
    90    73    74    1
    91    62    65    1
    92    70    71   ar
    93    70    68   ar
    94    71    69   ar
    95    68    66   ar
    96    99    98    1
    97    69    67   ar
    98    66    65    1
    99    66    67   ar
   100   100    98    1
   101    74    76   am
   102    74    75    2
   103    98    95    1
   104    76    77    1
   105    82    80    1
   106    55    56   ar
   107    55    53   ar
   108    28    30    1
   109    28    29    1
   110    28    27    1
   111    23    24    1
   112    77    80    1
   113    77    78    1
   114    56    54   ar
   115    95    94    1
   116    95    96    1
   117    53    52   ar
   118    80    81    1
   119    83    78   am
   120    83    84    1
   121   101    96   am
   122   101   102    1
   123   107   106    1
   124    94    92   am
   125   105   102    1
   126   105   106    1
   127    96    97    2
   128    27    24    1
   129    78    79    2
   130   108   106    1
   131    84    85    1
   132    84    87    1
   133   102   103    1
   134    24    25    1
   135    25    26    2
   136    89    87    1
   137    54    52   ar
   138    52    51    1
   139    90    85   am
   140    90    91    1
   141    85    86    2
   142    92    91    1
   143    92    93    2
   144    87    88    1
   145    45    44    2
   146    46    44   am
   147   103   104    2
   148    51    48    1
   149    44    43    1
   150    48    47    1
   151    48    49    1
   152    50    49    2
   153    42    41    2
   154    43    40    1
   155    40    41    1
   156    40    39    1
