@<TRIPOS>MOLECULE
tmp/3x44A00.pdb
 220 211 0 0 0
SMALL
GASTEIGER

@<TRIPOS>ATOM
      1  N          3.8160    2.0740    9.3520 N.3    41  VAL41      -0.1231
      2  CA         4.4330    3.0820   10.2000 C.3    41  VAL41       0.1692
      3  C          5.9320    2.8230   10.4210 C.2    41  VAL41       0.2591
      4  O          6.6830    3.7310   10.7760 O.2    41  VAL41      -0.2718
      5  CB         3.7050    3.1240   11.5670 C.3    41  VAL41       0.0266
      6  CG1        3.9080    1.8180   12.2850 C.3    41  VAL41       0.0020
      7  CG2        4.1890    4.3010   12.4070 C.3    41  VAL41       0.0020
      8  N          6.3660    1.5870   10.1960 N.am   42  ALA42      -0.1980
      9  CA         7.7660    1.2140   10.3920 C.3    42  ALA42       0.1597
     10  C          8.7200    2.0550    9.5530 C.2    42  ALA42       0.2287
     11  O          9.8960    2.1910    9.8820 O.2    42  ALA42      -0.2864
     12  CB         7.9560   -0.2730   10.0730 C.3    42  ALA42       0.0319
     13  N         10.5690    4.8730   11.4790 N.3    45  LEU45      -0.1245
     14  CA        11.6710    4.4380   12.3150 C.3    45  LEU45       0.1561
     15  C         12.8820    4.0820   11.4530 C.2    45  LEU45       0.2260
     16  O         14.0010    4.5060   11.7380 O.2    45  LEU45      -0.2867
     17  CB        11.2350    3.2230   13.1370 C.3    45  LEU45       0.0270
     18  CG        12.2360    2.5080   14.0450 C.3    45  LEU45       0.0019
     19  CD1       11.4690    1.7630   15.1270 C.3    45  LEU45       0.0001
     20  CD2       13.0790    1.5330   13.2380 C.3    45  LEU45       0.0001
     21  N         13.0620   -8.1230   14.2210 N.3    69  THR69      -0.1203
     22  CA        11.8010   -7.4530   13.9440 C.3    69  THR69       0.1994
     23  C         10.6060   -8.4000   13.9310 C.2    69  THR69       0.2618
     24  O         10.7750   -9.6080   13.7730 O.2    69  THR69      -0.2717
     25  CB        11.8960   -6.7590   12.5630 C.3    69  THR69       0.1784
     26  OG1       10.6310   -6.2060   12.2030 O.3    69  THR69      -0.2211
     27  CG2       12.3030   -7.7760   11.4990 C.3    69  THR69       0.0376
     28  N          9.4080   -7.8460   14.1090 N.am   70  SER70      -0.1951
     29  CA         8.1820   -8.6440   14.0450 C.3    70  SER70       0.1924
     30  C          7.7350   -8.6300   12.5830 C.2    70  SER70       0.2314
     31  O          6.7030   -9.2070   12.2300 O.2    70  SER70      -0.2863
     32  CB         7.0720   -8.0510   14.9310 C.3    70  SER70       0.2116
     33  OG         6.7230   -6.7310   14.5420 O.3    70  SER70      -0.2180
     34  N          7.4140   -5.6090   10.0220 N.3    72  ASN72      -0.1225
     35  CA         7.3880   -4.2840    9.4070 C.3    72  ASN72       0.1785
     36  C          8.7090   -3.5280    9.4640 C.2    72  ASN72       0.2597
     37  O          9.1210   -2.9150    8.4800 O.2    72  ASN72      -0.2718
     38  CB         6.2630   -3.4400   10.0190 C.3    72  ASN72       0.1169
     39  CG         4.8890   -3.8080    9.4640 C.2    72  ASN72       0.2627
     40  OD1        4.7690   -4.2120    8.3080 O.2    72  ASN72      -0.2716
     41  ND2        3.8500   -3.6660   10.2860 N.am   72  ASN72      -0.0877
     42  N          9.3960   -3.5610   10.5940 N.am   73  VAL73      -0.1980
     43  CA        10.6590   -2.8420   10.6340 C.3    73  VAL73       0.1595
     44  C         11.6410   -3.4970    9.6630 C.2    73  VAL73       0.2287
     45  O         12.4180   -2.8130    9.0030 O.2    73  VAL73      -0.2864
     46  CB        11.2320   -2.7940   12.0600 C.3    73  VAL73       0.0276
     47  CG1       12.7130   -2.4670   12.0270 C.3    73  VAL73       0.0022
     48  CG2       10.4910   -1.7210   12.8490 C.3    73  VAL73       0.0022
     49  N          5.7700  -15.2380   12.4230 N.3    96  TYR96      -0.1241
     50  CA         5.2130  -14.0370   11.7940 C.3    96  TYR96       0.1605
     51  C          4.8250  -14.3890   10.3520 C.2    96  TYR96       0.2264
     52  O          5.3940  -15.3020    9.7660 O.2    96  TYR96      -0.2867
     53  CB         6.2340  -12.8910   11.8560 C.3    96  TYR96       0.0534
     54  CG         6.3470  -12.3350   13.2600 C.ar   96  TYR96      -0.0201
     55  CD1        7.4530  -12.6220   14.0580 C.ar   96  TYR96      -0.0009
     56  CD2        5.2980  -11.6000   13.8200 C.ar   96  TYR96      -0.0009
     57  CE1        7.5060  -12.1920   15.3900 C.ar   96  TYR96       0.0417
     58  CE2        5.3480  -11.1720   15.1450 C.ar   96  TYR96       0.0417
     59  CZ         6.4520  -11.4750   15.9200 C.ar   96  TYR96       0.1957
     60  OH         6.4920  -11.0680   17.2300 O.3    96  TYR96      -0.2866
     61  N          5.6730  -11.1590    5.3080 N.3   100  ARG100     -0.1245
     62  CA         6.7800  -10.3950    5.8740 C.3   100  ARG100      0.1563
     63  C          8.1050  -10.9440    5.3420 C.2   100  ARG100      0.2260
     64  O          8.9880  -10.1800    4.9520 O.2   100  ARG100     -0.2867
     65  CB         6.7650  -10.4940    7.3970 C.3   100  ARG100      0.0307
     66  CG         5.7500   -9.6020    8.0850 C.3   100  ARG100      0.0489
     67  CD         5.3620  -10.1800    9.4420 C.3   100  ARG100      0.2205
     68  NE         4.8210   -9.1460   10.3160 N.pl3 100  ARG100     -0.0865
     69  CZ         3.5670   -8.7090   10.2640 C.cat 100  ARG100      0.5346
     70  NH1        2.7200   -9.2220    9.3780 N.pl3 100  ARG100      0.1354
     71  NH2        3.1680   -7.7430   11.0780 N.pl3 100  ARG100      0.1354
     72  N         10.8600  -11.4180   21.0960 N.3   120  SER120     -0.1217
     73  CA        11.8740  -10.4990   20.6110 C.3   120  SER120      0.1889
     74  C         13.0840  -10.4760   21.5370 C.2   120  SER120      0.2288
     75  O         14.1530  -10.0130   21.1620 O.2   120  SER120     -0.2866
     76  CB        11.2910   -9.0960   20.4800 C.3   120  SER120      0.2089
     77  OG        10.3470   -9.0490   19.4250 O.3   120  SER120     -0.2183
     78  N         16.0470   -0.9580   17.5700 N.3   141  GLN141     -0.1231
     79  CA        14.7680   -0.2610   17.5830 C.3   141  GLN141      0.1698
     80  C         14.0930   -0.1040   18.9450 C.2   141  GLN141      0.2592
     81  O         13.3090    0.8220   19.1410 O.2   141  GLN141     -0.2718
     82  CB        13.7970   -0.9190   16.5850 C.3   141  GLN141      0.0381
     83  CG        13.3800   -2.3580   16.9000 C.3   141  GLN141      0.0905
     84  CD        12.1070   -2.7540   16.1580 C.2   141  GLN141      0.2608
     85  OE1       11.2300   -1.9190   15.9300 O.2   141  GLN141     -0.2717
     86  NE2       12.0030   -4.0260   15.7760 N.am  141  GLN141     -0.0878
     87  N         14.3930   -0.9860   19.8910 N.am  142  PHE142     -0.1976
     88  CA        13.7640   -0.8930   21.2100 C.3   142  PHE142      0.1639
     89  C         14.4600    0.0630   22.1650 C.2   142  PHE142      0.2290
     90  O         13.9410    0.3530   23.2510 O.2   142  PHE142     -0.2864
     91  CB        13.7040   -2.2710   21.8660 C.3   142  PHE142      0.0560
     92  CG        12.8760   -3.2600   21.1120 C.ar  142  PHE142     -0.0200
     93  CD1       11.4870   -3.2510   21.2250 C.ar  142  PHE142     -0.0042
     94  CD2       13.4790   -4.2210   20.3020 C.ar  142  PHE142     -0.0042
     95  CE1       10.7160   -4.1830   20.5480 C.ar  142  PHE142     -0.0003
     96  CE2       12.7140   -5.1550   19.6220 C.ar  142  PHE142     -0.0003
     97  CZ        11.3300   -5.1390   19.7440 C.ar  142  PHE142     -0.0000
     98  N         14.0680    6.5870   17.2970 N.3   147  ASN147     -0.1240
     99  CA        12.7690    5.9860   17.0300 C.3   147  ASN147      0.1653
    100  C         11.6690    6.9510   17.4900 C.2   147  ASN147      0.2266
    101  O         11.0050    7.5690   16.6600 O.2   147  ASN147     -0.2867
    102  CB        12.6970    4.6240   17.7430 C.3   147  ASN147      0.1155
    103  CG        11.3120    3.9950   17.7120 C.2   147  ASN147      0.2627
    104  OD1       10.3540    4.5540   17.1660 O.2   147  ASN147     -0.2716
    105  ND2       11.2040    2.8130   18.3070 N.am  147  ASN147     -0.0877
    106  N          8.8770   10.3260   15.7010 N.3   151  HIS151     -0.1241
    107  CA         7.4330   10.3700   15.9370 C.3   151  HIS151      0.1621
    108  C          7.0230   11.6970   16.5520 C.2   151  HIS151      0.2264
    109  O          5.9220   12.1890   16.3050 O.2   151  HIS151     -0.2867
    110  CB         7.0000    9.2220   16.8470 C.3   151  HIS151      0.0745
    111  CG         7.0220    7.8910   16.1660 C.ar  151  HIS151      0.0817
    112  ND1        6.1300    7.5520   15.1690 N.ar  151  HIS151     -0.2268
    113  CD2        7.8460    6.8290   16.3140 C.ar  151  HIS151      0.1154
    114  CE1        6.4050    6.3360   14.7340 C.ar  151  HIS151      0.1986
    115  NE2        7.4410    5.8760   15.4120 N.ar  151  HIS151     -0.2212
    116  N         -1.4630    0.9260   20.1490 N.3   174  GLY174     -0.1210
    117  CA        -0.9250   -0.2430   20.8160 C.3   174  GLY174      0.1956
    118  C          0.5680    0.0350   20.8250 C.2   174  GLY174      0.2612
    119  O          0.9810    1.1750   20.5790 O.2   174  GLY174     -0.2717
    120  N          1.3880   -0.9690   21.1030 N.am  175  PHE175     -0.1962
    121  CA         2.8210   -0.7430   21.0860 C.3   175  PHE175      0.1771
    122  C          3.6710   -1.9890   20.9540 C.2   175  PHE175      0.2620
    123  O          3.3050   -3.0680   21.4150 O.2   175  PHE175     -0.2715
    124  CB         3.2520    0.0530   22.3250 C.3   175  PHE175      0.0574
    125  CG         3.1070   -0.6900   23.6200 C.ar  175  PHE175     -0.0200
    126  CD1        4.0590   -1.6250   24.0120 C.ar  175  PHE175     -0.0042
    127  CD2        2.0410   -0.4180   24.4770 C.ar  175  PHE175     -0.0042
    128  CE1        3.9590   -2.2770   25.2390 C.ar  175  PHE175     -0.0003
    129  CE2        1.9270   -1.0650   25.7130 C.ar  175  PHE175     -0.0003
    130  CZ         2.8900   -1.9950   26.0940 C.ar  175  PHE175     -0.0000
    131  N          4.7980   -1.8180   20.2720 N.am  176  GLY176     -0.1940
    132  CA         5.7660   -2.8800   20.0850 C.3   176  GLY176      0.2014
    133  C          7.0140   -2.3030   20.7370 C.2   176  GLY176      0.2640
    134  O          7.3960   -2.7080   21.8360 O.2   176  GLY176     -0.2714
    135  N          7.6360   -1.3350   20.0700 N.am  177  THR177     -0.1936
    136  CA         8.8160   -0.6740   20.6240 C.3   177  THR177      0.2028
    137  C          8.3710    0.4780   21.5340 C.2   177  THR177      0.2643
    138  O          9.1380    0.9500   22.3800 O.2   177  THR177     -0.2714
    139  CB         9.7050   -0.0860   19.5100 C.3   177  THR177      0.1808
    140  OG1        9.0140    0.9890   18.8520 O.3   177  THR177     -0.2208
    141  CG2       10.0560   -1.1600   18.4940 C.3   177  THR177      0.0379
    142  N          7.1140    0.8910   21.3600 N.am  178  THR178     -0.1936
    143  CA         6.4820    2.0100   22.0810 C.3   178  THR178      0.2028
    144  C          6.9690    3.3540   21.5440 C.2   178  THR178      0.2643
    145  O          6.6320    4.4100   22.0820 O.2   178  THR178     -0.2714
    146  CB         6.6960    1.9720   23.6320 C.3   178  THR178      0.1808
    147  OG1        7.9370    2.5980   23.9790 O.3   178  THR178     -0.2208
    148  CG2        6.6620    0.5510   24.1420 C.3   178  THR178      0.0379
    149  N          7.7330    3.3200   20.4560 N.am  179  GLY179     -0.1939
    150  CA         8.2210    4.5620   19.8790 C.3   179  GLY179      0.2014
    151  C          7.0890    5.4920   19.4640 C.2   179  GLY179      0.2639
    152  O          7.1900    6.7140   19.6070 O.2   179  GLY179     -0.2714
    153  N          6.0100    4.9190   18.9390 N.am  180  THR180     -0.1950
    154  CA         4.8710    5.7160   18.4990 C.3   180  THR180      0.1897
    155  C          4.1950    6.3320   19.7090 C.2   180  THR180      0.2313
    156  O          3.9710    7.5280   19.7600 O.2   180  THR180     -0.2863
    157  CB         3.8430    4.8520   17.7290 C.3   180  THR180      0.1794
    158  OG1        4.4000    4.4580   16.4700 O.3   180  THR180     -0.2208
    159  CG2        2.5690    5.6330   17.4700 C.3   180  THR180      0.0378
    160  N          0.3080   -9.4260   15.5450 N.3   219  GLN219     -0.1231
    161  CA         1.6370   -9.1950   14.9950 C.3   219  GLN219      0.1698
    162  C          2.1030   -7.7490   15.0480 C.2   219  GLN219      0.2593
    163  O          1.4230   -6.8410   14.5700 O.2   219  GLN219     -0.2718
    164  CB         1.6930   -9.7250   13.5540 C.3   219  GLN219      0.0381
    165  CG         1.0810  -11.1160   13.4020 C.3   219  GLN219      0.0905
    166  CD         1.6950  -11.9380   12.2750 C.2   219  GLN219      0.2608
    167  OE1        2.7610  -11.6130   11.7560 O.2   219  GLN219     -0.2717
    168  NE2        1.0160  -13.0110   11.8930 N.am  219  GLN219     -0.0878
    169  N          3.2750   -7.5460   15.6420 N.am  220  GLY220     -0.1942
    170  CA         3.8240   -6.2100   15.7340 C.3   220  GLY220      0.2014
    171  C          3.7840   -5.6600   17.1460 C.2   220  GLY220      0.2638
    172  O          4.5790   -4.7920   17.5030 O.2   220  GLY220     -0.2714
    173  N          2.8660   -6.1730   17.9570 N.am  221  LEU221     -0.1977
    174  CA         2.7330   -5.7010   19.3310 C.3   221  LEU221      0.1596
    175  C          3.3530   -6.5980   20.3850 C.2   221  LEU221      0.2287
    176  O          3.7080   -7.7590   20.1370 O.2   221  LEU221     -0.2864
    177  CB         1.2580   -5.5360   19.7090 C.3   221  LEU221      0.0297
    178  CG         0.3210   -4.7860   18.7650 C.3   221  LEU221      0.0022
    179  CD1       -1.0690   -4.7280   19.3790 C.3   221  LEU221      0.0001
    180  CD2        0.8560   -3.3870   18.5260 C.3   221  LEU221      0.0001
    181  N          6.3420   -7.0440   22.7960 N.3   223  PRO223     -0.2116
    182  CA         7.5380   -7.8940   22.8130 C.3   223  PRO223      0.1372
    183  C          7.5980   -8.4520   24.2480 C.2   223  PRO223      0.2244
    184  O          6.9240   -7.9270   25.1390 O.2   223  PRO223     -0.2868
    185  CB         8.6670   -6.9150   22.5240 C.3   223  PRO223      0.0268
    186  CG         8.1670   -5.6170   23.0840 C.3   223  PRO223      0.0207
    187  CD         6.6880   -5.6120   22.7670 C.3   223  PRO223      0.0892
    188  N         -3.1500   -5.1920   14.4640 N.3   264  SER264     -0.1217
    189  CA        -2.9490   -4.1470   15.4570 C.3   264  SER264      0.1889
    190  C         -3.8550   -2.9710   15.1320 C.2   264  SER264      0.2288
    191  O         -4.2890   -2.2480   16.0260 O.2   264  SER264     -0.2866
    192  CB        -1.4840   -3.6920   15.4880 C.3   264  SER264      0.2089
    193  OG        -1.1440   -2.9450   14.3390 O.3   264  SER264     -0.2183
    194  N         -1.4070    1.0450   12.0330 N.3   290  PRO290     -0.2102
    195  CA        -0.0030    0.8050   11.6790 C.3   290  PRO290      0.1504
    196  C          0.3590    0.2940   10.2940 C.2   290  PRO290      0.2575
    197  O          1.3710    0.7160    9.7340 O.2   290  PRO290     -0.2718
    198  CB         0.4860   -0.1290   12.7850 C.3   290  PRO290      0.0282
    199  CG        -0.4340    0.1850   13.9570 C.3   290  PRO290      0.0208
    200  CD        -1.7700    0.3410   13.2780 C.3   290  PRO290      0.0893
    201  N         -0.4420   -0.6010    9.7300 N.am  291  ASP291     -0.1974
    202  CA        -0.0980   -1.1260    8.4190 C.3   291  ASP291      0.1708
    203  C         -1.2700   -1.5930    7.5680 C.2   291  ASP291      0.2293
    204  O         -2.4270   -1.5680    7.9970 O.2   291  ASP291     -0.2864
    205  CB         0.9230   -2.2650    8.5670 C.3   291  ASP291      0.1436
    206  CG         0.3510   -3.4960    9.2670 C.2   291  ASP291      0.3671
    207  OD1       -0.8560   -3.5100    9.6030 O.co2 291  ASP291     -0.2456
    208  OD2        1.1270   -4.4570    9.4760 O.co2 291  ASP291     -0.2456
    209  N         -1.3130   -9.8680    5.6000 N.3   296  TYR296     -0.1241
    210  CA        -1.9910  -10.7500    6.5400 C.3   296  TYR296      0.1605
    211  C         -2.8970  -11.7630    5.8440 C.2   296  TYR296      0.2264
    212  O         -3.6840  -12.4540    6.4930 O.2   296  TYR296     -0.2867
    213  CB        -2.8200   -9.9130    7.5190 C.3   296  TYR296      0.0534
    214  CG        -1.9810   -8.9740    8.3510 C.ar  296  TYR296     -0.0201
    215  CD1       -1.5260   -9.3550    9.6130 C.ar  296  TYR296     -0.0009
    216  CD2       -1.6190   -7.7190    7.8650 C.ar  296  TYR296     -0.0009
    217  CE1       -0.7270   -8.5110   10.3720 C.ar  296  TYR296      0.0417
    218  CE2       -0.8240   -6.8730    8.6130 C.ar  296  TYR296      0.0417
    219  CZ        -0.3770   -7.2700    9.8690 C.ar  296  TYR296      0.1957
    220  OH         0.4110   -6.4220   10.6180 O.3   296  TYR296     -0.2866
@<TRIPOS>BOND
     1    64    63    2
     2    61    62    1
     3    63    62    1
     4   209   210    1
     5   211   212    2
     6   211   210    1
     7    62    65    1
     8   210   213    1
     9    65    66    1
    10   213   214    1
    11   203   204    2
    12   203   202    1
    13   216   214   ar
    14   216   218   ar
    15    66    67    1
    16    40    39    2
    17   214   215   ar
    18   202   205    1
    19   202   201    1
    20    37    36    2
    21   205   206    1
    22   218   219   ar
    23    45    44    2
    24   206   208   ar
    25   206   207   ar
    26     1     2    1
    27    70    69    1
    28    35    36    1
    29    35    38    1
    30    35    34    1
    31    67    68    1
    32    39    38    1
    33    39    41   am
    34    36    42   am
    35    10    11    2
    36    10     9    1
    37   215   217   ar
    38    44    43    1
    39   201   196   am
    40   197   196    2
    41    52    51    2
    42   219   217   ar
    43   219   220    1
    44    12     9    1
    45     8     9    1
    46     8     3   am
    47     2     3    1
    48     2     5    1
    49    69    68    2
    50    69    71    1
    51   196   195    1
    52    51    50    1
    53     3     4    2
    54    42    43    1
    55    43    46    1
    56    15    16    2
    57    15    14    1
    58    13    14    1
    59    27    25    1
    60     5     6    1
    61     5     7    1
    62   195   194    1
    63   195   198    1
    64   167   166    2
    65    50    53    1
    66    50    49    1
    67    53    54    1
    68   168   166   am
    69    47    46    1
    70   194   200    1
    71    46    48    1
    72    26    25    1
    73    31    30    2
    74   166   165    1
    75    14    17    1
    76    25    22    1
    77    30    29    1
    78   198   199    1
    79    17    18    1
    80    20    18    1
    81    54    56   ar
    82    54    55   ar
    83   200   199    1
    84   165   164    1
    85   164   161    1
    86    24    23    2
    87    56    58   ar
    88    23    22    1
    89    23    28   am
    90    22    21    1
    91    18    19    1
    92    29    28    1
    93    29    32    1
    94    55    57   ar
    95   193   192    1
    96   188   189    1
    97    33    32    1
    98   163   162    2
    99   114   112   ar
   100   114   115   ar
   101   161   162    1
   102   161   160    1
   103   162   169   am
   104   190   189    1
   105   190   191    2
   106    58    59   ar
   107   112   111   ar
   108    57    59   ar
   109   115   113   ar
   110   189   192    1
   111   169   170    1
   112   106   107    1
   113   170   171    1
   114    86    84   am
   115    59    60    1
   116    85    84    2
   117   107   108    1
   118   107   110    1
   119    84    83    1
   120   111   113   ar
   121   111   110    1
   122   109   108    2
   123   158   157    1
   124    82    83    1
   125    82    79    1
   126   101   100    2
   127    99    98    1
   128    99   100    1
   129    99   102    1
   130   171   172    2
   131   171   173   am
   132   104   103    2
   133   159   157    1
   134    78    79    1
   135    79    80    1
   136   103   102    1
   137   103   105   am
   138   157   154    1
   139   173   174    1
   140   141   139    1
   141   154   153    1
   142   154   155    1
   143   180   178    1
   144   178   179    1
   145   178   177    1
   146   140   139    1
   147   153   151   am
   148    80    81    2
   149    80    87   am
   150   174   177    1
   151   174   175    1
   152    77    76    1
   153   151   152    2
   154   151   150    1
   155   139   136    1
   156    96    97   ar
   157    96    94   ar
   158   155   156    2
   159    97    95   ar
   160   150   149    1
   161    87    88    1
   162   135   136    1
   163   135   133   am
   164   132   131    1
   165   132   133    1
   166   176   175    2
   167   116   117    1
   168   131   122   am
   169    94    92   ar
   170   149   144   am
   171    76    73    1
   172    95    93   ar
   173   119   118    2
   174    73    72    1
   175    73    74    1
   176   136   137    1
   177   133   134    2
   178   117   118    1
   179   118   120   am
   180   122   121    1
   181   122   123    2
   182   121   120    1
   183   121   124    1
   184    92    93   ar
   185    92    91    1
   186    75    74    2
   187    88    91    1
   188    88    89    1
   189   142   137   am
   190   142   143    1
   191   137   138    2
   192   144   143    1
   193   144   145    2
   194   143   146    1
   195    89    90    2
   196   124   125    1
   197   185   182    1
   198   185   186    1
   199   187   181    1
   200   187   186    1
   201   181   182    1
   202   182   183    1
   203   125   126   ar
   204   125   127   ar
   205   146   147    1
   206   146   148    1
   207   126   128   ar
   208   183   184    2
   209   127   129   ar
   210   128   130   ar
   211   129   130   ar
