@<TRIPOS>MOLECULE
tmp/3ypiB00.pdb
 89 82 0 0 0
SMALL
GASTEIGER

@<TRIPOS>ATOM
      1  N         58.3640   36.3770   51.7910 N.3     9  ASN9       -0.1240
      2  CA        59.5380   37.0940   52.2150 C.3     9  ASN9        0.1653
      3  C         59.8000   36.6670   53.6630 C.2     9  ASN9        0.2266
      4  O         59.1040   37.0990   54.5810 O.2     9  ASN9       -0.2867
      5  CB        59.2580   38.6110   52.0910 C.3     9  ASN9        0.1155
      6  CG        60.4410   39.4660   52.5220 C.2     9  ASN9        0.2627
      7  OD1       61.5600   38.9520   52.6020 O.2     9  ASN9       -0.2716
      8  ND2       60.2920   40.7530   52.8150 N.am    9  ASN9       -0.0877
      9  N         62.4370   37.5110   55.4590 N.3    11  LYS11      -0.1197
     10  CA        63.1400   38.6000   56.1110 C.3    11  LYS11       0.1778
     11  C         64.4310   38.0130   56.8020 C.2    11  LYS11       0.2305
     12  O         65.0580   37.1760   56.1880 O.2    11  LYS11      -0.2863
     13  CB        62.3040   39.4370   57.0710 C.2    11  LYS11      -0.0042
     14  CG        60.9730   39.8550   56.6100 C.2    11  LYS11      -0.0273
     15  CD        60.3130   40.9440   57.4160 C.3    11  LYS11       0.0462
     16  CE        59.2450   41.6980   56.7250 C.3    11  LYS11       0.1140
     17  NZ        59.6760   42.4510   55.5360 N.3    11  LYS11      -0.1310
     18  N         62.6550   45.8000   47.3990 N.3    94  GLN94      -0.1245
     19  CA        61.6510   45.8000   48.4740 C.3    94  GLN94       0.1566
     20  C         61.8680   47.0560   49.3560 C.2    94  GLN94       0.2260
     21  O         62.9010   47.7260   49.3950 O.2    94  GLN94      -0.2867
     22  CB        61.8010   44.5440   49.3180 C.3    94  GLN94       0.0367
     23  CG        60.5390   44.2090   50.1620 C.3    94  GLN94       0.0905
     24  CD        59.2690   44.4610   49.3560 C.2    94  GLN94       0.2608
     25  OE1       59.3750   45.1300   48.3200 O.2    94  GLN94      -0.2717
     26  NE2       58.0810   44.0420   49.7790 N.am   94  GLN94      -0.0878
     27  N         53.6490   47.5570   49.1790 N.3   164  GLU164     -0.1245
     28  CA        53.6560   47.3790   50.6240 C.3   164  GLU164      0.1567
     29  C         53.1410   48.7000   51.1880 C.2   164  GLU164      0.2260
     30  O         53.9280   49.6520   51.3080 O.2   164  GLU164     -0.2867
     31  CB        55.0690   47.1640   51.1980 C.3   164  GLU164      0.0388
     32  CG        55.9440   46.1310   50.5060 C.3   164  GLU164      0.1160
     33  CD        57.3870   46.2690   50.9050 C.2   164  GLU164      0.3649
     34  OE1       57.8240   45.6870   51.8860 O.co2 164  GLU164     -0.2457
     35  OE2       58.1090   47.0080   50.2530 O.co2 164  GLU164     -0.2457
     36  N         52.9900   46.9130   56.8750 N.3   169  ILE169     -0.1231
     37  CA        54.1120   45.9920   56.9440 C.3   169  ILE169      0.1692
     38  C         54.5090   45.9480   58.4160 C.2   169  ILE169      0.2592
     39  O         54.7840   46.9990   59.0390 O.2   169  ILE169     -0.2718
     40  CB        55.3970   46.4560   56.2610 C.3   169  ILE169      0.0266
     41  CG1       55.1470   47.1590   54.9970 C.3   169  ILE169      0.0019
     42  CG2       56.2480   45.2440   55.8990 C.3   169  ILE169      0.0020
     43  CD1       56.4960   47.8860   54.9090 C.3   169  ILE169      0.0001
     44  N         54.3680   44.7460   58.9780 N.am  170  GLY170     -0.1957
     45  CA        54.7780   44.3350   60.3240 C.3   170  GLY170      0.1869
     46  C         54.1280   45.0700   61.5000 C.2   170  GLY170      0.2309
     47  O         54.4490   44.7230   62.6520 O.2   170  GLY170     -0.2863
     48  N         51.2790   43.7790   49.5360 N.3   208  GLY208     -0.1210
     49  CA        52.1790   43.4590   50.6570 C.3   208  GLY208      0.1956
     50  C         51.5460   44.0520   51.9070 C.2   208  GLY208      0.2612
     51  O         50.3900   44.4520   51.8340 O.2   208  GLY208     -0.2717
     52  N         52.1280   44.2900   53.0690 N.am  209  GLY209     -0.1942
     53  CA        51.3550   44.7950   54.2150 C.3   209  GLY209      0.2014
     54  C         50.5640   43.6180   54.7840 C.2   209  GLY209      0.2640
     55  O         50.0200   42.8100   54.0230 O.2   209  GLY209     -0.2714
     56  N         50.4580   43.4820   56.1030 N.am  210  SER210     -0.1935
     57  CA        49.9400   42.2670   56.7250 C.3   210  SER210      0.2055
     58  C         48.8170   41.3740   56.1590 C.2   210  SER210      0.2642
     59  O         47.6850   41.3230   56.6490 O.2   210  SER210     -0.2714
     60  CB        49.6200   42.6530   58.1980 C.3   210  SER210      0.2130
     61  OG        50.7730   42.9870   58.9990 O.3   210  SER210     -0.2179
     62  N         49.1140   40.6040   55.1110 N.am  211  ALA211     -0.1977
     63  CA        48.2060   39.6100   54.5280 C.3   211  ALA211      0.1597
     64  C         48.3090   38.3000   55.3460 C.2   211  ALA211      0.2287
     65  O         49.4120   37.9750   55.8120 O.2   211  ALA211     -0.2864
     66  CB        48.6200   39.3830   53.0330 C.3   211  ALA211      0.0319
     67  N         52.5790   39.2850   49.0020 N.3   229  LEU229     -0.1231
     68  CA        53.9670   39.1500   49.4620 C.3   229  LEU229      0.1693
     69  C         53.8100   39.1790   50.9750 C.2   229  LEU229      0.2592
     70  O         53.5440   40.1810   51.6370 O.2   229  LEU229     -0.2718
     71  CB        54.9110   40.2860   49.0420 C.3   229  LEU229      0.0284
     72  CG        56.4320   40.1320   49.4050 C.3   229  LEU229      0.0019
     73  CD1       57.0770   38.9610   48.7040 C.3   229  LEU229      0.0001
     74  CD2       57.1580   41.3970   48.9990 C.3   229  LEU229      0.0001
     75  N         53.8820   37.9470   51.4420 N.am  230  VAL230     -0.1966
     76  CA        53.6440   37.5310   52.8030 C.3   230  VAL230      0.1727
     77  C         54.9550   37.6660   53.4870 C.2   230  VAL230      0.2617
     78  O         55.9320   37.3100   52.8660 O.2   230  VAL230     -0.2715
     79  CB        53.2420   36.0490   52.9270 C.3   230  VAL230      0.0290
     80  CG1       52.3260   35.9840   54.1050 C.3   230  VAL230      0.0023
     81  CG2       52.4820   35.4770   51.7220 C.3   230  VAL230      0.0023
     82  N         55.0770   38.2230   54.6690 N.am  231  GLY231     -0.1940
     83  CA        56.3300   38.2270   55.3830 C.3   231  GLY231      0.2014
     84  C         56.2160   37.1680   56.4570 C.2   231  GLY231      0.2639
     85  O         56.4010   35.9490   56.2950 O.2   231  GLY231     -0.2714
     86  N         55.6600   37.6710   57.5360 N.am  232  GLY232     -0.1954
     87  CA        55.4780   36.8580   58.7300 C.3   232  GLY232      0.1869
     88  C         54.8050   35.4820   58.5640 C.2   232  GLY232      0.2309
     89  O         55.2940   34.4590   59.0980 O.2   232  GLY232     -0.2863
@<TRIPOS>BOND
     1    18    19    1
     2    25    24    2
     3    19    22    1
     4    19    20    1
     5    73    72    1
     6    74    72    1
     7    67    68    1
     8    71    72    1
     9    71    68    1
    10    27    28    1
    11    22    23    1
    12    24    26   am
    13    24    23    1
    14    20    21    2
    15    68    69    1
    16    48    49    1
    17    35    33   ar
    18    32    33    1
    19    32    31    1
    20    28    29    1
    21    28    31    1
    22    49    50    1
    23    33    34   ar
    24    69    75   am
    25    69    70    2
    26    29    30    2
    27    75    76    1
    28    81    79    1
    29     1     2    1
    30    51    50    2
    31    50    52   am
    32     5     2    1
    33     5     6    1
    34     2     3    1
    35     6     7    2
    36     6     8   am
    37    76    79    1
    38    76    77    1
    39    78    77    2
    40    79    80    1
    41    66    63    1
    42    52    53    1
    43    77    82   am
    44     3     4    2
    45    55    54    2
    46    53    54    1
    47    63    62    1
    48    63    64    1
    49    82    83    1
    50    54    56   am
    51    43    41    1
    52    41    40    1
    53    62    58   am
    54    64    65    2
    55    83    84    1
    56     9    10    1
    57    17    16    1
    58    42    40    1
    59    56    57    1
    60    10    11    1
    61    10    13    1
    62    58    59    2
    63    58    57    1
    64    12    11    2
    65    40    37    1
    66    85    84    2
    67    84    86   am
    68    14    13    2
    69    14    15    1
    70    16    15    1
    71    57    60    1
    72    36    37    1
    73    37    38    1
    74    86    87    1
    75    60    61    1
    76    38    44   am
    77    38    39    2
    78    88    87    1
    79    88    89    2
    80    44    45    1
    81    45    46    1
    82    46    47    2
