@<TRIPOS>MOLECULE
tmp/3zbfA00.pdb
 148 138 0 0 0
SMALL
GASTEIGER

@<TRIPOS>ATOM
      1  N         47.1410   26.5940    5.4490 N.3    18  LEU18      -0.1231
      2  CA        47.0890   25.4840    4.5010 C.3    18  LEU18       0.1693
      3  C         46.3660   25.8240    3.1970 C.2    18  LEU18       0.2592
      4  O         46.7820   25.3890    2.1220 O.2    18  LEU18      -0.2718
      5  CB        46.4260   24.2670    5.1510 C.3    18  LEU18       0.0284
      6  CG        47.0820   23.7780    6.4450 C.3    18  LEU18       0.0019
      7  CD1       46.5000   22.4320    6.8410 C.3    18  LEU18       0.0001
      8  CD2       48.5830   23.6660    6.2480 C.3    18  LEU18       0.0001
      9  N         45.2860   26.5950    3.2860 N.am   19  GLY19      -0.1957
     10  CA        44.5440   26.9430    2.0860 C.3    19  GLY19       0.1869
     11  C         43.2380   27.6690    2.3480 C.2    19  GLY19       0.2309
     12  O         42.9970   28.1530    3.4540 O.2    19  GLY19      -0.2863
     13  N         42.2200   27.4190    6.4230 N.3    23  VAL23      -0.1245
     14  CA        42.6310   26.2430    7.1830 C.3    23  VAL23       0.1561
     15  C         44.0650   26.3330    7.6670 C.2    23  VAL23       0.2260
     16  O         44.9880   26.5040    6.8760 O.2    23  VAL23      -0.2867
     17  CB        42.4920   24.9470    6.3480 C.3    23  VAL23       0.0252
     18  CG1       42.9230   23.7490    7.1820 C.3    23  VAL23       0.0019
     19  CG2       41.0580   24.7800    5.8690 C.3    23  VAL23       0.0019
     20  N         44.1620   20.5790   12.9050 N.3    42  ALA42      -0.1231
     21  CA        43.8150   21.5070   11.8340 C.3    42  ALA42       0.1694
     22  C         42.7230   22.4510   12.3400 C.2    42  ALA42       0.2592
     23  O         41.9610   22.1000   13.2440 O.2    42  ALA42      -0.2718
     24  CB        43.3190   20.7410   10.6160 C.3    42  ALA42       0.0304
     25  N         42.6520   23.6460   11.7620 N.am   43  VAL43      -0.1966
     26  CA        41.7100   24.6540   12.2340 C.3    43  VAL43       0.1727
     27  C         40.9370   25.3030   11.0950 C.2    43  VAL43       0.2616
     28  O         41.5100   25.9680   10.2380 O.2    43  VAL43      -0.2715
     29  CB        42.4290   25.7720   13.0250 C.3    43  VAL43       0.0290
     30  CG1       41.3970   26.7140   13.6340 C.3    43  VAL43       0.0023
     31  CG2       43.3190   25.1640   14.1120 C.3    43  VAL43       0.0023
     32  N         39.6250   25.1140   11.0990 N.am   44  LYS44      -0.1977
     33  CA        38.7640   25.7190   10.0940 C.3    44  LYS44       0.1596
     34  C         38.1830   27.0130   10.6610 C.2    44  LYS44       0.2287
     35  O         37.6020   27.0100   11.7430 O.2    44  LYS44      -0.2864
     36  CB        37.6420   24.7400    9.7360 C.3    44  LYS44       0.0298
     37  CG        36.7910   25.1530    8.5620 C.3    44  LYS44       0.0038
     38  CD        36.0290   23.9650    8.0020 C.3    44  LYS44       0.0206
     39  CE        35.2940   24.3380    6.7200 C.3    44  LYS44       0.1093
     40  NZ        34.4220   23.2320    6.2270 N.3    44  LYS44      -0.1314
     41  N         36.0930   11.9580   10.1100 N.3    74  LEU74      -0.1245
     42  CA        37.0060   12.9470   10.6770 C.3    74  LEU74       0.1561
     43  C         36.4920   13.4160   12.0490 C.2    74  LEU74       0.2260
     44  O         35.3170   13.7420   12.1940 O.2    74  LEU74      -0.2867
     45  CB        37.1300   14.1430    9.7180 C.3    74  LEU74       0.0270
     46  CG        38.0750   15.2880   10.1130 C.3    74  LEU74       0.0019
     47  CD1       39.5140   14.7820   10.2160 C.3    74  LEU74       0.0001
     48  CD2       37.9900   16.4070    9.0820 C.3    74  LEU74       0.0001
     49  N         39.8390   20.4670   14.1470 N.3    90  LEU90      -0.1231
     50  CA        39.7670   19.1200   13.6000 C.3    90  LEU90       0.1693
     51  C         41.0840   18.3790   13.8080 C.2    90  LEU90       0.2592
     52  O         42.1620   18.9760   13.7510 O.2    90  LEU90      -0.2718
     53  CB        39.4370   19.1950   12.1100 C.3    90  LEU90       0.0284
     54  CG        38.1570   19.9740   11.7950 C.3    90  LEU90       0.0019
     55  CD1       38.1400   20.3960   10.3480 C.3    90  LEU90       0.0001
     56  CD2       36.9500   19.1280   12.1290 C.3    90  LEU90       0.0001
     57  N         41.0010   17.0760   14.0550 N.am   91  GLU91      -0.1966
     58  CA        42.2100   16.2730   14.1040 C.3    91  GLU91       0.1733
     59  C         42.9600   16.5040   12.7970 C.2    91  GLU91       0.2616
     60  O         42.3500   16.6570   11.7330 O.2    91  GLU91      -0.2715
     61  CB        41.8680   14.7930   14.2500 C.3    91  GLU91       0.0429
     62  CG        41.3010   14.1720   12.9970 C.3    91  GLU91       0.1163
     63  CD        40.9090   12.7320   13.2090 C.2    91  GLU91       0.3649
     64  OE1       41.7940   11.9190   13.5470 O.co2  91  GLU91      -0.2457
     65  OE2       39.7150   12.4120   13.0450 O.co2  91  GLU91      -0.2457
     66  N         44.2830   16.5540   12.8810 N.am   92  LEU92      -0.1963
     67  CA        45.0870   16.8490   11.7100 C.3    92  LEU92       0.1728
     68  C         45.2930   15.5930   10.8650 C.2    92  LEU92       0.2616
     69  O         45.5900   14.5230   11.3880 O.2    92  LEU92      -0.2715
     70  CB        46.4350   17.4240   12.1320 C.3    92  LEU92       0.0311
     71  CG        47.2680   17.9230   10.9550 C.3    92  LEU92       0.0022
     72  CD1       46.5110   19.0360   10.2450 C.3    92  LEU92       0.0001
     73  CD2       48.6150   18.4120   11.4480 C.3    92  LEU92       0.0001
     74  N         45.1060   15.7280    9.5580 N.am   93  MET93      -0.1963
     75  CA        45.3330   14.6270    8.6290 C.3    93  MET93       0.1736
     76  C         46.4820   15.0170    7.7050 C.2    93  MET93       0.2616
     77  O         46.2850   15.7240    6.7270 O.2    93  MET93      -0.2715
     78  CB        44.0620   14.3560    7.8160 C.3    93  MET93       0.0427
     79  CG        42.8730   13.8840    8.6620 C.3    93  MET93       0.0599
     80  SD        43.1480   12.2750    9.4640 S.3    93  MET93      -0.1393
     81  CE        42.8810   11.1840    8.0670 C.3    93  MET93       0.0692
     82  N         47.6840   14.5510    8.0140 N.am   94  GLU94      -0.1977
     83  CA        48.8810   15.1290    7.4140 C.3    94  GLU94       0.1602
     84  C         49.0530   14.8270    5.9210 C.2    94  GLU94       0.2287
     85  O         49.8610   15.4660    5.2360 O.2    94  GLU94      -0.2864
     86  CB        50.1160   14.6790    8.1930 C.3    94  GLU94       0.0415
     87  CG        49.9900   14.9080    9.6970 C.3    94  GLU94       0.1163
     88  CD        51.3340   15.0290   10.4130 C.2    94  GLU94       0.3649
     89  OE1       52.3810   14.6920    9.8110 O.co2  94  GLU94      -0.2457
     90  OE2       51.3410   15.4630   11.5870 O.co2  94  GLU94      -0.2457
     91  N         46.7840   15.4380    3.7320 N.3    96  GLY96      -0.1210
     92  CA        45.9420   16.3120    2.9370 C.3    96  GLY96       0.1956
     93  C         44.7330   15.5650    2.4120 C.2    96  GLY96       0.2611
     94  O         44.3760   14.5170    2.9370 O.2    96  GLY96      -0.2717
     95  N         44.0890   16.0950    1.3820 N.am   97  ASP97      -0.1973
     96  CA        42.8680   15.4710    0.8880 C.3    97  ASP97       0.1709
     97  C         43.2250   14.2490    0.0510 C.2    97  ASP97       0.2293
     98  O         44.3210   14.1510   -0.4850 O.2    97  ASP97      -0.2864
     99  CB        42.0690   16.4540    0.0350 C.3    97  ASP97       0.1436
    100  CG        42.7920   16.8310   -1.2270 C.2    97  ASP97       0.3671
    101  OD1       43.7330   17.6480   -1.1400 O.co2  97  ASP97      -0.2456
    102  OD2       42.4280   16.3020   -2.2990 O.co2  97  ASP97      -0.2456
    103  N         44.5470   14.7830   -3.7950 N.3   100  THR100     -0.1218
    104  CA        45.9400   15.2110   -3.8890 C.3   100  THR100      0.1862
    105  C         46.8790   14.0590   -3.5340 C.2   100  THR100      0.2287
    106  O         47.9190   13.8750   -4.1650 O.2   100  THR100     -0.2866
    107  CB        46.2300   16.3820   -2.9190 C.3   100  THR100      0.1770
    108  OG1       45.3150   17.4480   -3.1820 O.3   100  THR100     -0.2211
    109  CG2       47.6550   16.8770   -3.0810 C.3   100  THR100      0.0375
    110  N         38.2130   14.4360   -3.0830 N.3   147  ARG147     -0.1231
    111  CA        38.5750   15.7730   -2.5960 C.3   147  ARG147      0.1694
    112  C         38.0000   16.0120   -1.1940 C.2   147  ARG147      0.2592
    113  O         38.4530   16.9040   -0.4740 O.2   147  ARG147     -0.2718
    114  CB        38.0430   16.8520   -3.5430 C.3   147  ARG147      0.0321
    115  CG        36.5230   16.9940   -3.4990 C.3   147  ARG147      0.0489
    116  CD        36.0060   18.1670   -4.3230 C.3   147  ARG147      0.2205
    117  NE        35.4820   17.7160   -5.6030 N.pl3 147  ARG147     -0.0865
    118  CZ        34.2440   17.2700   -5.7970 C.cat 147  ARG147      0.5346
    119  NH1       33.3790   17.2190   -4.7920 N.pl3 147  ARG147      0.1354
    120  NH2       33.8810   16.8430   -6.9980 N.pl3 147  ARG147      0.1354
    121  N         37.0020   15.2140   -0.8160 N.am  148  ASN148     -0.1974
    122  CA        36.2990   15.3950    0.4520 C.3   148  ASN148      0.1688
    123  C         36.7180   14.4150    1.5340 C.2   148  ASN148      0.2292
    124  O         36.1340   14.4030    2.6130 O.2   148  ASN148     -0.2864
    125  CB        34.7910   15.2730    0.2400 C.3   148  ASN148      0.1181
    126  CG        34.2130   16.4640   -0.4730 C.2   148  ASN148      0.2629
    127  OD1       34.7810   17.5510   -0.4430 O.2   148  ASN148     -0.2716
    128  ND2       33.0800   16.2680   -1.1230 N.am  148  ASN148     -0.0877
    129  N         40.2060   12.6270    3.6710 N.3   150  LEU150     -0.1245
    130  CA        41.5200   13.0280    4.1540 C.3   150  LEU150      0.1561
    131  C         42.3460   11.8100    4.5160 C.2   150  LEU150      0.2260
    132  O         41.8040   10.7940    4.9490 O.2   150  LEU150     -0.2867
    133  CB        41.3680   13.9390    5.3790 C.3   150  LEU150      0.0270
    134  CG        40.6830   15.2730    5.0740 C.3   150  LEU150      0.0019
    135  CD1       40.5330   16.0780    6.3550 C.3   150  LEU150      0.0001
    136  CD2       41.5110   16.0410    4.0470 C.3   150  LEU150      0.0001
    137  N         35.5590   13.5940    5.3380 N.3   165  GLY165     -0.1210
    138  CA        36.1510   14.7250    6.0150 C.3   165  GLY165      0.1956
    139  C         35.3340   15.9840    5.9710 C.2   165  GLY165      0.2611
    140  O         35.3040   16.7280    6.9460 O.2   165  GLY165     -0.2717
    141  N         34.6860   16.2340    4.8400 N.am  166  ASP166     -0.1973
    142  CA        33.9050   17.4490    4.6690 C.3   166  ASP166      0.1709
    143  C         32.4390   17.0770    4.5170 C.2   166  ASP166      0.2293
    144  O         32.0740   16.2950    3.6370 O.2   166  ASP166     -0.2864
    145  CB        34.3740   18.2180    3.4340 C.3   166  ASP166      0.1436
    146  CG        33.6010   19.5110    3.2250 C.2   166  ASP166      0.3671
    147  OD1       32.3990   19.4380    2.8900 O.co2 166  ASP166     -0.2456
    148  OD2       34.1950   20.5970    3.4000 O.co2 166  ASP166     -0.2456
@<TRIPOS>BOND
     1   120   118    1
     2   118   117    2
     3   118   119    1
     4   117   116    1
     5   116   115    1
     6   106   105    2
     7   104   103    1
     8   104   105    1
     9   104   107    1
    10   114   115    1
    11   114   111    1
    12   108   107    1
    13   110   111    1
    14   109   107    1
    15   111   112    1
    16   102   100   ar
    17   100   101   ar
    18   100    99    1
    19   112   121   am
    20   112   113    2
    21   128   126   am
    22   121   122    1
    23    98    97    2
    24   126   127    2
    25   126   125    1
    26    99    96    1
    27    97    96    1
    28   125   122    1
    29   122   123    1
    30    96    95    1
    31    95    93   am
    32   123   124    2
    33    10    11    1
    34    10     9    1
    35     4     3    2
    36    11    12    2
    37    93    94    2
    38    93    92    1
    39   147   146   ar
    40    92    91    1
    41     3     9   am
    42     3     2    1
    43   146   148   ar
    44   146   145    1
    45   145   142    1
    46   144   143    2
    47   129   130    1
    48   136   134    1
    49   130   131    1
    50   130   133    1
    51     2     5    1
    52     2     1    1
    53   131   132    2
    54   143   142    1
    55   142   141    1
    56   141   139   am
    57   134   133    1
    58   134   135    1
    59     5     6    1
    60    85    84    2
    61   137   138    1
    62    19    17    1
    63    84    83    1
    64   139   138    1
    65   139   140    2
    66    40    39    1
    67     8     6    1
    68    17    18    1
    69    17    14    1
    70    13    14    1
    71     6     7    1
    72    39    38    1
    73    77    76    2
    74    16    15    2
    75    14    15    1
    76    83    82    1
    77    83    86    1
    78    76    82   am
    79    76    75    1
    80    78    75    1
    81    78    79    1
    82    38    37    1
    83    81    80    1
    84    86    87    1
    85    37    36    1
    86    75    74    1
    87    79    80    1
    88    48    46    1
    89    74    68   am
    90    87    88    1
    91    45    46    1
    92    45    42    1
    93    36    33    1
    94    89    88   ar
    95    33    34    1
    96    33    32    1
    97    41    42    1
    98    46    47    1
    99    28    27    2
   100    72    71    1
   101    55    54    1
   102    88    90   ar
   103    24    21    1
   104    34    35    2
   105    42    43    1
   106    68    69    2
   107    68    67    1
   108    71    73    1
   109    71    70    1
   110    27    32   am
   111    27    26    1
   112    67    70    1
   113    67    66    1
   114    60    59    2
   115    25    26    1
   116    25    22   am
   117    54    53    1
   118    54    56    1
   119    21    22    1
   120    21    20    1
   121    43    44    2
   122    53    50    1
   123    26    29    1
   124    22    23    2
   125    59    66   am
   126    59    58    1
   127    62    63    1
   128    62    61    1
   129    29    30    1
   130    29    31    1
   131    65    63   ar
   132    63    64   ar
   133    50    51    1
   134    50    49    1
   135    52    51    2
   136    51    57   am
   137    57    58    1
   138    58    61    1
