@<TRIPOS>MOLECULE
tmp/3zbgA00.pdb
 81 78 0 0 0
SMALL
GASTEIGER

@<TRIPOS>ATOM
      1  N          4.2470  -39.0590    1.0390 N.3   147  ALA147     -0.1245
      2  CA         3.7510  -38.2460    2.1340 C.3   147  ALA147      0.1562
      3  C          3.2540  -36.8850    1.6840 C.2   147  ALA147      0.2260
      4  O          2.2200  -36.4090    2.1510 O.2   147  ALA147     -0.2867
      5  CB         4.8260  -38.0760    3.1930 C.3   147  ALA147      0.0290
      6  N          2.0600  -29.9630    3.9260 N.3   169  PHE169     -0.1241
      7  CA         1.3530  -30.7110    4.9770 C.3   169  PHE169      0.1605
      8  C          0.2990  -29.7980    5.5780 C.2   169  PHE169      0.2264
      9  O          0.4150  -29.3230    6.7170 O.2   169  PHE169     -0.2867
     10  CB         2.3520  -31.2020    6.0090 C.3   169  PHE169      0.0534
     11  CG         3.3960  -32.1080    5.4050 C.ar  169  PHE169     -0.0203
     12  CD1        3.0310  -33.3380    4.8960 C.ar  169  PHE169     -0.0042
     13  CD2        4.7150  -31.7150    5.3260 C.ar  169  PHE169     -0.0042
     14  CE1        3.9580  -34.1690    4.3070 C.ar  169  PHE169     -0.0003
     15  CE2        5.6520  -32.5380    4.7390 C.ar  169  PHE169     -0.0003
     16  CZ         5.2660  -33.7690    4.2370 C.ar  169  PHE169     -0.0000
     17  N         -1.4370  -30.9620    9.1060 N.3   172  PRO172     -0.2116
     18  CA        -0.5040  -30.7970   10.1930 C.3   172  PRO172      0.1372
     19  C         -0.3120  -29.3310   10.5130 C.2   172  PRO172      0.2244
     20  O         -0.3380  -28.9430   11.6980 O.2   172  PRO172     -0.2868
     21  CB         0.7540  -31.4610    9.6590 C.3   172  PRO172      0.0268
     22  CG         0.2000  -32.6010    8.8020 C.3   172  PRO172      0.0207
     23  CD        -1.0370  -32.0430    8.1720 C.3   172  PRO172      0.0892
     24  N          8.7720  -31.2540   11.5100 N.3   232  PHE232     -0.1241
     25  CA         8.9390  -31.4340   10.0780 C.3   232  PHE232      0.1605
     26  C          8.2730  -30.3660    9.2060 C.2   232  PHE232      0.2264
     27  O          8.4670  -30.3720    7.9860 O.2   232  PHE232     -0.2867
     28  CB         8.3840  -32.8160    9.6860 C.3   232  PHE232      0.0534
     29  CG         6.9110  -32.9830    9.9770 C.ar  232  PHE232     -0.0203
     30  CD1        6.4750  -33.4470   11.2120 C.ar  232  PHE232     -0.0042
     31  CD2        5.9680  -32.6360    9.0160 C.ar  232  PHE232     -0.0042
     32  CE1        5.1160  -33.5760   11.4900 C.ar  232  PHE232     -0.0003
     33  CE2        4.6090  -32.7670    9.2730 C.ar  232  PHE232     -0.0003
     34  CZ         4.1850  -33.2420   10.5140 C.ar  232  PHE232     -0.0000
     35  N          6.6120  -35.2420   14.8210 N.3   244  MET244     -0.1245
     36  CA         6.1780  -36.4430   14.1380 C.3   244  MET244      0.1570
     37  C          5.1790  -37.2280   14.9750 C.2   244  MET244      0.2261
     38  O          4.1270  -37.6360   14.4610 O.2   244  MET244     -0.2867
     39  CB         7.3640  -37.3560   13.8090 C.3   244  MET244      0.0387
     40  CG         8.3040  -36.8620   12.7180 C.3   244  MET244      0.0595
     41  SD         7.5410  -36.9380   11.0620 S.3   244  MET244     -0.1393
     42  CE         8.0970  -38.5700   10.5500 C.3   244  MET244      0.0692
     43  N          1.2890  -36.7590   15.2520 N.3   247  CYS247     -0.1221
     44  CA         0.4490  -36.9160   14.0510 C.3   247  CYS247      0.1808
     45  C         -0.1080  -38.3110   13.9410 C.2   247  CYS247      0.2602
     46  O          0.5870  -39.2940   14.2050 O.2   247  CYS247     -0.2717
     47  CB         1.2720  -36.6180   12.7910 C.3   247  CYS247      0.0970
     48  SG         1.9500  -34.9520   12.8170 S.3   247  CYS247     -0.0800
     49  N         -1.3760  -38.4020   13.5020 N.am  248  SER248     -0.1938
     50  CA        -1.9880  -39.6560   13.1650 C.3   248  SER248      0.2055
     51  C         -1.3340  -40.2580   11.9180 C.2   248  SER248      0.2643
     52  O         -0.7620  -39.5450   11.1460 O.2   248  SER248     -0.2714
     53  CB        -3.4990  -39.5080   12.9260 C.3   248  SER248      0.2130
     54  OG        -3.7750  -38.5620   11.9380 O.3   248  SER248     -0.2179
     55  N         -1.5250  -41.5590   11.7220 N.am  249  GLN249     -0.1963
     56  CA        -0.8760  -42.2970   10.6590 C.3   249  GLN249      0.1733
     57  C         -1.5460  -42.2020    9.2920 C.2   249  GLN249      0.2616
     58  O         -2.7790  -42.0800    9.1900 O.2   249  GLN249     -0.2715
     59  CB        -0.7580  -43.7870   11.0320 C.3   249  GLN249      0.0408
     60  CG         0.0120  -44.0790   12.3140 C.3   249  GLN249      0.0908
     61  CD         1.2910  -43.2720   12.4260 C.2   249  GLN249      0.2608
     62  OE1        2.1080  -43.2620   11.5150 O.2   249  GLN249     -0.2717
     63  NE2        1.4640  -42.5680   13.5570 N.am  249  GLN249     -0.0878
     64  N         -0.7320  -42.3230    8.2420 N.am  250  VAL250     -0.1977
     65  CA        -1.2360  -42.5630    6.8970 C.3   250  VAL250      0.1596
     66  C         -1.4490  -44.0680    6.7500 C.2   250  VAL250      0.2287
     67  O         -0.4720  -44.8110    6.6150 O.2   250  VAL250     -0.2864
     68  CB        -0.2260  -42.0570    5.8290 C.3   250  VAL250      0.0276
     69  CG1       -0.6570  -42.4540    4.4150 C.3   250  VAL250      0.0022
     70  CG2       -0.0100  -40.5470    5.9760 C.3   250  VAL250      0.0022
     71  N         -4.5480  -35.4450   15.4930 N.3   330  PHE330     -0.1241
     72  CA        -3.2890  -35.0500   16.1260 C.3   330  PHE330      0.1605
     73  C         -3.4630  -35.2170   17.6360 C.2   330  PHE330      0.2264
     74  O         -4.5990  -35.1660   18.1440 O.2   330  PHE330     -0.2867
     75  CB        -2.8880  -33.6030   15.7500 C.3   330  PHE330      0.0534
     76  CG        -2.7560  -33.4320   14.2530 C.ar  330  PHE330     -0.0203
     77  CD1       -3.8790  -33.1590   13.4750 C.ar  330  PHE330     -0.0042
     78  CD2       -1.5440  -33.6790   13.6260 C.ar  330  PHE330     -0.0042
     79  CE1       -3.7890  -33.0870   12.0990 C.ar  330  PHE330     -0.0003
     80  CE2       -1.4350  -33.6220   12.2570 C.ar  330  PHE330     -0.0003
     81  CZ        -2.5610  -33.3360   11.4870 C.ar  330  PHE330     -0.0000
@<TRIPOS>BOND
     1     1     2    1
     2     3     2    1
     3     3     4    2
     4     2     5    1
     5     6     7    1
     6    16    14   ar
     7    16    15   ar
     8    14    12   ar
     9    69    68    1
    10    15    13   ar
    11    12    11   ar
    12     7     8    1
    13     7    10    1
    14    13    11   ar
    15    11    10    1
    16     8     9    2
    17    68    70    1
    18    68    65    1
    19    67    66    2
    20    66    65    1
    21    65    64    1
    22    27    26    2
    23    23    22    1
    24    23    17    1
    25    64    57   am
    26    22    21    1
    27    31    33   ar
    28    31    29   ar
    29    17    18    1
    30    58    57    2
    31    26    25    1
    32    33    34   ar
    33    57    56    1
    34    21    18    1
    35    28    29    1
    36    28    25    1
    37    29    30   ar
    38    25    24    1
    39    18    19    1
    40    19    20    2
    41    34    32   ar
    42    42    41    1
    43    56    59    1
    44    56    55    1
    45    59    60    1
    46    41    40    1
    47    52    51    2
    48    30    32   ar
    49    81    79   ar
    50    81    80   ar
    51    62    61    2
    52    55    51   am
    53    51    50    1
    54    54    53    1
    55    79    77   ar
    56    80    78   ar
    57    60    61    1
    58    61    63   am
    59    40    39    1
    60    47    48    1
    61    47    44    1
    62    53    50    1
    63    50    49    1
    64    77    76   ar
    65    49    45   am
    66    78    76   ar
    67    39    36    1
    68    45    44    1
    69    45    46    2
    70    44    43    1
    71    36    35    1
    72    36    37    1
    73    76    75    1
    74    38    37    2
    75    71    72    1
    76    75    72    1
    77    72    73    1
    78    73    74    2
