@<TRIPOS>MOLECULE
tmp/3zbkB00.pdb
 89 84 0 0 0
SMALL
GASTEIGER

@<TRIPOS>ATOM
      1  N          3.8860  -49.7780   -3.1550 N.3     7  VAL7       -0.1231
      2  CA         2.4990  -49.5220   -2.8720 C.3     7  VAL7        0.1692
      3  C          1.8970  -48.5620   -3.9070 C.2     7  VAL7        0.2592
      4  O          0.7280  -48.6150   -4.1690 O.2     7  VAL7       -0.2718
      5  CB         2.3050  -48.9150   -1.4520 C.3     7  VAL7        0.0266
      6  CG1        0.8100  -48.5620   -1.2010 C.3     7  VAL7        0.0020
      7  CG2        2.7810  -49.8890   -0.3620 C.3     7  VAL7        0.0020
      8  N          2.6840  -47.6320   -4.4180 N.am    8  GLY8       -0.1957
      9  CA         2.2200  -46.6690   -5.4390 C.3     8  GLY8        0.1869
     10  C          3.3290  -45.7210   -5.7770 C.2     8  GLY8        0.2309
     11  O          4.3710  -45.8140   -5.1990 O.2     8  GLY8       -0.2863
     12  N         -1.1630  -40.8480   -5.0350 N.3    52  HIS52      -0.1226
     13  CA        -1.3270  -42.0900   -5.7860 C.3    52  HIS52       0.1752
     14  C         -0.8510  -43.2610   -5.0230 C.2    52  HIS52       0.2597
     15  O         -0.7340  -44.3040   -5.6080 O.2    52  HIS52      -0.2718
     16  CB        -0.6140  -41.9570   -7.1350 C.3    52  HIS52       0.0759
     17  CG        -1.2220  -40.8980   -8.0060 C.ar   52  HIS52       0.0818
     18  ND1       -0.6360  -39.6990   -8.2240 N.ar   52  HIS52      -0.2268
     19  CD2       -2.3940  -40.9070   -8.7650 C.ar   52  HIS52       0.1154
     20  CE1       -1.4240  -38.9570   -9.0480 C.ar   52  HIS52       0.1986
     21  NE2       -2.4960  -39.6950   -9.3700 N.ar   52  HIS52      -0.2212
     22  N         -0.6030  -43.1130   -3.7040 N.am   53  SER53      -0.1938
     23  CA        -0.2470  -44.2140   -2.7980 C.3    53  SER53       0.2055
     24  C         -1.2450  -44.4650   -1.6730 C.2    53  SER53       0.2643
     25  O         -0.9690  -45.2530   -0.7910 O.2    53  SER53      -0.2714
     26  CB         1.1770  -43.9700   -2.2350 C.3    53  SER53       0.2130
     27  OG         2.1380  -44.1590   -3.2880 O.3    53  SER53      -0.2179
     28  N         -2.3660  -43.7600   -1.6690 N.am   54  GLY54      -0.1954
     29  CA        -3.3960  -43.9150   -0.6290 C.3    54  GLY54       0.1869
     30  C         -3.0000  -43.4040    0.7450 C.2    54  GLY54       0.2309
     31  O         -3.6000  -43.7830    1.7580 O.2    54  GLY54      -0.2863
     32  N         -3.1130  -39.5730    6.0960 N.3    58  ARG58      -0.1245
     33  CA        -2.3600  -40.4490    6.9460 C.3    58  ARG58       0.1563
     34  C         -0.8790  -40.4140    6.6210 C.2    58  ARG58       0.2260
     35  O         -0.1550  -41.3570    6.8070 O.2    58  ARG58      -0.2867
     36  CB        -2.9290  -41.8670    6.9740 C.3    58  ARG58       0.0307
     37  CG        -3.0370  -42.5340    5.6410 C.3    58  ARG58       0.0489
     38  CD        -3.5870  -43.9310    5.8020 C.3    58  ARG58       0.2205
     39  NE        -3.8540  -44.5230    4.4910 N.pl3  58  ARG58      -0.0865
     40  CZ        -4.1320  -45.8110    4.2920 C.cat  58  ARG58       0.5346
     41  NH1       -4.2750  -46.6630    5.3100 N.pl3  58  ARG58       0.1354
     42  NH2       -4.2380  -46.2630    3.0720 N.pl3  58  ARG58       0.1354
     43  N         -1.3340  -50.2330    6.5220 N.3   268  MET268     -0.1245
     44  CA        -2.1540  -49.5880    5.5070 C.3   268  MET268      0.1570
     45  C         -3.4730  -50.3580    5.2000 C.2   268  MET268      0.2261
     46  O         -4.2820  -49.9050    4.4010 O.2   268  MET268     -0.2867
     47  CB        -1.3580  -49.3880    4.2190 C.3   268  MET268      0.0387
     48  CG        -0.2420  -48.3680    4.4030 C.3   268  MET268      0.0595
     49  SD         0.6820  -47.9910    2.9190 S.3   268  MET268     -0.1393
     50  CE        -0.3650  -46.7490    2.1320 C.3   268  MET268      0.0692
     51  N         -3.3280  -53.5540    3.9470 N.3   270  LEU270     -0.1245
     52  CA        -3.0540  -54.3100    2.7230 C.3   270  LEU270      0.1561
     53  C         -2.4140  -55.6600    3.0500 C.2   270  LEU270      0.2260
     54  O         -1.6080  -55.7950    3.9700 O.2   270  LEU270     -0.2867
     55  CB        -2.0660  -53.5230    1.8000 C.3   270  LEU270      0.0270
     56  CG        -2.5520  -52.1710    1.2410 C.3   270  LEU270      0.0019
     57  CD1       -1.3910  -51.2710    0.7490 C.3   270  LEU270      0.0001
     58  CD2       -3.6440  -52.4110    0.2240 C.3   270  LEU270      0.0001
     59  N         -2.7000  -54.8090   -6.4650 N.3   276  ARG276     -0.1231
     60  CA        -2.2260  -53.4270   -6.7160 C.3   276  ARG276      0.1694
     61  C         -0.7510  -53.2630   -6.4390 C.2   276  ARG276      0.2591
     62  O         -0.2170  -52.2160   -6.7000 O.2   276  ARG276     -0.2718
     63  CB        -3.0870  -52.4160   -5.9500 C.3   276  ARG276      0.0321
     64  CG        -4.5050  -52.3570   -6.5360 C.3   276  ARG276      0.0489
     65  CD        -5.5550  -51.7630   -5.5960 C.3   276  ARG276      0.2205
     66  NE        -5.5910  -52.3970   -4.2720 N.pl3 276  ARG276     -0.0865
     67  CZ        -6.3580  -51.9730   -3.2470 C.cat 276  ARG276      0.5346
     68  NH1       -7.2040  -50.9270   -3.3880 N.pl3 276  ARG276      0.1354
     69  NH2       -6.2880  -52.5920   -2.0830 N.pl3 276  ARG276      0.1354
     70  N         -0.1290  -54.2890   -5.8600 N.am  277  LEU277     -0.1980
     71  CA         1.2430  -54.2260   -5.4110 C.3   277  LEU277      0.1596
     72  C          2.2100  -54.8430   -6.4500 C.2   277  LEU277      0.2287
     73  O          1.8330  -55.6690   -7.2540 O.2   277  LEU277     -0.2864
     74  CB         1.3810  -54.9880   -4.0830 C.3   277  LEU277      0.0297
     75  CG         0.5020  -54.4320   -2.9610 C.3   277  LEU277      0.0022
     76  CD1        0.7030  -55.1690   -1.6220 C.3   277  LEU277      0.0001
     77  CD2        0.7000  -52.9200   -2.7290 C.3   277  LEU277      0.0001
     78  N          6.5160  -51.0190  -12.6350 N.3   391  TYR391     -0.1241
     79  CA         5.2690  -51.0390  -11.8690 C.3   391  TYR391      0.1605
     80  C          4.0450  -50.7290  -12.7800 C.2   391  TYR391      0.2264
     81  O          3.0800  -51.4450  -12.7630 O.2   391  TYR391     -0.2867
     82  CB         5.3600  -50.0380  -10.7030 C.3   391  TYR391      0.0534
     83  CG         4.0860  -49.7790  -10.0010 C.ar  391  TYR391     -0.0201
     84  CD1        3.6440  -50.6180   -8.9460 C.ar  391  TYR391     -0.0009
     85  CD2        3.3000  -48.7120  -10.3680 C.ar  391  TYR391     -0.0009
     86  CE1        2.4450  -50.3770   -8.2970 C.ar  391  TYR391      0.0417
     87  CE2        2.1020  -48.4620   -9.7310 C.ar  391  TYR391      0.0417
     88  CZ         1.7140  -49.2600   -8.6840 C.ar  391  TYR391      0.1957
     89  OH         0.5190  -48.9030   -8.2120 O.3   391  TYR391     -0.2866
@<TRIPOS>BOND
     1    80    81    2
     2    80    79    1
     3    78    79    1
     4    79    82    1
     5    82    83    1
     6    85    83   ar
     7    85    87   ar
     8    83    84   ar
     9    87    88   ar
    10    21    20   ar
    11    21    19   ar
    12    20    18   ar
    13    84    86   ar
    14    19    17   ar
    15    88    86   ar
    16    88    89    1
    17    18    17   ar
    18    17    16    1
    19    73    72    2
    20    16    13    1
    21    60    59    1
    22    60    61    1
    23    60    63    1
    24    62    61    2
    25    64    63    1
    26    64    65    1
    27    72    71    1
    28    61    70   am
    29    70    71    1
    30    13    12    1
    31    13    14    1
    32    10     9    1
    33    10    11    2
    34    15    14    2
    35    65    66    1
    36     9     8    1
    37    71    74    1
    38    14    22   am
    39     8     3   am
    40    66    67    2
    41     4     3    2
    42    74    75    1
    43     3     2    1
    44    22    23    1
    45    68    67    1
    46    27    26    1
    47    67    69    1
    48     1     2    1
    49    75    77    1
    50    75    76    1
    51     2     5    1
    52    23    26    1
    53    23    24    1
    54    24    28   am
    55    24    25    2
    56    28    29    1
    57     5     6    1
    58     5     7    1
    59    29    30    1
    60    58    56    1
    61    30    31    2
    62    57    56    1
    63    56    55    1
    64    55    52    1
    65    50    49    1
    66    52    53    1
    67    52    51    1
    68    49    48    1
    69    53    54    2
    70    42    40    1
    71    47    48    1
    72    47    44    1
    73    40    39    2
    74    40    41    1
    75    46    45    2
    76    39    38    1
    77    45    44    1
    78    44    43    1
    79    37    38    1
    80    37    36    1
    81    32    33    1
    82    34    35    2
    83    34    33    1
    84    33    36    1
