@<TRIPOS>MOLECULE
tmp/3zblA00.pdb
 72 66 0 0 0
SMALL
GASTEIGER

@<TRIPOS>ATOM
      1  N        -52.4800  -18.1020   10.3710 N.3    11  THR11      -0.1204
      2  CA       -52.4330  -19.4730    9.8380 C.3    11  THR11       0.1979
      3  C        -51.3940  -20.2880   10.6380 C.2    11  THR11       0.2459
      4  O        -50.4580  -19.7130   11.2710 O.2    11  THR11      -0.2732
      5  CB       -52.0970  -19.5150    8.3140 C.3    11  THR11       0.1783
      6  OG1      -50.7370  -19.0930    8.1060 O.3    11  THR11      -0.2211
      7  CG2      -53.0420  -18.6870    7.4330 C.3    11  THR11       0.0376
      8  N        -51.5030  -21.6320   10.5950 N.am   12  PRO12      -0.2728
      9  CA       -50.2900  -22.3770   10.9660 C.3    12  PRO12       0.1401
     10  C        -49.1020  -21.8840   10.1710 C.2    12  PRO12       0.2269
     11  O        -49.2580  -21.4840    9.0270 O.2    12  PRO12      -0.2865
     12  CB       -50.6250  -23.8460   10.5700 C.3    12  PRO12       0.0296
     13  CG       -52.1440  -23.9010   10.5280 C.3    12  PRO12       0.0237
     14  CD       -52.5700  -22.5130   10.0700 C.3    12  PRO12       0.0939
     15  N        -45.5860  -22.9340    8.6050 N.3    14  VAL14      -0.1245
     16  CA       -45.0650  -24.2320    8.1500 C.3    14  VAL14       0.1561
     17  C        -43.7360  -24.1190    7.4310 C.2    14  VAL14       0.2260
     18  O        -43.4110  -23.1090    6.7820 O.2    14  VAL14      -0.2867
     19  CB       -46.1060  -24.9700    7.2560 C.3    14  VAL14       0.0252
     20  CG1      -47.4580  -25.0160    7.9620 C.3    14  VAL14       0.0019
     21  CG2      -46.2220  -24.2890    5.9250 C.3    14  VAL14       0.0019
     22  N        -47.0290  -30.5670    9.1830 N.3    20  LEU20      -0.1245
     23  CA       -47.9380  -29.9580    8.2210 C.3    20  LEU20       0.1561
     24  C        -47.2850  -29.6010    6.9080 C.2    20  LEU20       0.2260
     25  O        -47.9770  -29.2970    5.9560 O.2    20  LEU20      -0.2867
     26  CB       -48.5520  -28.7020    8.8120 C.3    20  LEU20       0.0270
     27  CG       -49.4150  -28.9320   10.0180 C.3    20  LEU20       0.0019
     28  CD1      -50.0420  -27.5950   10.3720 C.3    20  LEU20       0.0001
     29  CD2      -50.4680  -30.0140    9.7500 C.3    20  LEU20       0.0001
     30  N        -47.9720  -28.1420   -0.7380 N.3    34  ASN34      -0.1225
     31  CA       -48.0100  -27.0090    0.1760 C.3    34  ASN34       0.1785
     32  C        -48.7090  -25.8080   -0.5200 C.2    34  ASN34       0.2597
     33  O        -48.7070  -25.6960   -1.7270 O.2    34  ASN34      -0.2718
     34  CB       -46.6140  -26.5780    0.5920 C.3    34  ASN34       0.1169
     35  CG       -45.8370  -27.6840    1.3020 C.2    34  ASN34       0.2627
     36  OD1      -44.7050  -28.0350    0.8950 O.2    34  ASN34      -0.2716
     37  ND2      -46.4140  -28.2080    2.3460 N.am   34  ASN34      -0.0877
     38  N        -49.3210  -24.9610    0.2690 N.am   35  MET35      -0.1979
     39  CA       -49.9670  -23.7450   -0.2620 C.3    35  MET35       0.1605
     40  C        -48.9650  -22.8680   -0.9860 C.2    35  MET35       0.2287
     41  O        -47.8060  -22.7300   -0.5760 O.2    35  MET35      -0.2864
     42  CB       -50.6750  -22.9900    0.8600 C.3    35  MET35       0.0413
     43  CG       -52.0380  -23.5450    1.1920 C.3    35  MET35       0.0598
     44  SD       -52.9610  -22.4660    2.2830 S.3    35  MET35      -0.1393
     45  CE       -54.1290  -23.6980    2.9310 C.3    35  MET35       0.0692
     46  N        -52.1360  -18.9340    0.4790 N.3    40  ILE40      -0.1245
     47  CA       -51.9770  -18.4220    1.8240 C.3    40  ILE40       0.1561
     48  C        -52.6840  -17.0690    1.9770 C.2    40  ILE40       0.2260
     49  O        -53.3290  -16.7920    3.0060 O.2    40  ILE40      -0.2867
     50  CB       -50.5070  -18.3180    2.2120 C.3    40  ILE40       0.0252
     51  CG1      -49.9520  -19.7380    2.4820 C.3    40  ILE40       0.0019
     52  CG2      -50.4320  -17.5970    3.5420 C.3    40  ILE40       0.0019
     53  CD1      -48.4830  -19.8010    2.7140 C.3    40  ILE40       0.0001
     54  N        -56.4220  -17.7460    2.1800 N.3    43  THR43      -0.1218
     55  CA       -56.8120  -18.2910    3.4850 C.3    43  THR43       0.1862
     56  C        -56.7440  -17.2190    4.5540 C.2    43  THR43       0.2287
     57  O        -57.5560  -17.1820    5.4810 O.2    43  THR43      -0.2866
     58  CB       -55.8440  -19.3990    3.9490 C.3    43  THR43       0.1770
     59  OG1      -55.6870  -20.3560    2.9050 O.3    43  THR43      -0.2211
     60  CG2      -56.3250  -20.1150    5.1810 C.3    43  THR43       0.0375
     61  N        -43.5830  -20.5250    6.0180 N.3   251  ASP251     -0.1225
     62  CA       -44.6410  -20.0150    5.1800 C.3   251  ASP251      0.1805
     63  C        -45.8270  -19.7920    6.0960 C.2   251  ASP251      0.2598
     64  O        -46.0920  -20.6230    6.9600 O.2   251  ASP251     -0.2718
     65  CB       -45.0830  -21.0650    4.1430 C.3   251  ASP251      0.1424
     66  CG       -43.9900  -21.4810    3.1480 C.2   251  ASP251      0.3668
     67  OD1      -42.9660  -20.8000    2.9930 O.co2 251  ASP251     -0.2456
     68  OD2      -44.2410  -22.4920    2.4510 O.co2 251  ASP251     -0.2456
     69  N        -46.5760  -18.7000    5.8810 N.am  252  GLY252     -0.1957
     70  CA       -47.8060  -18.4920    6.6270 C.3   252  GLY252      0.1869
     71  C        -48.3410  -17.0850    6.3990 C.2   252  GLY252      0.2309
     72  O        -47.7580  -16.2820    5.6430 O.2   252  GLY252     -0.2863
@<TRIPOS>BOND
     1    33    32    2
     2    40    41    2
     3    40    39    1
     4    30    31    1
     5    32    31    1
     6    32    38   am
     7    39    38    1
     8    39    42    1
     9    31    34    1
    10    46    47    1
    11    34    35    1
    12    42    43    1
    13    36    35    2
    14    43    44    1
    15    35    37   am
    16    47    48    1
    17    47    50    1
    18    48    49    2
    19    54    55    1
    20    50    51    1
    21    50    52    1
    22    44    45    1
    23    68    66   ar
    24    51    53    1
    25    59    58    1
    26    67    66   ar
    27    66    65    1
    28    55    58    1
    29    55    56    1
    30    58    60    1
    31    65    62    1
    32    56    57    2
    33    62    61    1
    34    62    63    1
    35    72    71    2
    36    69    63   am
    37    69    70    1
    38    21    19    1
    39    25    24    2
    40    63    64    2
    41    71    70    1
    42    18    17    2
    43    24    23    1
    44    19    20    1
    45    19    16    1
    46    17    16    1
    47     7     5    1
    48     6     5    1
    49    16    15    1
    50    23    26    1
    51    23    22    1
    52     5     2    1
    53    26    27    1
    54    11    10    2
    55    29    27    1
    56     2     1    1
    57     2     3    1
    58    27    28    1
    59    14    13    1
    60    14     8    1
    61    10     9    1
    62    13    12    1
    63    12     9    1
    64     8     3   am
    65     8     9    1
    66     3     4    2
